data_mof_unit_7421.cif
_audit_creation_date              2012-12-11T14:11:05-0500
_audit_creation_method            fapswitch 2.2
_symmetry_space_group_name_H-M    P1
_symmetry_Int_Tables_number       1
_space_group_crystal_system       triclinic
_cell_length_a                    20.103104
_cell_length_b                    17.159464
_cell_length_c                    15.723263
_cell_angle_alpha                 89.989703
_cell_angle_beta                  51.429626
_cell_angle_gamma                 89.76155
_cell_volume                      4240.55999767

loop_
_atom_site_label
_atom_site_type_symbol
_atom_type_description
_atom_site_fract_x
_atom_site_fract_y
_atom_site_fract_z
_atom_type_partial_charge
C1    C     C_R   0.337820 0.174331 0.052716 0.472996
C2    C     C_3   0.763490 0.765777 0.443363 0.367123
C3    C     C_3   0.661629 0.284464 0.469820 0.431278
C4    C     C_3   0.236508 0.773439 0.561710 0.368242
C5    C     C_3   0.844886 0.792866 0.523938 0.429347
C6    C     C_3   0.263473 0.265651 0.443400 0.367056
C7    C     C_3   0.161616 0.784506 0.469850 0.431304
C8    C     C_3   0.736502 0.273485 0.561721 0.368259
C9    C     C_2   0.249338 0.718311 0.002518 0.401186
C10   C     C_2   0.818281 0.249190 0.909854 0.464759
C11   C     C_2   0.709235 0.689006 0.067705 0.500408
C12   C     C_R   0.612450 0.799556 0.018246 0.474180
C13   C     C_2   0.215431 0.263728 0.038054 0.363785
C14   C     C_2   0.749350 0.218297 0.002505 0.401203
C15   C     C_2   0.318276 0.749193 0.909860 0.464728
C16   C     C_2   0.209226 0.188996 0.067708 0.500420
C17   C     C_2   0.715436 0.763734 0.038039 0.363789
C18   C     C_R   0.349448 0.827522 0.225546 0.507066
C19   C     C_R   0.594600 0.199776 0.792425 0.569601
C20   C     C_R   0.652029 0.828456 0.773914 0.492405
C21   C     C_R   0.407983 0.199819 0.207166 0.570156
C22   C     C_R   0.849444 0.327526 0.225540 0.507030
C23   C     C_R   0.653636 0.182638 0.963878 0.459195
C24   C     C_R   0.094584 0.699778 0.792437 0.569636
C25   C     C_R   0.152020 0.328445 0.773900 0.492484
C26   C     C_R   0.907957 0.699815 0.207182 0.570148
C27   C     C_R   0.376423 0.885324 0.886966 0.547647
C28   C     C_R   0.661024 0.097788 0.063510 0.499619
C29   C     C_R   0.627472 0.884646 0.108106 0.533066
C30   C     C_R   0.328450 0.089149 0.955921 0.479067
C31   C     C_R   0.876425 0.385323 0.886965 0.547688
C32   C     C_R   0.161016 0.597795 0.063526 0.499556
C33   C     C_R   0.127471 0.384647 0.108108 0.533039
C34   C     C_R   0.387887 0.799837 0.980755 0.493202
C35   C     C_R   0.828452 0.589153 0.955919 0.479124
C36   C     C_R   0.404359 0.105553 0.305843 -0.112498
C37   C     C_R   0.641213 0.920259 0.682159 -0.084346
C38   C     C_R   0.598135 0.105435 0.693011 -0.106731
C39   C     C_R   0.358329 0.920636 0.317707 -0.085304
C40   C     C_R   0.904330 0.605546 0.305858 -0.112446
C41   C     C_R   0.141189 0.420243 0.682151 -0.084288
C42   C     C_R   0.098123 0.605437 0.693019 -0.106798
C43   C     C_R   0.858320 0.420642 0.317704 -0.085343
C44   C     C_R   0.286058 0.148492 0.030980 -0.279337
C45   C     C_R   0.837837 0.674347 0.052691 0.472938
C46   C     C_R   0.640438 0.807691 0.076410 -0.214281
C47   C     C_R   0.699214 0.162277 0.998057 -0.254729
C48   C     C_R   0.361423 0.809739 0.921054 -0.287049
C49   C     C_R   0.786072 0.648507 0.030962 -0.279357
C50   C     C_R   0.140437 0.307691 0.076414 -0.214275
C51   C     C_R   0.199207 0.662284 0.998071 -0.254728
C52   C     C_R   0.861421 0.309739 0.921055 -0.287056
C53   C     C_R   0.308719 0.861443 0.327011 0.059796
C54   C     C_R   0.612787 0.182322 0.694795 0.060413
C55   C     C_R   0.691578 0.861471 0.672540 0.069807
C56   C     C_R   0.112449 0.299556 0.018248 0.474213
C57   C     C_R   0.392423 0.182899 0.303311 0.063124
C58   C     C_R   0.808705 0.361454 0.327003 0.059786
C59   C     C_R   0.112760 0.682327 0.694812 0.060461
C60   C     C_R   0.191545 0.361445 0.672522 0.069834
C61   C     C_R   0.892363 0.682887 0.303345 0.063046
C62   C     C_3   0.320600 0.212093 0.509606 0.841290
C63   C     C_3   0.788288 0.846184 0.456601 0.820716
C64   C     C_3   0.691990 0.208430 0.487228 0.835317
C65   C     C_3   0.206160 0.849314 0.544638 0.821141
C66   C     C_3   0.820471 0.712041 0.509663 0.841225
C67   C     C_R   0.153639 0.682635 0.963874 0.459211
C68   C     C_3   0.288173 0.346121 0.456603 0.820724
C69   C     C_3   0.191943 0.708447 0.487246 0.835361
C70   C     C_3   0.706119 0.349338 0.544636 0.821138
C71   C     C_3   0.731254 0.741386 0.556909 -0.417776
C72   C     C_3   0.378622 0.316582 0.407529 -0.361261
C73   C     C_3   0.276401 0.745904 0.446162 -0.420808
C74   C     C_3   0.620446 0.311347 0.587766 -0.364625
C75   C     C_3   0.231326 0.241305 0.556922 -0.417693
C76   C     C_3   0.878681 0.816510 0.407593 -0.361254
C77   C     C_3   0.776426 0.245935 0.446166 -0.420768
C78   C     C_R   0.887886 0.299837 0.980757 0.493179
C79   C     C_3   0.120466 0.811373 0.587790 -0.364653
C80   C     C_3   0.756136 0.822624 0.570373 -0.351335
C81   C     C_3   0.352574 0.235212 0.395656 -0.355329
C82   C     C_3   0.245625 0.822394 0.429098 -0.351367
C83   C     C_3   0.652422 0.234774 0.603047 -0.361905
C84   C     C_3   0.256110 0.322607 0.570352 -0.351366
C85   C     C_3   0.852533 0.735206 0.395687 -0.355350
C86   C     C_3   0.745615 0.322402 0.429090 -0.351398
C87   C     C_3   0.152406 0.734776 0.603059 -0.361874
C88   C     C_3   0.344918 0.292983 0.523850 0.429298
Cl1   Cl    Cl    0.317371 0.259867 0.126387 -0.394462
Cl2   Cl    Cl    0.539190 0.286914 0.858590 -0.368920
Cl3   Cl    Cl    0.686265 0.740867 0.793278 -0.422792
Cl4   Cl    Cl    0.457619 0.288463 0.141474 -0.381999
Cl5   Cl    Cl    0.824591 0.234748 0.206373 -0.372740
Cl6   Cl    Cl    0.039145 0.786900 0.858625 -0.368975
Cl7   Cl    Cl    0.186313 0.240898 0.793270 -0.422971
Cl8   Cl    Cl    0.957634 0.788447 0.141491 -0.381955
Cl9   Cl    Cl    0.411865 0.909140 0.755940 -0.363996
Cl10  Cl    Cl    0.680014 0.063796 0.151507 -0.328600
Cl11  Cl    Cl    0.592201 0.905242 0.239605 -0.375826
Cl12  Cl    Cl    0.554917 0.715477 0.038089 -0.354199
Cl13  Cl    Cl    0.294525 0.049106 0.886686 -0.360632
Cl14  Cl    Cl    0.911870 0.409141 0.755937 -0.363977
Cl15  Cl    Cl    0.179961 0.563839 0.151599 -0.328531
Cl16  Cl    Cl    0.092187 0.405241 0.239614 -0.375855
Cl17  Cl    Cl    0.794485 0.549071 0.886754 -0.360648
Cl18  Cl    Cl    0.395517 0.312487 0.582427 -0.376708
Cl19  Cl    Cl    0.702937 0.748730 0.397758 -0.366424
Cl20  Cl    Cl    0.613155 0.292753 0.406653 -0.340870
Cl21  Cl    Cl    0.290096 0.767969 0.618736 -0.343316
Cl22  Cl    Cl    0.895472 0.812201 0.582575 -0.376576
Cl23  Cl    Cl    0.659096 0.275186 0.912701 -0.382263
Cl24  Cl    Cl    0.202895 0.248429 0.397870 -0.366606
Cl25  Cl    Cl    0.113134 0.792858 0.406707 -0.341034
Cl26  Cl    Cl    0.790076 0.268078 0.618775 -0.343194
Cl27  Cl    Cl    0.198514 0.761792 0.132156 -0.445925
Cl28  Cl    Cl    0.864250 0.211193 0.779269 -0.387583
Cl29  Cl    Cl    0.611973 0.645961 0.175260 -0.392376
Cl30  Cl    Cl    0.313727 0.305074 0.927323 -0.458730
Cl31  Cl    Cl    0.698535 0.261753 0.132148 -0.445916
Cl32  Cl    Cl    0.364256 0.711178 0.779274 -0.387570
Cl33  Cl    Cl    0.111958 0.145948 0.175249 -0.392285
Cl34  Cl    Cl    0.443551 0.713464 0.960295 -0.374778
Cl35  Cl    Cl    0.813725 0.805068 0.927271 -0.458722
Cl36  Cl    Cl    0.817438 0.759914 0.126289 -0.394394
Cl37  Cl    Cl    0.054929 0.215473 0.038069 -0.354182
Cl38  Cl    Cl    0.159106 0.775185 0.912664 -0.382232
Cl39  Cl    Cl    0.943553 0.213465 0.960291 -0.374816
Cl40  Cl    Cl    0.324571 0.734758 0.206374 -0.372810
F1    F     F_    0.337376 0.143140 0.538660 -0.561259
F2    F     F_    0.771721 0.915632 0.428264 -0.563230
F3    F     F_    0.685408 0.135822 0.455024 -0.557280
F4    F     F_    0.213934 0.922609 0.573993 -0.572453
F5    F     F_    0.837108 0.643026 0.538764 -0.561254
F6    F     F_    0.271480 0.415503 0.428288 -0.563242
F7    F     F_    0.185310 0.635862 0.455056 -0.557326
F8    F     F_    0.713848 0.422656 0.573995 -0.572368
H1    H     H_    0.409168 0.075269 0.362033 0.224853
H2    H     H_    0.439597 0.346489 0.345435 0.275806
H3    H     H_    0.340498 0.719010 0.388392 0.270732
H4    H     H_    0.556024 0.337169 0.646924 0.277687
H5    H     H_    0.170715 0.210248 0.617533 0.271220
H6    H     H_    0.939709 0.846356 0.345529 0.275809
H7    H     H_    0.840542 0.219065 0.388406 0.270729
H8    H     H_    0.056061 0.837219 0.646958 0.277686
H9    H     H_    0.650713 0.954830 0.618180 0.213791
H10   H     H_    0.593120 0.076096 0.636489 0.223759
H11   H     H_    0.348155 0.955283 0.382171 0.209492
H12   H     H_    0.909147 0.575266 0.362044 0.224864
H13   H     H_    0.150678 0.454817 0.618180 0.213803
H14   H     H_    0.093112 0.576097 0.636494 0.223773
H15   H     H_    0.848143 0.455285 0.382172 0.209506
H16   H     H_    0.670591 0.710389 0.617493 0.271187
N1    N     N_R   0.408680 0.130810 0.995780 -0.126125
N2    N     N_R   0.578590 0.132790 0.846380 -0.121255
N3    N     N_R   0.578590 0.867210 0.846380 -0.109296
N4    N     N_R   0.421410 0.132790 0.153620 -0.122462
N5    N     N_R   0.921410 0.367210 0.153620 -0.111444
N6    N     N_R   0.078590 0.632790 0.846380 -0.121243
N7    N     N_R   0.078590 0.367210 0.846380 -0.109303
N8    N     N_R   0.921410 0.632790 0.153620 -0.122497
N9    N     N_R   0.403840 0.921910 0.935760 -0.146068
N10   N     N_R   0.596160 0.078090 0.064240 -0.141437
N11   N     N_R   0.596160 0.921910 0.064240 -0.142800
N12   N     N_R   0.591320 0.869190 0.004220 -0.140270
N13   N     N_R   0.403840 0.078090 0.935760 -0.132022
N14   N     N_R   0.903840 0.421910 0.935760 -0.146072
N15   N     N_R   0.096160 0.578090 0.064240 -0.141427
N16   N     N_R   0.096160 0.421910 0.064240 -0.142797
N17   N     N_R   0.903840 0.578090 0.935760 -0.132029
N18   N     N_R   0.426250 0.076100 0.213650 -0.104370
N19   N     N_R   0.573750 0.923900 0.786350 -0.095247
N20   N     N_R   0.573750 0.076100 0.786350 -0.103164
N21   N     N_R   0.426250 0.923900 0.213650 -0.093850
N22   N     N_R   0.926250 0.576100 0.213650 -0.104385
N23   N     N_R   0.591320 0.130810 0.004220 -0.135267
N24   N     N_R   0.073750 0.423900 0.786350 -0.095271
N25   N     N_R   0.073750 0.576100 0.786350 -0.103158
N26   N     N_R   0.926250 0.423900 0.213650 -0.093839
N27   N     N_R   0.408680 0.869190 0.995780 -0.138466
N28   N     N_R   0.908680 0.630810 0.995780 -0.126136
N29   N     N_R   0.091320 0.369190 0.004220 -0.140246
N30   N     N_R   0.091320 0.630810 0.004220 -0.135243
N31   N     N_R   0.908680 0.369190 0.995780 -0.138477
N32   N     N_R   0.421410 0.867210 0.153620 -0.111445
Ni1   Ni    Ni4+2 0.500000 0.131570 0.000000 0.342471
Ni2   Ni    Ni4+2 0.500000 0.868430 0.000000 0.341887
Ni3   Ni    Ni4+2 0.000000 0.631570 0.000000 0.342478
Ni4   Ni    Ni4+2 0.000000 0.368430 0.000000 0.341888
Ni5   Ni    Ni4+2 0.488900 1.000000 0.862310 0.287099
Ni6   Ni    Ni4+2 0.511100 1.000000 0.137690 0.284901
Ni7   Ni    Ni4+2 0.988900 0.500000 0.862310 0.287095
Ni8   Ni    Ni4+2 0.011100 0.500000 0.137690 0.284904

loop_
_geom_bond_atom_site_label_1
_geom_bond_atom_site_label_2
_ccdc_geom_bond_type
C27   C48   A    
C4    Cl21  S    
C28   C47   A    
N25   Ni7   S    
C20   N3    A    
C36   N18   A    
C33   Cl16  S    
C64   C77   S    
C29   N11   A    
N11   N12   A    
C9    C51   S    
N5    Ni4   S    
C74   C83   S    
C39   N21   A    
C10   C52   S    
N6    Ni3   S    
C66   C85   S    
C79   C87   S    
C13   Cl30  S    
C28   N10   A    
C6    C75   S    
C43   N26   A    
N27   Ni2   S    
C3    C64   S    
N15   Ni8   S    
C63   C76   S    
C65   C79   S    
C67   N30   A    
N6    N25   A    
C78   N31   A    
N12   Ni2   S    
C62   C88   S    
C4    C65   S    
C24   N6    A    
C75   C84   S    
N15   N30   A    
C41   H13   S    
C56   N29   A    
C42   N25   A    
C8    C83   S    
C2    Cl19  S    
N16   N29   A    
N26   Ni8   S    
C15   Cl32  S    
N19   Ni5   S    
C2    C85   S    
N14   Ni7   S    
C63   F2    S    
N4    N18   A    
C3    C74   S    
C76   H6    S    
C70   C74   S    
C38   H10   S    
C75   H5    S    
C18   C53   A    
C18   Cl40  S    
C17   Cl35  S    
C11   C17   D    
C79   H8    S    
N21   N32   A    
C35   C49   A    
N13   Ni5   S    
C64   F3    S    
C69   C73   S    
C25   C60   A    
C18   N32   A    
N9    N27   A    
C36   H1    S    
C16   C44   S    
N17   N28   A    
C72   C81   S    
C45   N28   A    
C8    Cl26  S    
N5    N26   A    
C72   H2    S    
C34   Cl34  S    
C6    C81   S    
C3    C86   S    
C70   F8    S    
C62   F1    S    
C30   C44   A    
C34   N27   A    
N8    N22   A    
C15   C48   S    
C20   C55   A    
C52   C78   A    
C78   Cl39  S    
C58   C86   S    
C54   C83   S    
C72   C88   S    
N29   Ni4   S    
C37   N19   A    
C63   C80   S    
C45   Cl36  S    
C26   Cl8   S    
N2    Ni1   S    
C23   C47   A    
C40   H12   S    
C68   C84   S    
C31   Cl14  S    
C17   C46   S    
C30   N13   A    
N9    Ni5   S    
C36   C57   A    
C10   C14   D    
C67   Cl38  S    
C4    C87   S    
C29   Cl11  S    
C25   N7    A    
N24   Ni7   S    
N10   N23   A    
C73   H3    S    
C33   C50   A    
N4    Ni1   S    
C74   H4    S    
C50   C56   A    
C40   C61   A    
C53   C82   S    
C9    Cl27  S    
N7    Ni4   S    
C16   Cl33  S    
C77   H7    S    
C64   C83   S    
C21   C57   A    
C11   C49   S    
N28   Ni3   S    
C24   Cl6   S    
C12   N12   A    
C66   F5    S    
C88   Cl18  S    
C1    C44   A    
C71   H16   S    
C38   C54   A    
C31   N14   A    
C45   C49   A    
C68   C72   S    
C32   Cl15  S    
N2    N20   A    
C51   C67   A    
C56   Cl37  S    
C5    C80   S    
C1    N1    A    
C4    C73   S    
C61   C85   S    
C66   C71   S    
C19   C54   A    
C12   C46   A    
C41   N24   A    
C77   C86   S    
C25   Cl7   S    
N7    N24   A    
C8    C77   S    
C35   N17   A    
C22   Cl5   S    
C57   C81   S    
C62   C75   S    
C13   C16   D    
C33   N16   A    
C34   C48   A    
N17   Ni7   S    
C2    C71   S    
C70   C86   S    
C73   C82   S    
N10   Ni6   S    
C65   F4    S    
C43   H15   S    
C2    C63   S    
C7    C79   S    
C26   N8    A    
C32   C51   A    
C28   Cl10  S    
C27   Cl9   S    
C1    Cl1   S    
N1    N13   A    
C6    Cl24  S    
C62   C81   S    
N14   N31   A    
C84   C88   S    
C41   C60   A    
C5    C66   S    
N3    Ni2   S    
C69   C87   S    
C42   C59   A    
C22   C58   A    
C71   C80   S    
C38   N20   A    
C14   C47   S    
C22   N5    A    
C3    Cl20  S    
C23   Cl23  S    
N18   Ni6   S    
C8    C70   S    
N16   Ni8   S    
C31   C52   A    
C29   C46   A    
N20   Ni5   S    
C7    Cl25  S    
C5    C76   S    
C68   F6    S    
C7    C69   S    
C9    C15   D    
C19   Cl2   S    
N31   Ni4   S    
C27   N9    A    
C40   N22   A    
C55   C80   S    
C60   C84   S    
C65   C82   S    
C39   C53   A    
N1    Ni1   S    
C24   C59   A    
C30   Cl13  S    
C6    C68   S    
C21   N4    A    
N32   Ni2   S    
N11   Ni6   S    
N30   Ni3   S    
C42   H14   S    
C10   Cl28  S    
C59   C87   S    
C12   Cl12  S    
C13   C50   S    
C37   C55   A    
N3    N19   A    
C20   Cl3   S    
C7    C82   S    
C23   N23   A    
C69   F7    S    
C14   Cl31  S    
C5    Cl22  S    
C32   N15   A    
C39   H11   S    
C19   N2    A    
C43   C58   A    
C35   Cl17  S    
N8    Ni3   S    
C37   H9    S    
C76   C85   S    
C21   Cl4   S    
N21   Ni6   S    
N22   Ni8   S    
C26   C61   A    
N23   Ni1   S    
C11   Cl29  S    
