data_mof_unit_63461.cif
_audit_creation_date              2012-12-10T17:27:44-0500
_audit_creation_method            fapswitch 2.2
_symmetry_space_group_name_H-M    P1
_symmetry_Int_Tables_number       1
_space_group_crystal_system       triclinic
_cell_length_a                    21.777747
_cell_length_b                    21.777752
_cell_length_c                    38.765731
_cell_angle_alpha                 89.999982
_cell_angle_beta                  89.999949
_cell_angle_gamma                 89.999988
_cell_volume                      18385.437712

loop_
_atom_site_label
_atom_site_type_symbol
_atom_type_description
_atom_site_fract_x
_atom_site_fract_y
_atom_site_fract_z
_atom_type_partial_charge
C1    C     C_R   0.500000 0.119328 0.500000 0.829847
C2    C     C_R   0.880672 0.500000 0.500000 0.829848
C3    C     C_R   0.500000 0.880672 0.500000 0.829847
C4    C     C_R   0.119328 0.500000 0.500000 0.829848
C5    C     C_R   0.000000 0.619328 0.000000 0.829847
C6    C     C_R   0.380672 0.000000 0.000000 0.829849
C7    C     C_R   1.000000 0.380672 1.000000 0.829847
C8    C     C_R   0.619328 0.000000 0.000000 0.829848
C9    C     C_R   0.429307 0.274220 0.413534 -0.165868
C10   C     C_R   0.725780 0.429306 0.413534 -0.165873
C11   C     C_R   0.570694 0.725780 0.413534 -0.165868
C12   C     C_R   0.274220 0.570693 0.413534 -0.165874
C13   C     C_R   0.429307 0.725780 0.586466 -0.165872
C14   C     C_R   0.725780 0.570693 0.586466 -0.165872
C15   C     C_R   0.570693 0.274220 0.586466 -0.165872
C16   C     C_R   0.274220 0.429308 0.586466 -0.165872
C17   C     C_R   0.929307 0.774220 0.913534 -0.165869
C18   C     C_R   0.225780 0.929307 0.913534 -0.165873
C19   C     C_R   0.070693 0.225780 0.913534 -0.165868
C20   C     C_R   0.774220 0.070693 0.913534 -0.165872
C21   C     C_R   0.929307 0.225780 0.086466 -0.165873
C22   C     C_R   0.225780 0.070693 0.086466 -0.165876
C23   C     C_R   0.070693 0.774220 0.086466 -0.165873
C24   C     C_R   0.774220 0.929307 0.086466 -0.165876
C25   C     C_R   0.436867 0.305355 0.444870 0.033235
C26   C     C_R   0.694645 0.436867 0.444870 0.033235
C27   C     C_R   0.563133 0.694645 0.444870 0.033235
C28   C     C_R   0.305355 0.563133 0.444870 0.033235
C29   C     C_R   0.436867 0.694645 0.555130 0.033234
C30   C     C_R   0.694645 0.563133 0.555130 0.033234
C31   C     C_R   0.563133 0.305355 0.555130 0.033235
C32   C     C_R   0.305355 0.436867 0.555130 0.033234
C33   C     C_R   0.936867 0.805355 0.944870 0.033235
C34   C     C_R   0.194645 0.936867 0.944870 0.033234
C35   C     C_R   0.063133 0.194645 0.944870 0.033235
C36   C     C_R   0.805355 0.063133 0.944870 0.033234
C37   C     C_R   0.936867 0.194645 0.055130 0.033235
C38   C     C_R   0.194645 0.063133 0.055130 0.033235
C39   C     C_R   0.063133 0.805355 0.055130 0.033235
C40   C     C_R   0.805355 0.936867 0.055130 0.033234
C41   C     C_R   0.473672 0.279243 0.471574 0.040078
C42   C     C_R   0.720757 0.473672 0.471574 0.040079
C43   C     C_R   0.526328 0.720757 0.471574 0.040078
C44   C     C_R   0.279243 0.526328 0.471574 0.040079
C45   C     C_R   0.473672 0.720757 0.528426 0.040079
C46   C     C_R   0.720757 0.526328 0.528426 0.040079
C47   C     C_R   0.526328 0.279243 0.528426 0.040079
C48   C     C_R   0.279243 0.473672 0.528426 0.040078
C49   C     C_R   0.973672 0.779243 0.971574 0.040079
C50   C     C_R   0.220757 0.973672 0.971573 0.040079
C51   C     C_R   0.026328 0.220757 0.971574 0.040078
C52   C     C_R   0.779243 0.026328 0.971574 0.040079
C53   C     C_R   0.973672 0.220757 0.028426 0.040079
C54   C     C_R   0.220757 0.026328 0.028426 0.040079
C55   C     C_R   0.026328 0.779243 0.028426 0.040078
C56   C     C_R   0.779243 0.973672 0.028426 0.040079
C57   C     C_R   0.484416 0.215848 0.469660 0.046238
C58   C     C_R   0.784153 0.484416 0.469660 0.046233
C59   C     C_R   0.515585 0.784153 0.469660 0.046237
C60   C     C_R   0.215848 0.515584 0.469660 0.046232
C61   C     C_R   0.484415 0.784153 0.530340 0.046233
C62   C     C_R   0.784152 0.515584 0.530340 0.046233
C63   C     C_R   0.515584 0.215847 0.530340 0.046233
C64   C     C_R   0.215847 0.484416 0.530340 0.046234
C65   C     C_R   0.984416 0.715847 0.969660 0.046238
C66   C     C_R   0.284153 0.984416 0.969660 0.046233
C67   C     C_R   0.015584 0.284152 0.969660 0.046238
C68   C     C_R   0.715847 0.015584 0.969660 0.046233
C69   C     C_R   0.984416 0.284152 0.030340 0.046233
C70   C     C_R   0.284152 0.015584 0.030340 0.046229
C71   C     C_R   0.015584 0.715847 0.030340 0.046232
C72   C     C_R   0.715847 0.984416 0.030340 0.046229
C73   C     C_R   0.500000 0.312222 0.500000 -0.183523
C74   C     C_R   0.687778 0.500000 0.500000 -0.183522
C75   C     C_R   0.500000 0.687778 0.500000 -0.183522
C76   C     C_R   0.312222 0.500000 0.500000 -0.183523
C77   C     C_R   0.000000 0.812222 0.000000 -0.183523
C78   C     C_R   0.187778 0.000000 1.000000 -0.183521
C79   C     C_R   1.000000 0.187778 0.000000 -0.183523
C80   C     C_R   0.812222 0.000000 0.000000 -0.183522
C81   C     C_R   0.500000 0.184692 0.500000 -0.136209
C82   C     C_R   0.815308 0.500000 0.500000 -0.136209
C83   C     C_R   0.500000 0.815308 0.500000 -0.136209
C84   C     C_R   0.184692 0.500000 0.500000 -0.136209
C85   C     C_R   1.000000 0.684692 0.000000 -0.136209
C86   C     C_R   0.315308 0.000000 0.000000 -0.136209
C87   C     C_R   1.000000 0.315308 1.000000 -0.136209
C88   C     C_R   0.684692 0.000000 0.000000 -0.136209
C89   C     C_R   0.620529 0.500000 0.500000 0.899484
C90   C     C_R   0.500000 0.620529 0.500000 0.899483
C91   C     C_R   0.379471 0.500000 0.500000 0.899483
C92   C     C_R   0.500000 0.379470 0.500000 0.899482
C93   C     C_R   0.120529 1.000000 1.000000 0.899484
C94   C     C_R   1.000000 0.120529 0.000000 0.899483
C95   C     C_R   0.879471 0.000000 0.000000 0.899483
C96   C     C_R   0.000000 0.879471 0.000000 0.899483
C97   C     C_R   0.500000 0.000000 0.432870 0.979807
C98   C     C_R   0.000000 0.500000 0.432870 0.979813
C99   C     C_R   0.500000 0.000000 0.567130 0.979812
C100  C     C_R   1.000000 0.500000 0.567130 0.979812
C101  C     C_R   1.000000 0.500000 0.932870 0.979807
C102  C     C_R   0.500000 0.000000 0.932870 0.979813
C103  C     C_R   1.000000 0.500000 0.067130 0.979812
C104  C     C_R   0.500000 0.000000 0.067130 0.979817
C105  C     C_R   0.449903 0.024489 0.377007 0.481858
C106  C     C_R   0.975503 0.449907 0.377008 0.481849
C107  C     C_R   0.550097 0.975511 0.377007 0.481858
C108  C     C_R   0.024496 0.550093 0.377008 0.481849
C109  C     C_R   0.449907 0.975504 0.622992 0.481849
C110  C     C_R   0.975504 0.550094 0.622992 0.481850
C111  C     C_R   0.550093 0.024497 0.622992 0.481850
C112  C     C_R   0.024496 0.449906 0.622992 0.481849
C113  C     C_R   0.949903 0.524488 0.877008 0.481859
C114  C     C_R   0.475503 0.949907 0.877008 0.481849
C115  C     C_R   0.050097 0.475511 0.877008 0.481859
C116  C     C_R   0.524497 0.050093 0.877008 0.481849
C117  C     C_R   0.949907 0.475504 0.122992 0.481850
C118  C     C_R   0.475498 0.050091 0.122992 0.481843
C119  C     C_R   0.050093 0.524497 0.122992 0.481849
C120  C     C_R   0.524501 0.949909 0.122992 0.481842
C121  C     C_R   0.449801 0.024424 0.341161 0.533895
C122  C     C_R   0.975568 0.449805 0.341162 0.533895
C123  C     C_R   0.550199 0.975576 0.341161 0.533894
C124  C     C_R   0.024431 0.550195 0.341162 0.533895
C125  C     C_R   0.449805 0.975569 0.658838 0.533896
C126  C     C_R   0.975569 0.550195 0.658838 0.533896
C127  C     C_R   0.550195 0.024432 0.658838 0.533896
C128  C     C_R   0.024431 0.449805 0.658838 0.533895
C129  C     C_R   0.949801 0.524423 0.841161 0.533893
C130  C     C_R   0.475568 0.949805 0.841162 0.533895
C131  C     C_R   0.050199 0.475576 0.841161 0.533894
C132  C     C_R   0.524431 0.050195 0.841162 0.533894
C133  C     C_R   0.949805 0.475569 0.158838 0.533895
C134  C     C_R   0.475563 0.050192 0.158838 0.533897
C135  C     C_R   0.050195 0.524432 0.158838 0.533895
C136  C     C_R   0.524437 0.949807 0.158838 0.533896
C137  C     C_R   0.500000 1.000000 0.322829 -0.400869
C138  C     C_R   1.000000 0.500000 0.322829 -0.400863
C139  C     C_R   0.500000 0.000000 0.677171 -0.400864
C140  C     C_R   0.000000 0.500000 0.677170 -0.400864
C141  C     C_R   1.000000 0.500000 0.822829 -0.400867
C142  C     C_R   0.500000 0.000000 0.822829 -0.400863
C143  C     C_R   1.000000 0.500000 0.177171 -0.400863
C144  C     C_R   0.500000 0.000000 0.177170 -0.400862
C145  C     C_R   0.500000 0.000000 0.395174 -0.527040
C146  C     C_R   1.000000 0.500000 0.395174 -0.527027
C147  C     C_R   0.500000 0.000000 0.604826 -0.527028
C148  C     C_R   0.000000 0.500000 0.604826 -0.527029
C149  C     C_R   1.000000 0.500000 0.895174 -0.527039
C150  C     C_R   0.500000 0.000000 0.895174 -0.527028
C151  C     C_R   1.000000 0.500000 0.104826 -0.527029
C152  C     C_R   0.500000 1.000000 0.104826 -0.527018
C153  C     C_R   0.500000 0.000000 0.215081 0.416515
C154  C     C_R   1.000000 0.500000 0.215082 0.416501
C155  C     C_R   0.500000 0.000000 0.784918 0.416501
C156  C     C_R   0.000000 0.500000 0.784918 0.416509
C157  C     C_R   0.000000 0.500000 0.715082 0.416507
C158  C     C_R   0.500000 0.000000 0.715082 0.416501
C159  C     C_R   1.000000 0.500000 0.284918 0.416500
C160  C     C_R   0.500000 0.000000 0.284918 0.416490
C161  C     C_R   0.475759 0.184515 0.438036 -0.111242
C162  C     C_R   0.815485 0.475759 0.438036 -0.111238
C163  C     C_R   0.524242 0.815485 0.438036 -0.111243
C164  C     C_R   0.184515 0.524241 0.438036 -0.111239
C165  C     C_R   0.475759 0.815485 0.561963 -0.111239
C166  C     C_R   0.815485 0.524241 0.561963 -0.111238
C167  C     C_R   0.524241 0.184515 0.561964 -0.111238
C168  C     C_R   0.184515 0.475759 0.561964 -0.111239
C169  C     C_R   0.975758 0.684515 0.938036 -0.111243
C170  C     C_R   0.315485 0.975759 0.938036 -0.111238
C171  C     C_R   0.024241 0.315485 0.938036 -0.111243
C172  C     C_R   0.684515 0.024241 0.938036 -0.111238
C173  C     C_R   0.975759 0.315485 0.061964 -0.111238
C174  C     C_R   0.315485 0.024241 0.061964 -0.111236
C175  C     C_R   0.024241 0.684515 0.061964 -0.111238
C176  C     C_R   0.684515 0.975759 0.061964 -0.111236
C177  C     C_R   0.451137 0.214761 0.409704 -0.091695
C178  C     C_R   0.785239 0.451137 0.409704 -0.091684
C179  C     C_R   0.548863 0.785239 0.409704 -0.091695
C180  C     C_R   0.214761 0.548862 0.409704 -0.091683
C181  C     C_R   0.451137 0.785239 0.590296 -0.091684
C182  C     C_R   0.785239 0.548863 0.590296 -0.091685
C183  C     C_R   0.548863 0.214761 0.590296 -0.091684
C184  C     C_R   0.214761 0.451138 0.590297 -0.091685
C185  C     C_R   0.951137 0.714761 0.909704 -0.091696
C186  C     C_R   0.285239 0.951137 0.909703 -0.091684
C187  C     C_R   0.048863 0.285239 0.909703 -0.091696
C188  C     C_R   0.714761 0.048863 0.909703 -0.091685
C189  C     C_R   0.951137 0.285239 0.090296 -0.091684
C190  C     C_R   0.285239 0.048863 0.090296 -0.091676
C191  C     C_R   0.048863 0.714761 0.090296 -0.091684
C192  C     C_R   0.714761 0.951137 0.090297 -0.091676
H1    H     H_    0.555692 0.190392 0.614337 0.188959
H2    H     H_    0.809608 0.555693 0.614337 0.188957
H3    H     H_    0.444307 0.809608 0.614337 0.188959
H4    H     H_    0.190392 0.444309 0.614337 0.188957
H5    H     H_    0.555693 0.809608 0.385663 0.188948
H6    H     H_    0.809608 0.444307 0.385663 0.188959
H7    H     H_    0.444308 0.190392 0.385663 0.188948
H8    H     H_    0.190393 0.555692 0.385663 0.188958
H9    H     H_    0.055693 0.690392 0.114337 0.188958
H10   H     H_    0.309607 0.055692 0.114337 0.188965
H11   H     H_    0.944307 0.309608 0.114337 0.188958
H12   H     H_    0.690392 0.944308 0.114337 0.188966
H13   H     H_    0.055693 0.309608 0.885663 0.188947
H14   H     H_    0.309608 0.944308 0.885663 0.188959
H15   H     H_    0.944307 0.690392 0.885663 0.188946
H16   H     H_    0.690392 0.055692 0.885663 0.188959
H17   H     H_    0.487415 0.136499 0.435095 0.141250
H18   H     H_    0.863501 0.487415 0.435095 0.141257
H19   H     H_    0.512586 0.863501 0.435095 0.141251
H20   H     H_    0.136500 0.512585 0.435095 0.141257
H21   H     H_    0.487415 0.863501 0.564905 0.141257
H22   H     H_    0.863501 0.512585 0.564905 0.141256
H23   H     H_    0.512585 0.136499 0.564905 0.141257
H24   H     H_    0.136499 0.487415 0.564905 0.141256
H25   H     H_    0.987414 0.636499 0.935095 0.141250
H26   H     H_    0.363501 0.987415 0.935095 0.141257
H27   H     H_    0.012586 0.363501 0.935095 0.141250
H28   H     H_    0.636499 0.012585 0.935095 0.141257
H29   H     H_    0.987415 0.363501 0.064905 0.141257
H30   H     H_    0.363500 0.012585 0.064905 0.141261
H31   H     H_    0.012585 0.636499 0.064905 0.141256
H32   H     H_    0.636499 0.987415 0.064905 0.141261
H33   H     H_    0.402671 0.294381 0.392795 0.163691
H34   H     H_    0.705619 0.402671 0.392796 0.163693
H35   H     H_    0.597329 0.705619 0.392795 0.163691
H36   H     H_    0.294381 0.597328 0.392795 0.163693
H37   H     H_    0.402671 0.705620 0.607205 0.163693
H38   H     H_    0.705619 0.597329 0.607205 0.163692
H39   H     H_    0.597328 0.294380 0.607205 0.163693
H40   H     H_    0.294380 0.402672 0.607205 0.163693
H41   H     H_    0.902671 0.794381 0.892796 0.163691
H42   H     H_    0.205620 0.902672 0.892795 0.163693
H43   H     H_    0.097329 0.205619 0.892795 0.163691
H44   H     H_    0.794381 0.097329 0.892795 0.163693
H45   H     H_    0.902671 0.205620 0.107205 0.163693
H46   H     H_    0.205619 0.097328 0.107204 0.163694
H47   H     H_    0.097329 0.794380 0.107204 0.163693
H48   H     H_    0.794380 0.902672 0.107205 0.163694
N1    N     N_R   0.537863 0.962099 0.267121 -0.068626
N2    N     N_R   0.037918 0.537846 0.267122 -0.068636
N3    N     N_R   0.462137 0.037901 0.267121 -0.068626
N4    N     N_R   0.962081 0.462154 0.267122 -0.068636
N5    N     N_R   0.537845 0.037919 0.732878 -0.068637
N6    N     N_R   0.037922 0.462157 0.732878 -0.068639
N7    N     N_R   0.462154 0.962082 0.732878 -0.068637
N8    N     N_R   0.962079 0.537843 0.732878 -0.068639
N9    N     N_R   0.037848 0.462083 0.767122 -0.068640
N10   N     N_R   0.537919 0.037845 0.767122 -0.068637
N11   N     N_R   0.962152 0.537916 0.767122 -0.068640
N12   N     N_R   0.462081 0.962155 0.767122 -0.068637
N13   N     N_R   0.037845 0.537919 0.232878 -0.068638
N14   N     N_R   0.537936 0.962172 0.232877 -0.068650
N15   N     N_R   0.962155 0.462081 0.232878 -0.068638
N16   N     N_R   0.462063 0.037828 0.232877 -0.068650
O1    O     O_R   0.551620 0.091530 0.500110 -0.609381
O2    O     O_R   0.908470 0.551620 0.500110 -0.609383
O3    O     O_R   0.448380 0.908470 0.500110 -0.609381
O4    O     O_R   0.091530 0.448380 0.500110 -0.609383
O5    O     O_R   0.551620 0.908470 0.499890 -0.609385
O6    O     O_R   0.908470 0.448380 0.499890 -0.609382
O7    O     O_R   0.448380 0.091530 0.499890 -0.609385
O8    O     O_R   0.091530 0.551620 0.499890 -0.609382
O9    O     O_R   0.051620 0.591530 0.000110 -0.609381
O10   O     O_R   0.408470 0.051620 0.000110 -0.609381
O11   O     O_R   0.948380 0.408470 0.000110 -0.609380
O12   O     O_R   0.591530 0.948380 0.000110 -0.609381
O13   O     O_R   0.051620 0.408470 0.999890 -0.609385
O14   O     O_R   0.408470 0.948380 0.999890 -0.609383
O15   O     O_R   0.948380 0.591530 0.999890 -0.609385
O16   O     O_R   0.591530 0.051620 0.999890 -0.609384
O17   O     O_R   0.551620 0.999930 0.449180 -0.565721
O18   O     O_R   0.000070 0.551620 0.449180 -0.565726
O19   O     O_R   0.448380 0.000070 0.449180 -0.565721
O20   O     O_R   0.999930 0.448380 0.449180 -0.565726
O21   O     O_R   0.551620 0.000070 0.550820 -0.565726
O22   O     O_R   0.000070 0.448380 0.550820 -0.565725
O23   O     O_R   0.448380 0.999930 0.550820 -0.565726
O24   O     O_R   0.999930 0.551620 0.550820 -0.565725
O25   O     O_R   0.051620 0.499930 0.949180 -0.565720
O26   O     O_R   0.500070 0.051620 0.949180 -0.565726
O27   O     O_R   0.948380 0.500070 0.949180 -0.565720
O28   O     O_R   0.499930 0.948380 0.949180 -0.565725
O29   O     O_R   0.051620 0.500070 0.050820 -0.565726
O30   O     O_R   0.500070 0.948380 0.050820 -0.565729
O31   O     O_R   0.948380 0.499930 0.050820 -0.565726
O32   O     O_R   0.499930 0.051620 0.050820 -0.565730
O33   O     O_R   0.591500 0.499930 0.528880 -0.616429
O34   O     O_R   0.500070 0.591500 0.528880 -0.616429
O35   O     O_R   0.408500 0.500070 0.528880 -0.616429
O36   O     O_R   0.499930 0.408500 0.528880 -0.616428
O37   O     O_R   0.591500 0.500070 0.471120 -0.616429
O38   O     O_R   0.500070 0.408500 0.471120 -0.616428
O39   O     O_R   0.408500 0.499930 0.471120 -0.616428
O40   O     O_R   0.499930 0.591500 0.471120 -0.616428
O41   O     O_R   0.091500 0.999930 0.028880 -0.616429
O42   O     O_R   0.000070 0.091500 0.028880 -0.616429
O43   O     O_R   0.908500 0.000070 0.028880 -0.616429
O44   O     O_R   0.999930 0.908500 0.028880 -0.616429
O45   O     O_R   0.091500 0.000070 0.971120 -0.616429
O46   O     O_R   0.000070 0.908500 0.971120 -0.616428
O47   O     O_R   0.908500 0.999930 0.971120 -0.616428
O48   O     O_R   0.999930 0.091500 0.971120 -0.616428
Zn1   Zn    Zn3+2 0.568970 0.000000 0.500000 1.100274
Zn2   Zn    Zn3+2 1.000000 0.568970 0.500000 1.100271
Zn3   Zn    Zn3+2 0.431030 0.000000 0.500000 1.100274
Zn4   Zn    Zn3+2 1.000000 0.431030 0.500000 1.100271
Zn5   Zn    Zn3+2 0.068970 0.500000 0.000000 1.100273
Zn6   Zn    Zn3+2 0.500000 0.068970 0.000000 1.100268
Zn7   Zn    Zn3+2 0.931030 0.500000 0.000000 1.100274
Zn8   Zn    Zn3+2 0.500000 0.931030 0.000000 1.100269
Zn9   Zn    Zn3+2 0.500000 0.500000 0.538510 1.001497
Zn10  Zn    Zn3+2 0.500000 0.500000 0.461490 1.001496
Zn11  Zn    Zn3+2 0.000000 0.000000 0.038510 1.001497
Zn12  Zn    Zn3+2 1.000000 1.000000 0.961490 1.001496
F1    F     F_    0.401294 0.049536 0.393867 -0.583593
F2    F     F_    0.950450 0.401301 0.393867 -0.583606
F3    F     F_    0.598706 0.950464 0.393867 -0.583593
F4    F     F_    0.049550 0.598699 0.393867 -0.583606
F5    F     F_    0.401301 0.950451 0.606133 -0.583606
F6    F     F_    0.950452 0.598700 0.606133 -0.583606
F7    F     F_    0.598699 0.049550 0.606133 -0.583606
F8    F     F_    0.049548 0.401300 0.606133 -0.583605
F9    F     F_    0.901293 0.549534 0.893867 -0.583593
F10   F     F_    0.450450 0.901301 0.893867 -0.583606
F11   F     F_    0.098707 0.450466 0.893867 -0.583593
F12   F     F_    0.549550 0.098699 0.893867 -0.583606
F13   F     F_    0.901301 0.450451 0.106133 -0.583606
F14   F     F_    0.450441 0.098694 0.106132 -0.583615
F15   F     F_    0.098699 0.549549 0.106133 -0.583607
F16   F     F_    0.549559 0.901306 0.106132 -0.583615
F17   F     F_    0.399981 0.047576 0.324588 -0.568264
F18   F     F_    0.952409 0.399989 0.324588 -0.568269
F19   F     F_    0.600019 0.952424 0.324588 -0.568264
F20   F     F_    0.047591 0.600012 0.324588 -0.568269
F21   F     F_    0.399988 0.952410 0.675412 -0.568269
F22   F     F_    0.952411 0.600012 0.675412 -0.568269
F23   F     F_    0.600011 0.047591 0.675412 -0.568269
F24   F     F_    0.047589 0.399988 0.675412 -0.568270
F25   F     F_    0.899981 0.547574 0.824588 -0.568267
F26   F     F_    0.452409 0.899989 0.824588 -0.568269
F27   F     F_    0.100019 0.452426 0.824588 -0.568267
F28   F     F_    0.547591 0.100012 0.824588 -0.568269
F29   F     F_    0.899988 0.452410 0.175412 -0.568269
F30   F     F_    0.452400 0.100007 0.175412 -0.568273
F31   F     F_    0.100011 0.547591 0.175412 -0.568269
F32   F     F_    0.547600 0.899993 0.175412 -0.568273
C193  C     C_1   0.391862 0.352133 0.451726 0.204803
N17   N     N_1   0.353774 0.387997 0.456614 -0.192679
C194  C     C_1   0.647867 0.391862 0.451726 0.204806
N18   N     N_1   0.612003 0.353773 0.456615 -0.192679
C195  C     C_1   0.608138 0.647867 0.451726 0.204803
N19   N     N_1   0.646227 0.612003 0.456615 -0.192679
C196  C     C_1   0.352133 0.608138 0.451726 0.204806
N20   N     N_1   0.387997 0.646227 0.456615 -0.192679
C197  C     C_1   0.391862 0.647867 0.548274 0.204806
N21   N     N_1   0.353774 0.612002 0.543386 -0.192678
C198  C     C_1   0.647866 0.608138 0.548274 0.204805
N22   N     N_1   0.612003 0.646226 0.543385 -0.192679
C199  C     C_1   0.608138 0.352133 0.548274 0.204806
N23   N     N_1   0.646226 0.387997 0.543385 -0.192678
C200  C     C_1   0.352133 0.391863 0.548275 0.204805
N24   N     N_1   0.387998 0.353775 0.543386 -0.192678
C201  C     C_1   0.891862 0.852133 0.951726 0.204804
N25   N     N_1   0.853773 0.887997 0.956615 -0.192679
C202  C     C_1   0.147866 0.891863 0.951725 0.204806
N26   N     N_1   0.112002 0.853774 0.956614 -0.192677
C203  C     C_1   0.108138 0.147867 0.951726 0.204804
N27   N     N_1   0.146226 0.112003 0.956615 -0.192679
C204  C     C_1   0.852133 0.108138 0.951726 0.204806
N28   N     N_1   0.887997 0.146226 0.956615 -0.192678
C205  C     C_1   0.891862 0.147867 0.048274 0.204805
N29   N     N_1   0.853774 0.112003 0.043386 -0.192679
C206  C     C_1   0.147867 0.108138 0.048274 0.204807
N30   N     N_1   0.112003 0.146226 0.043385 -0.192679
C207  C     C_1   0.108138 0.852133 0.048274 0.204805
N31   N     N_1   0.146226 0.887997 0.043385 -0.192679
C208  C     C_1   0.852133 0.891862 0.048274 0.204807
N32   N     N_1   0.887997 0.853774 0.043386 -0.192679

loop_
_geom_bond_atom_site_label_1
_geom_bond_atom_site_label_2
_ccdc_geom_bond_type
O14   Zn8   S    
N5    N10   A    
C5    O9    A    
C197  N21   T    
C6    O14   A    
C185  H15   S    
C174  H30   S    
C53   C69   A    
C42   C58   A    
C9    C177  A    
N7    N12   A    
C189  H11   S    
C91   O35   A    
C46   C62   A    
C58   C82   A    
C22   C38   A    
C64   C84   A    
C75   C90   S    
O47   Zn12  S    
C1    O7    A    
C133  F29   S    
C20   H44   S    
C182  H2    S    
C22   C190  A    
C157  N6    A    
O37   Zn10  S    
C24   H48   S    
C22   H46   S    
C117  C133  A    
C4    O4    A    
C119  C151  A    
C114  C130  A    
C93   O41   A    
C69   C173  A    
C108  C124  A    
C127  F23   S    
C14   C182  A    
O48   Zn12  S    
C108  C146  A    
C154  N15   A    
C43   C75   A    
C34   C50   A    
C39   C207  S    
O41   Zn11  S    
C25   C41   A    
O3    Zn3   S    
C156  N9    A    
C143  C154  S    
C162  H18   S    
C28   C44   A    
C29   C45   A    
C136  F32   S    
O23   Zn3   S    
C196  N20   T    
C54   C70   A    
C11   C27   A    
C16   C184  A    
C192  H12   S    
C97   O19   A    
C103  O31   A    
O12   Zn8   S    
C98   O20   A    
O4    Zn4   S    
C3    C83   S    
C11   C179  A    
C114  C150  A    
C161  C177  A    
C58   C162  A    
C159  N4    A    
O11   Zn7   S    
O18   Zn2   S    
C124  C138  A    
C99   C147  S    
C137  C160  S    
C56   C72   A    
C97   C145  S    
C112  F8    S    
O25   Zn5   S    
C32   C200  S    
C30   C198  S    
C206  N30   T    
C18   H42   S    
C141  C156  S    
C132  C142  A    
C98   C146  S    
O35   Zn9   S    
C67   C171  A    
C104  C152  S    
O20   Zn4   S    
C19   C35   A    
C201  N25   T    
C34   C202  S    
C2    O6    A    
O29   Zn5   S    
C164  H20   S    
C3    O3    A    
C16   H40   S    
C116  F12   S    
C157  N8    A    
C14   H38   S    
C48   C64   A    
C106  F2    S    
C57   C161  A    
C64   C168  A    
C198  N22   T    
C95   O47   A    
C191  H9    S    
C33   C49   A    
C55   C71   A    
C104  O30   A    
C154  N13   A    
C5    O15   A    
C21   H45   S    
O45   Zn12  S    
C193  N17   T    
C132  F28   S    
C48   C76   A    
C194  N18   T    
C166  C182  A    
C167  H23   S    
C156  N11   A    
C29   C197  S    
C90   O34   A    
C5    C85   S    
C33   C201  S    
C114  F10   S    
C121  C137  A    
C26   C194  S    
C44   C76   A    
C103  O29   A    
C98   O18   A    
C99   O23   A    
C6    O10   A    
O34   Zn9   S    
C159  N2    A    
C172  H28   S    
C43   C59   A    
C37   C53   A    
C63   C167  A    
C123  F19   S    
C115  C149  A    
C109  C147  A    
C96   O46   A    
C110  C148  A    
C62   C166  A    
C39   C55   A    
O40   Zn10  S    
C186  H14   S    
C79   C94   S    
C117  C151  A    
C190  H10   S    
C3    O5    A    
C36   C204  S    
O30   Zn8   S    
C187  H13   S    
C8    C88   S    
C110  F6    S    
C7    O11   A    
C25   C193  S    
C180  H8    S    
C20   C188  A    
C50   C66   A    
C21   C189  A    
C116  C132  A    
C4    O8    A    
C106  C122  A    
C24   C192  A    
C51   C67   A    
C94   O42   A    
C80   C95   S    
C118  C152  A    
C70   C174  A    
C104  O32   A    
C117  F13   S    
C165  H21   S    
C12   C180  A    
C110  C126  A    
C13   C181  A    
C163  C179  A    
C158  N7    A    
C26   C42   A    
C126  F22   S    
C89   O33   A    
O33   Zn9   S    
C176  H32   S    
O46   Zn12  S    
C134  F30   S    
C30   C46   A    
C73   C92   S    
C164  C180  A    
C66   C86   A    
C15   C31   A    
C16   C32   A    
C36   C52   A    
C123  C137  A    
C77   C96   S    
C56   C80   A    
C101  O25   A    
C168  H24   S    
C128  C140  A    
C8    O16   A    
C111  C127  A    
C99   O21   A    
C68   C88   A    
C60   C164  A    
C49   C77   A    
C61   C165  A    
C130  C142  A    
C51   C79   A    
C162  C178  A    
C59   C163  A    
C76   C91   S    
C41   C73   A    
O19   Zn3   S    
C11   H35   S    
C177  H7    S    
N2    N13   A    
C9    H33   S    
O6    Zn4   S    
O1    Zn1   S    
C171  H27   S    
N6    N9    A    
C169  H25   S    
C107  C123  A    
C173  H29   S    
O21   Zn1   S    
C195  N19   T    
C9    C25   A    
C208  N32   T    
C124  F20   S    
C12   C28   A    
C13   C29   A    
C59   C83   A    
C47   C63   A    
O27   Zn7   S    
C12   H36   S    
C129  C141  A    
C1    C81   S    
C204  N28   T    
C92   O38   A    
C40   C208  S    
C27   C195  S    
C19   C187  A    
C7    C87   S    
C17   C185  A    
C40   C56   A    
C15   C183  A    
C200  N24   T    
C158  N5    A    
C69   C87   A    
C103  C151  S    
C15   H39   S    
C62   C82   A    
C31   C47   A    
C32   C48   A    
C17   C33   A    
C50   C78   A    
C116  C150  A    
C35   C203  S    
C1    O1    A    
C120  F16   S    
C42   C74   A    
C101  O27   A    
C102  O28   A    
C47   C73   A    
C61   C83   A    
C184  H4    S    
O39   Zn10  S    
C161  H17   S    
C119  C135  A    
N3    N16   A    
C65   C169  A    
C120  C136  A    
O15   Zn7   S    
C111  C147  A    
C23   H47   S    
C38   C54   A    
C105  C145  A    
C170  C186  A    
C175  H31   S    
C122  C138  A    
C49   C65   A    
C102  C150  S    
C92   O36   A    
C2    C82   S    
C131  F27   S    
O8    Zn2   S    
C74   C89   S    
O22   Zn4   S    
C188  H16   S    
C100  O22   A    
C111  F7    S    
C19   H43   S    
C155  N12   A    
C17   H41   S    
C135  F31   S    
O5    Zn1   S    
C41   C57   A    
C136  C144  A    
C68   C172  A    
C89   O37   A    
C44   C60   A    
C55   C77   A    
C45   C61   A    
C183  H1    S    
C71   C175  A    
C72   C176  A    
C181  H3    S    
O16   Zn6   S    
C112  C128  A    
C13   H37   S    
C20   C36   A    
C27   C43   A    
C21   C37   A    
O44   Zn11  S    
C52   C80   A    
C54   C78   A    
C153  N14   A    
C60   C84   A    
C102  O26   A    
C202  N26   T    
C8    O12   A    
C23   C191  A    
O28   Zn8   S    
C115  C131  A    
C125  C139  A    
C126  C140  A    
C113  C129  A    
C63   C81   A    
C38   C206  S    
C28   C196  S    
C93   O45   A    
C53   C79   A    
C100  C148  S    
C130  F26   S    
C175  C191  A    
C107  C145  A    
C176  C192  A    
C78   C93   S    
C119  F15   S    
C96   O44   A    
C101  C149  S    
C144  C153  S    
C113  F9    S    
O2    Zn2   S    
O38   Zn10  S    
C115  F11   S    
C138  C159  S    
C167  C183  A    
C139  C158  S    
C168  C184  A    
N4    N15   A    
C4    C84   S    
C142  C155  S    
C122  F18   S    
C52   C68   A    
N8    N11   A    
O43   Zn11  S    
C10   C26   A    
C178  H6    S    
C71   C85   A    
C100  O24   A    
C127  C139  A    
C14   C30   A    
O10   Zn6   S    
O26   Zn6   S    
O32   Zn6   S    
C72   C88   A    
C155  N10   A    
O13   Zn5   S    
O24   Zn2   S    
C133  C143  A    
C10   C178  A    
C113  C149  A    
C7    O13   A    
C37   C205  S    
O36   Zn9   S    
O17   Zn1   S    
C163  H19   S    
C179  H5    S    
C90   O40   A    
C134  C144  A    
C18   C186  A    
C112  C148  A    
C109  F5    S    
C140  C157  S    
O7    Zn3   S    
C91   O39   A    
C105  C121  A    
C128  F24   S    
C18   C34   A    
C207  N31   T    
C118  F14   S    
C166  H22   S    
C109  C125  A    
C2    O2    A    
C153  N16   A    
C174  C190  A    
C120  C152  A    
C129  F25   S    
C160  N1    A    
C57   C81   A    
C70   C86   A    
C105  F1    S    
C6    C86   S    
C46   C74   A    
C203  N27   T    
C107  F3    S    
C125  F21   S    
C108  F4    S    
C95   O43   A    
C66   C170  A    
C94   O48   A    
C118  C134  A    
O42   Zn11  S    
C65   C85   A    
C121  F17   S    
C199  N23   T    
C67   C87   A    
C106  C146  A    
C171  C187  A    
C45   C75   A    
C165  C181  A    
C169  C185  A    
C205  N29   T    
C35   C51   A    
C31   C199  S    
C172  C188  A    
C23   C39   A    
C173  C189  A    
C135  C143  A    
C24   C40   A    
C160  N3    A    
C131  C141  A    
O9    Zn5   S    
C10   H34   S    
N1    N14   A    
O31   Zn7   S    
C97   O17   A    
C170  H26   S    
