data_mof_unit_25651.cif
_audit_creation_date              2012-12-10T16:47:49-0500
_audit_creation_method            fapswitch 2.2
_symmetry_space_group_name_H-M    P1
_symmetry_Int_Tables_number       1
_space_group_crystal_system       triclinic
_cell_length_a                    7.804312
_cell_length_b                    8.57032
_cell_length_c                    10.708813
_cell_angle_alpha                 91.453089
_cell_angle_beta                  84.92414
_cell_angle_gamma                 93.74735
_cell_volume                      711.791414112

loop_
_atom_site_label
_atom_site_type_symbol
_atom_type_description
_atom_site_fract_x
_atom_site_fract_y
_atom_site_fract_z
_atom_type_partial_charge
C1    C     C_R   0.545733 0.794649 0.496758 0.960016
C2    C     C_2   0.569707 0.958252 0.495417 -0.389738
C3    C     C_3   0.004453 0.322135 0.287796 0.220824
C4    C     C_3   0.894236 0.176179 0.252258 -0.375444
C5    C     C_3   0.906732 0.147770 0.110545 -0.979626
C6    C     C_2   0.430278 0.041749 0.503900 -0.374509
C7    C     C_R   0.501735 0.505768 0.737142 0.923049
C8    C     C_R   0.454266 0.205357 0.502919 0.948296
C9    C     C_R   0.499273 0.498188 0.262657 0.907062
C10   C     C_2   0.645667 0.514986 0.058216 -0.162279
C11   C     C_2   0.498268 0.489527 0.130431 -0.321845
C12   C     C_2   0.647820 0.504648 0.923773 -0.166522
C13   C     C_2   0.505559 0.527480 0.868474 -0.322434
H1    H     H_    0.768352 0.539403 0.097697 0.161161
H2    H     H_    0.937983 0.072303 0.297623 0.223625
H3    H     H_    0.757487 0.190103 0.285199 0.248617
H4    H     H_    0.864045 0.249982 0.062706 0.270379
H5    H     H_    0.822652 0.043165 0.087948 0.275609
H6    H     H_    0.041490 0.126898 0.074873 0.264790
H7    H     H_    0.375402 0.457454 0.093856 0.132155
H8    H     H_    0.767516 0.476888 0.870636 0.174377
H9    H     H_    0.389015 0.566491 0.919135 0.149611
H10   H     H_    0.701353 0.009430 0.488070 0.187054
H11   H     H_    0.298595 0.990557 0.511498 0.186472
H12   H     H_    0.990800 0.632683 0.580907 0.143623
H13   H     H_    0.135709 0.312745 0.240244 0.131538
H14   H     H_    0.954000 0.428862 0.250737 0.114714
N1    N     N_2   0.950320 0.457950 0.466680 0.103434
N2    N     N_2   0.049680 0.542050 0.533320 -0.098188
O1    O     O_R   0.389250 0.738570 0.508180 -0.621535
O2    O     O_R   0.678390 0.711630 0.486820 -0.649305
O3    O     O_R   0.355470 0.513470 0.691600 -0.625516
O4    O     O_R   0.644610 0.486520 0.670240 -0.626546
O5    O     O_R   0.321610 0.288370 0.513180 -0.564721
O6    O     O_R   0.610750 0.261430 0.491820 -0.613576
O7    O     O_R   0.355390 0.513480 0.329760 -0.620440
O8    O     O_R   0.644530 0.486530 0.308400 -0.640919
O9    O     O_3   0.020478 0.327868 0.418266 -0.522254
Zn1   Zn    Zn3+2 0.306940 0.517990 0.514260 0.985230
Zn2   Zn    Zn3+2 0.693060 0.482010 0.485740 0.963763

loop_
_geom_bond_atom_site_label_1
_geom_bond_atom_site_label_2
_ccdc_geom_bond_type
C4    H3    S    
C9    O7    A    
C5    H6    S    
C7    O4    A    
N1    O9    S    
C6    H11   S    
N2    Zn1   S    
C4    H2    S    
C9    O8    A    
O6    Zn2   S    
C8    O5    A    
C12   C13   D    
C9    C11   S    
C2    C6    D    
C10   C12   S    
C5    H5    S    
C3    H14   S    
N1    N2    D    
C13   H9    S    
O8    Zn2   S    
C2    H10   S    
C3    H13   S    
C1    O2    A    
H12   N2    S    
C11   H7    S    
O4    Zn2   S    
C5    H4    S    
C10   C11   D    
N1    Zn2   S    
C3    C4    S    
C7    C13   S    
O2    Zn2   S    
C1    C2    S    
C10   H1    S    
O3    Zn1   S    
O1    Zn1   S    
C1    O1    A    
C6    C8    S    
C7    O3    A    
C12   H8    S    
O7    Zn1   S    
O5    Zn1   S    
C3    O9    S    
C4    C5    S    
C8    O6    A    
