data_mof_unit_9014.cif
_audit_creation_date              2012-12-10T19:11:31-0500
_audit_creation_method            fapswitch 2.2
_symmetry_space_group_name_H-M    P1
_symmetry_Int_Tables_number       1
_space_group_crystal_system       triclinic
_cell_length_a                    10.623146
_cell_length_b                    9.723936
_cell_length_c                    10.538906
_cell_angle_alpha                 90.709178
_cell_angle_beta                  90.162403
_cell_angle_gamma                 90.001922
_cell_volume                      1088.56849021

loop_
_atom_site_label
_atom_site_type_symbol
_atom_type_description
_atom_site_fract_x
_atom_site_fract_y
_atom_site_fract_z
_atom_type_partial_charge
C1    C     C_R   0.257701 0.500268 0.500129 0.868542
C2    C     C_3   0.927561 0.424195 0.380342 -0.411268
C3    C     C_3   0.378916 0.080056 0.449628 -0.212384
C4    C     C_3   0.376935 0.918201 0.455055 -0.213637
C5    C     C_3   0.602150 0.080069 0.417249 -0.225473
C6    C     C_3   0.597891 0.917910 0.411897 -0.219202
C7    C     C_3   0.519302 0.082801 0.626715 -0.222160
C8    C     C_3   0.524095 0.920596 0.625898 -0.236105
C9    C     C_R   0.493214 0.499211 0.257137 0.960246
C10   C     C_R   0.742531 0.500274 0.499978 0.827202
C11   C     C_R   0.504373 0.500865 0.742232 0.928239
C12   C     C_3   0.490452 0.497977 0.121639 -0.220973
C13   C     C_3   0.422936 0.601627 0.037659 0.425078
C14   C     C_3   0.449721 0.380678 0.032932 0.511280
C15   C     C_3   0.380338 0.484057 0.949044 -0.302737
C16   C     C_3   0.502974 0.502549 0.876227 -0.132558
C17   C     C_3   0.544492 0.622600 0.961739 -0.200961
C18   C     C_3   0.571953 0.397067 0.957283 -0.193689
C19   C     C_3   0.613051 0.516933 0.046476 -0.294452
C20   C     C_3   0.071534 0.651504 0.499444 -0.383105
C21   C     C_3   0.072725 0.429227 0.620914 -0.396026
C22   C     C_3   0.928675 0.651516 0.499021 -0.394420
C23   C     C_3   0.928189 0.429180 0.620771 -0.395909
C24   C     C_3   0.072012 0.423834 0.380632 -0.345873
C25   C     C_3   0.121371 0.501195 0.500217 0.138301
C26   C     C_3   0.878874 0.501229 0.500050 0.175255
H1    H     H_    0.285532 0.471026 0.905808 0.180743
H2    H     H_    0.608108 0.124672 0.667965 0.151159
H3    H     H_    0.617581 0.885541 0.660738 0.149201
H4    H     H_    0.442143 0.118351 0.690299 0.198545
H5    H     H_    0.453371 0.880961 0.693966 0.160175
H6    H     H_    0.695170 0.113757 0.455181 0.136897
H7    H     H_    0.691685 0.876562 0.438679 0.140442
H8    H     H_    0.582779 0.722139 0.928655 0.170851
H9    H     H_    0.632872 0.312865 0.920494 0.163616
H10   H     H_    0.707928 0.530109 0.089446 0.171061
H11   H     H_    0.105864 0.706284 0.414083 0.218478
H12   H     H_    0.892286 0.475064 0.293085 0.167948
H13   H     H_    0.107430 0.321276 0.624267 0.183562
H14   H     H_    0.105901 0.709117 0.584781 0.175068
H15   H     H_    0.108193 0.483622 0.707477 0.174197
H16   H     H_    0.894290 0.709635 0.583862 0.177311
H17   H     H_    0.893046 0.483439 0.707332 0.166609
H18   H     H_    0.894310 0.705633 0.413023 0.180892
H19   H     H_    0.893594 0.321186 0.623945 0.175471
H20   H     H_    0.107291 0.473757 0.293203 0.219363
H21   H     H_    0.106326 0.315626 0.379299 0.196308
H22   H     H_    0.289325 0.799198 0.890385 0.333683
H23   H     H_    0.892723 0.316183 0.378272 0.180085
H24   H     H_    0.273781 0.068321 0.961920 0.414289
H25   H     H_    0.362641 0.113049 0.350762 0.244142
H26   H     H_    0.351516 0.874455 0.360932 0.239706
H27   H     H_    0.299325 0.121589 0.506639 0.145812
H28   H     H_    0.301303 0.885323 0.520893 0.137439
H29   H     H_    0.596446 0.122113 0.320379 0.213252
H30   H     H_    0.580112 0.882710 0.312693 0.206937
N1    N     N_3   0.499750 0.138610 0.497240 -0.061527
N2    N     N_3   0.499750 0.861390 0.497240 -0.056487
O1    O     O_R   0.314910 0.616040 0.499970 -0.628151
O2    O     O_2   0.395652 0.858508 0.127464 -0.285116
O3    O     O_3   0.229269 0.781146 0.959986 -0.545853
O4    O     O_2   0.478296 0.126575 0.121454 -0.312235
O5    O     O_2   0.275766 0.242132 0.163023 -0.344028
O6    O     O_3   0.320482 0.150778 0.934313 -0.577613
O7    O     O_R   0.314910 0.383960 0.499970 -0.631808
O8    O     O_R   0.500080 0.616020 0.313900 -0.593244
O9    O     O_R   0.500080 0.383980 0.313900 -0.594171
O10   O     O_R   0.685320 0.616040 0.499930 -0.642788
O11   O     O_R   0.685320 0.383960 0.499930 -0.642261
O12   O     O_R   0.500150 0.616060 0.686000 -0.642961
O13   O     O_R   0.500150 0.383940 0.686000 -0.622025
O14   O     O_2   0.236976 0.689430 0.190318 -0.330261
S1    S     S_3+6 0.319643 0.736748 0.084104 0.013815
S2    S     S_3+6 0.379728 0.220259 0.068555 0.019628
Zn1   Zn    Zn3+2 0.500150 0.654960 0.499940 0.930592
Zn2   Zn    Zn3+2 0.500150 0.345040 0.499940 0.940037

loop_
_geom_bond_atom_site_label_1
_geom_bond_atom_site_label_2
_ccdc_geom_bond_type
C23   H19   S    
H24   O6    S    
C14   C18   S    
C11   O12   A    
C7    C8    S    
O10   Zn1   S    
O7    Zn2   S    
C4    H26   S    
C8    H3    S    
C14   S2    S    
N1    Zn2   S    
C19   H10   S    
C1    O1    A    
C5    C6    S    
C20   H14   S    
C11   O13   A    
C20   C25   S    
C15   C16   S    
O2    S1    D    
C23   H17   S    
O11   Zn2   S    
C18   C19   S    
C23   C26   S    
C6    N2    S    
C9    O8    A    
C8    N2    S    
C22   H18   S    
C16   C17   S    
C1    O7    A    
C18   H9    S    
C5    H6    S    
C10   C26   S    
C7    H4    S    
C1    C25   S    
C8    H5    S    
N2    Zn1   S    
C24   C25   S    
C6    H30   S    
C3    H25   S    
O3    S1    S    
C7    H2    S    
C9    O9    A    
C2    H23   S    
C11   C16   S    
C2    H12   S    
C15   H1    S    
C21   H13   S    
C2    C26   S    
C21   H15   S    
C3    N1    S    
C12   C14   S    
C10   O10   A    
C21   C23   S    
C2    C24   S    
C17   H8    S    
C20   C22   S    
C3    C4    S    
O1    Zn1   S    
O13   Zn2   S    
C21   C25   S    
C4    H28   S    
C24   H21   S    
C5    H29   S    
C13   S1    S    
O14   S1    D    
O5    S2    D    
C5    N1    S    
C6    H7    S    
C13   C17   S    
C24   H20   S    
C13   C15   S    
C20   H11   S    
C3    H27   S    
H22   O3    S    
C22   H16   S    
O8    Zn1   S    
C12   C19   S    
C17   C19   S    
C9    C12   S    
C10   O11   A    
C12   C13   S    
C16   C18   S    
C22   C26   S    
C4    N2    S    
O12   Zn1   S    
O6    S2    S    
C14   C15   S    
O4    S2    D    
O9    Zn2   S    
C7    N1    S    
