data_mof_unit_53743.cif
_audit_creation_date              2012-12-10T17:47:17-0500
_audit_creation_method            fapswitch 2.2
_symmetry_space_group_name_H-M    P1
_symmetry_Int_Tables_number       1
_space_group_crystal_system       triclinic
_cell_length_a                    11.700018
_cell_length_b                    14.709804
_cell_length_c                    14.647426
_cell_angle_alpha                 65.090104
_cell_angle_beta                  102.949865
_cell_angle_gamma                 102.724283
_cell_volume                      2205.52005714

loop_
_atom_site_label
_atom_site_type_symbol
_atom_type_description
_atom_site_fract_x
_atom_site_fract_y
_atom_site_fract_z
_atom_type_partial_charge
C1    C     C_R   0.480840 0.119771 0.311924 0.803079
C2    C     C_R   0.521328 0.880279 0.688006 0.805482
C3    C     C_R   0.485959 0.321424 0.999838 0.111204
C4    C     C_R   0.586175 0.679757 0.000888 0.112068
C5    C     C_R   0.536191 0.466566 0.052519 0.077869
C6    C     C_R   0.530032 0.534278 0.949031 0.079155
C7    C     C_R   0.512396 0.493828 0.874120 -0.216847
C8    C     C_R   0.574685 0.507370 0.127950 -0.217168
C9    C     C_R   0.492246 0.390278 0.899058 -0.241682
C10   C     C_R   0.600467 0.611015 0.102638 -0.239106
C11   C     C_R   0.685272 0.278668 0.676736 -0.326836
C12   C     C_R   0.313035 0.720395 0.324558 -0.322249
C13   C     C_R   0.658227 0.199374 0.643960 0.076474
C14   C     C_R   0.340638 0.800016 0.356873 0.076734
C15   C     C_R   0.518908 0.286948 0.506756 0.009077
C16   C     C_R   0.481424 0.713208 0.493091 0.009163
C17   C     C_R   0.543118 0.370995 0.535585 -0.021126
C18   C     C_R   0.456649 0.628831 0.464735 -0.022594
C19   C     C_R   0.627693 0.364373 0.623303 0.165369
C20   C     C_R   0.371253 0.635018 0.377591 0.163409
C21   C     C_R   0.485869 0.459818 0.482042 0.074497
C22   C     C_R   0.513948 0.540026 0.518262 0.078175
C23   C     C_R   0.284171 0.000270 0.500078 0.825649
C24   C     C_R   0.715828 0.999736 0.499910 0.824809
C25   C     C_R   0.597833 0.528498 0.606904 -0.238596
C26   C     C_R   0.401804 0.471258 0.393510 -0.234554
C27   C     C_R   0.653527 0.442628 0.657863 -0.205625
C28   C     C_R   0.345321 0.556714 0.343103 -0.194722
C29   C     C_1   0.162618 0.000687 0.500176 -0.184975
C30   C     C_1   0.837371 0.999337 0.499768 -0.183276
C31   C     C_1   0.060007 0.000359 0.500062 -0.001234
C32   C     C_1   0.939974 0.999672 0.499853 -0.000476
C33   C     C_R   0.476245 0.187431 0.203563 -0.091232
C34   C     C_R   0.542288 0.812906 0.796208 -0.089910
C35   C     C_R   0.459562 0.214906 0.024889 0.097126
C36   C     C_R   0.611258 0.786474 0.974598 0.097795
C37   C     C_R   0.457385 0.149344 0.127832 -0.201655
C38   C     C_R   0.589390 0.851523 0.871302 -0.202910
C39   C     C_R   0.496177 0.291587 0.177279 -0.255270
C40   C     C_R   0.519564 0.708689 0.822984 -0.262355
C41   C     C_R   0.506963 0.360177 0.077263 0.069822
C42   C     C_R   0.546058 0.640633 0.923617 0.068806
Cu1   Cu    Cu3+1 0.469550 0.918260 0.475690 0.936332
Cu2   Cu    Cu3+1 0.530450 0.081740 0.524310 0.936253
H1    H     H_    0.481105 0.365517 0.837384 0.151474
H2    H     H_    0.630159 0.636018 0.164797 0.146376
H3    H     H_    0.622458 0.584563 0.639583 0.130805
H4    H     H_    0.377385 0.415345 0.360625 0.132853
H5    H     H_    0.477503 0.681768 0.763898 0.158627
H6    H     H_    0.501224 0.317635 0.236731 0.151998
H7    H     H_    0.608125 0.932697 0.847879 0.145364
H8    H     H_    0.441309 0.068202 0.150491 0.148464
H9    H     H_    0.518637 0.540607 0.795148 0.140998
H10   H     H_    0.591032 0.461167 0.208062 0.145736
H11   H     H_    0.717321 0.437258 0.725600 0.145636
H12   H     H_    0.280943 0.561800 0.275754 0.143501
H13   H     H_    0.547762 0.716766 0.555969 0.123760
H14   H     H_    0.453247 0.283744 0.443381 0.122399
H15   H     H_    0.297040 0.866634 0.315122 0.124338
H16   H     H_    0.701307 0.132499 0.686045 0.122032
H17   H     H_    0.750013 0.272595 0.744052 0.137225
H18   H     H_    0.247419 0.725993 0.257850 0.137487
N1    N     N_R   0.576230 0.204580 0.560790 -0.174902
N2    N     N_R   0.423770 0.795420 0.439210 -0.175986
O1    O     O_R   0.459870 0.022090 0.338120 -0.593254
O2    O     O_R   0.540130 0.977910 0.661880 -0.593446
O3    O     O_R   0.511290 0.160150 0.379180 -0.588150
O4    O     O_R   0.488710 0.839850 0.620820 -0.588435
O5    O     O_R   0.311490 0.930960 0.479480 -0.572903
O6    O     O_R   0.688510 0.069040 0.520520 -0.572740
O7    O     O_R   0.362910 0.069020 0.520540 -0.573704
O8    O     O_R   0.637090 0.930980 0.479460 -0.574994
C43   C     C_3   0.435192 0.173494 0.941448 -0.413796
C44   C     C_3   0.398679 0.058369 0.975120 -0.374357
C45   C     C_3   0.374360 0.027375 0.884480 -0.827839
H19   H     H_    0.298091 0.061769 0.829558 0.257094
H20   H     H_    0.453365 0.052211 0.845059 0.249447
H21   H     H_    0.352903 0.943685 0.911435 0.244702
H22   H     H_    0.470575 0.018163 0.031184 0.222744
H23   H     H_    0.316924 0.034592 0.010973 0.220598
H24   H     H_    0.362218 0.210241 0.883253 0.203036
H25   H     H_    0.516281 0.195244 0.904976 0.198399
C46   C     C_3   0.661230 0.828654 0.057041 -0.412866
C47   C     C_3   0.699181 0.943899 0.019816 -0.375330
C48   C     C_3   0.746754 0.976314 0.109133 -0.833106
H26   H     H_    0.677460 0.955475 0.158236 0.253585
H27   H     H_    0.825651 0.939516 0.155228 0.255306
H28   H     H_    0.772878 0.059726 0.079924 0.242628
H29   H     H_    0.769561 0.967153 0.971175 0.219322
H30   H     H_    0.622522 0.983962 0.974829 0.225710
H31   H     H_    0.593418 0.806684 0.107847 0.200937
H32   H     H_    0.740962 0.792684 0.102598 0.199279

loop_
_geom_bond_atom_site_label_1
_geom_bond_atom_site_label_2
_ccdc_geom_bond_type
C21   C26   A    
C4    C36   A    
C9    H1    S    
Cu1   O8    S    
C43   C44   S    
C23   O5    A    
Cu2   O2    S    
Cu1   Cu2   S    
C28   H12   S    
C24   O6    A    
C39   C41   A    
C13   H16   S    
C48   H26   S    
C46   H32   S    
C11   C19   A    
C33   C39   A    
C34   C40   A    
C23   C29   S    
C35   C37   A    
C2    O4    A    
C5    C6    A    
C27   H11   S    
C36   C46   S    
C40   H5    S    
Cu2   O7    S    
C7    C9    A    
C1    O3    A    
C35   C43   S    
C31   C32   S    
Cu1   O4    S    
C22   C25   A    
C10   H2    S    
C1    O1    A    
Cu2   O6    S    
C19   C27   A    
C25   H3    S    
C26   H4    S    
C2    C34   S    
C40   C42   A    
Cu1   O5    S    
C44   H23   S    
C21   C22   A    
C47   H30   S    
C43   H24   S    
Cu1   N2    S    
C48   H27   S    
Cu2   N1    S    
C44   C45   S    
C1    C33   S    
C23   O7    A    
C47   C48   S    
C8    H10   S    
C37   H8    S    
C38   H7    S    
C20   C28   A    
C11   H17   S    
C33   C37   A    
C34   C38   A    
C45   H19   S    
C14   H15   S    
C12   H18   S    
C46   C47   S    
C13   N1    A    
C3    C35   A    
Cu1   O1    S    
C14   N2    A    
C12   C20   A    
C3    C9    A    
C45   H20   S    
C16   C18   A    
C12   C14   A    
C44   H22   S    
C15   H14   S    
C47   H29   S    
C7    H9    S    
C4    C10   A    
C43   H25   S    
C24   O8    A    
C48   H28   S    
C15   C17   A    
C5    C41   A    
C3    C41   A    
C18   C22   A    
C2    O2    A    
C5    C8    A    
C6    C7    A    
C25   C27   A    
C46   H31   S    
C26   C28   A    
C36   C38   A    
C29   C31   T    
C30   C32   T    
C11   C13   A    
C4    C42   A    
C17   C19   A    
C18   C20   A    
C16   H13   S    
C45   H21   S    
C24   C30   S    
C39   H6    S    
C8    C10   A    
C6    C42   A    
C15   N1    A    
Cu2   O3    S    
C16   N2    A    
C17   C21   A    
