data_mof_unit_38448.cif
_audit_creation_date              2012-12-10T17:19:53-0500
_audit_creation_method            fapswitch 2.2
_symmetry_space_group_name_H-M    P1
_symmetry_Int_Tables_number       1
_space_group_crystal_system       triclinic
_cell_length_a                    9.618284
_cell_length_b                    10.847369
_cell_length_c                    15.646461
_cell_angle_alpha                 85.674005
_cell_angle_beta                  73.852006
_cell_angle_gamma                 88.500554
_cell_volume                      1563.54757305

loop_
_atom_site_label
_atom_site_type_symbol
_atom_type_description
_atom_site_fract_x
_atom_site_fract_y
_atom_site_fract_z
_atom_type_partial_charge
C1    C     C_R   0.003068 0.261597 0.499836 0.788171
C2    C     C_R   0.672195 0.500821 0.907649 0.046069
C3    C     C_R   0.774580 0.523115 0.954426 0.131201
C4    C     C_R   0.526915 0.471912 0.956691 0.068476
C5    C     C_R   0.480715 0.487816 0.049574 0.056171
C6    C     C_R   0.581006 0.534201 0.089953 -0.222809
C7    C     C_R   0.727149 0.543340 0.044813 -0.210960
C8    C     C_R   0.428454 0.422285 0.916517 -0.234247
C9    C     C_R   0.282548 0.411213 0.961308 -0.224802
C10   C     C_R   0.233319 0.435602 0.050838 0.146317
C11   C     C_R   0.333987 0.462357 0.097931 0.044724
C12   C     C_R   0.917039 0.504004 0.671503 0.791895
C13   C     C_R   0.085591 0.425923 0.095247 -0.226539
C14   C     C_R   0.035786 0.448704 0.184907 -0.209772
C15   C     C_R   0.284448 0.455889 0.192144 0.088020
C16   C     C_R   0.257453 0.101409 0.527696 -0.190751
C17   C     C_R   0.350347 0.032440 0.567327 -0.165527
C18   C     C_R   0.312718 0.913630 0.604509 -0.112736
C19   C     C_R   0.189212 0.859581 0.594406 -0.152978
C20   C     C_R   0.099455 0.925609 0.548636 0.082770
C21   C     C_R   0.122134 0.053553 0.526303 0.105036
C22   C     C_R   0.008469 0.125587 0.503740 -0.107483
C23   C     C_R   0.994467 0.735509 0.509847 0.835129
C24   C     C_R   0.886321 0.065771 0.494855 -0.217874
C25   C     C_R   0.878001 0.938584 0.503049 -0.167557
C26   C     C_R   0.987830 0.867475 0.524194 -0.123644
C27   C     C_R   0.676117 0.703468 0.413387 0.039271
C28   C     C_R   0.606004 0.816972 0.409419 -0.326802
C29   C     C_R   0.465253 0.817126 0.405072 -0.242869
C30   C     C_R   0.395175 0.704650 0.410796 0.224035
C31   C     C_R   0.443212 0.597953 0.454866 0.184038
C32   C     C_R   0.592182 0.597873 0.455563 0.093753
C33   C     C_R   0.556376 0.409235 0.544341 -0.059195
C34   C     C_R   0.083081 0.489726 0.329328 0.853644
C35   C     C_R   0.408484 0.410043 0.545101 -0.093333
C36   C     C_R   0.867768 0.511486 0.768992 -0.042151
C37   C     C_R   0.134247 0.467810 0.233687 -0.065831
C38   C     C_R   0.922040 0.532168 0.909071 -0.214896
C39   C     C_R   0.968898 0.518067 0.817897 -0.252046
C40   C     C_R   0.717950 0.516344 0.813376 0.094445
Cu1   Cu    Cu3+1 0.140660 0.499990 0.500010 0.952758
Cu2   Cu    Cu3+1 0.859340 0.500010 0.499990 0.967475
H1    H     H_    0.802346 0.571530 0.079871 0.175928
H2    H     H_    0.008316 0.401747 0.060578 0.145969
H3    H     H_    0.797359 0.117177 0.479198 0.162367
H4    H     H_    0.299435 0.188147 0.494418 0.175770
H5    H     H_    0.451839 0.071526 0.569184 0.129723
H6    H     H_    0.382541 0.861291 0.637670 0.139367
H7    H     H_    0.163981 0.766395 0.623530 0.149525
H8    H     H_    0.785755 0.895619 0.492021 0.174854
H9    H     H_    0.596513 0.334981 0.581296 0.128675
H10   H     H_    0.667442 0.900703 0.383809 0.177330
H11   H     H_    0.422696 0.900887 0.379172 0.170724
H12   H     H_    0.338386 0.337726 0.583895 0.131048
H13   H     H_    0.920965 0.443052 0.217134 0.208639
H14   H     H_    0.208668 0.379916 0.926389 0.145828
H15   H     H_    0.001282 0.549548 0.944024 0.146955
H16   H     H_    0.083965 0.519720 0.784946 0.164230
H17   H     H_    0.548730 0.565578 0.156139 0.161301
H18   H     H_    0.462741 0.389564 0.850664 0.145772
N1    N     N_R   0.648320 0.501210 0.499140 -0.192716
N2    N     N_R   0.352470 0.501290 0.499110 -0.186837
O1    O     O_R   0.118810 0.319640 0.500010 -0.596438
O2    O     O_R   0.881240 0.319660 0.500000 -0.592305
O3    O     O_R   0.055570 0.499980 0.629840 -0.602682
O4    O     O_R   0.818000 0.500010 0.629830 -0.564182
O5    O     O_R   0.118760 0.680340 0.500000 -0.580864
O6    O     O_R   0.881190 0.680360 0.499990 -0.575166
O7    O     O_R   0.182000 0.499990 0.370170 -0.533569
O8    O     O_R   0.944430 0.500020 0.370160 -0.576293
C41   C     C_2   0.798404 0.693672 0.333390 0.910363
O9    O     O_2   0.786753 0.628827 0.275219 -0.654422
O10   O     O_R   0.920307 0.768162 0.319524 -0.782163
H19   H     H_    0.994969 0.755326 0.260732 0.315701
N3    N     N_3   0.374752 0.400431 0.244607 -0.576250
H20   H     H_    0.455113 0.344373 0.206728 0.225661
H21   H     H_    0.422019 0.467863 0.271425 0.239894
N4    N     N_3   0.312395 0.695150 0.348718 -0.518064
H22   H     H_    0.245827 0.773179 0.349389 0.220328
H23   H     H_    0.384538 0.696335 0.284819 0.186699
N5    N     N_3   0.620470 0.568215 0.764620 -0.577787
H24   H     H_    0.577742 0.498803 0.736847 0.224717
H25   H     H_    0.537167 0.618888 0.805158 0.223776

loop_
_geom_bond_atom_site_label_1
_geom_bond_atom_site_label_2
_ccdc_geom_bond_type
C15   N3    S    
C16   C21   A    
C34   C37   S    
Cu1   Cu2   S    
C19   C20   A    
C4    C8    A    
N5    H24   S    
Cu1   O5    S    
C20   C26   A    
C5    C6    A    
C24   H3    S    
C28   C29   A    
C32   N1    A    
C5    C11   A    
C3    C7    A    
C38   C39   A    
N4    H23   S    
Cu2   O8    S    
C18   C19   A    
O10   H19   S    
C23   C26   S    
C23   O5    A    
C25   H8    S    
C15   C37   A    
C11   C15   A    
C3    C38   A    
C8    C9    A    
C7    H1    S    
C12   C36   S    
C9    C10   A    
C34   O8    A    
C14   H13   S    
C1    C22   S    
C21   C22   A    
C35   H12   S    
Cu2   O6    S    
C31   N2    A    
Cu1   N2    S    
C1    O1    A    
N5    H25   S    
C36   C40   A    
C24   C25   A    
C16   H4    S    
C41   O10   S    
N4    H22   S    
C16   C17   A    
Cu1   O3    S    
C25   C26   A    
C39   H16   S    
C12   O4    A    
C23   O6    A    
C2    C4    A    
N3    H20   S    
C29   C30   A    
C38   H15   S    
C19   H7    S    
C31   C32   A    
Cu2   N1    S    
C17   C18   A    
C9    H14   S    
N3    H21   S    
C34   O7    A    
C6    H17   S    
C22   C24   A    
Cu1   O1    S    
C1    O2    A    
Cu2   O2    S    
C27   C41   S    
Cu1   O7    S    
C27   C32   A    
C40   N5    S    
C36   C39   A    
C17   H5    S    
C4    C5    A    
C10   C13   A    
C18   H6    S    
C6    C7    A    
C33   H9    S    
C12   O3    A    
C2    C3    A    
C41   O9    D    
C8    H18   S    
C14   C37   A    
C28   H10   S    
C30   C31   A    
C29   H11   S    
C33   C35   A    
C35   N2    A    
C10   C11   A    
C30   N4    S    
C2    C40   A    
C20   C21   A    
C33   N1    A    
C27   C28   A    
Cu2   O4    S    
C13   C14   A    
C13   H2    S    
