data_mof_unit_35733.cif
_audit_creation_date              2012-12-11T15:32:38-0500
_audit_creation_method            fapswitch 2.2
_symmetry_space_group_name_H-M    P1
_symmetry_Int_Tables_number       1
_space_group_crystal_system       triclinic
_cell_length_a                    6.942608
_cell_length_b                    20.314714
_cell_length_c                    24.46785
_cell_angle_alpha                 89.884707
_cell_angle_beta                  90.9271
_cell_angle_gamma                 89.083861
_cell_volume                      3449.97278454

loop_
_atom_site_label
_atom_site_type_symbol
_atom_type_description
_atom_site_fract_x
_atom_site_fract_y
_atom_site_fract_z
_atom_type_partial_charge
O1    O     O_R   0.507320 0.423560 0.460500 -0.544102
O2    O     O_R   0.170760 0.556250 0.437010 -0.540019
O3    O     O_R   0.004030 0.576440 0.539500 -0.538021
C1    C     C_R   0.337435 0.576584 0.421147 0.711258
O4    O     O_R   0.177370 0.422820 0.454110 -0.525047
O5    O     O_R   0.010680 0.442050 0.556720 -0.527895
C2    C     C_R   0.346296 0.398954 0.442918 0.746929
O6    O     O_R   0.500680 0.557950 0.443280 -0.532555
O7    O     O_3   0.340380 0.506470 0.533650 -0.368088
V1    V     V_3+5 0.064130 0.498800 0.493760 1.457262
O8    O     O_R   0.681160 0.443750 0.562990 -0.541012
C3    C     C_R   0.851747 0.423303 0.578461 0.731136
O9    O     O_R   0.674560 0.577180 0.545890 -0.538384
C4    C     C_R   0.842332 0.601344 0.556588 0.718602
V2    V     V_3+5 0.564560 0.501200 0.506240 1.432825
O10   O     O_3   0.838180 0.493530 0.466350 -0.367440
C5    C     C_R   0.973865 0.837474 0.910596 -0.241634
C6    C     C_R   0.842997 0.662768 0.588630 -0.135149
C7    C     C_R   0.989692 0.718658 0.907488 -0.183145
C8    C     C_R   0.010201 0.776997 0.936546 0.337738
C9    C     C_R   0.937811 0.839410 0.853588 0.319397
C10   C     C_R   0.908965 0.779462 0.823415 -0.054974
C11   C     C_R   0.941691 0.718924 0.851435 -0.138506
C12   C     C_R   0.852945 0.777281 0.766592 -0.055771
C13   C     C_R   0.860855 0.716610 0.737052 -0.100409
C14   C     C_R   0.877264 0.657257 0.767843 0.310730
C15   C     C_R   0.924992 0.658706 0.823637 0.351403
C16   C     C_R   0.770907 0.832449 0.739687 -0.138910
C17   C     C_R   0.722665 0.831813 0.684371 0.303678
C18   C     C_R   0.770132 0.776362 0.652042 -0.066706
C19   C     C_R   0.837801 0.717499 0.678425 0.029277
C20   C     C_R   0.752685 0.778238 0.594052 0.405037
C21   C     C_R   0.778835 0.720809 0.563655 -0.238059
C22   C     C_R   0.882741 0.662164 0.644968 -0.181114
H1    H     H_    0.949250 0.617919 0.661288 0.174386
H2    H     H_    0.750683 0.721902 0.519948 0.131552
H3    H     H_    0.012852 0.672817 0.929433 0.181903
H4    H     H_    0.724845 0.875460 0.761931 0.201854
C23   C     C_3   0.845779 0.306859 0.765953 0.396048
C24   C     C_3   0.034245 0.273923 0.786590 0.212459
C25   C     C_1   0.959183 0.122005 0.875777 -0.181659
C26   C     C_1   0.866586 0.376960 0.623349 -0.179328
C27   C     C_3   0.737564 0.240809 0.771056 -0.297925
C28   C     C_3   0.929655 0.207670 0.791806 0.020598
C29   C     C_3   0.792361 0.223966 0.710811 -0.263704
C30   C     C_3   0.899239 0.290476 0.706551 0.003770
C31   C     C_3   0.982408 0.191638 0.732406 0.307801
C32   C     C_3   0.087024 0.257311 0.727639 0.223137
C33   C     C_1   0.946863 0.160592 0.837921 0.068867
C34   C     C_1   0.881191 0.337803 0.660694 0.077335
H5    H     H_    0.695818 0.202527 0.679201 0.152439
H6    H     H_    0.594619 0.234154 0.789764 0.166228
C35   C     C_3   0.582741 0.741799 0.232211 -0.299686
C36   C     C_3   0.427093 0.687831 0.233187 0.398277
H7    H     H_    0.736423 0.735114 0.221903 0.149092
C37   C     C_1   0.341830 0.622453 0.375376 -0.174362
C38   C     C_1   0.478663 0.877349 0.124600 -0.211296
C39   C     C_3   0.515849 0.762718 0.289449 0.379468
C40   C     C_3   0.366378 0.707999 0.290919 -0.000164
C41   C     C_3   0.365860 0.811935 0.265155 -0.213362
C42   C     C_3   0.429143 0.790288 0.207076 -0.028607
C43   C     C_3   0.212207 0.756120 0.266232 -0.316581
C44   C     C_3   0.275625 0.735744 0.208172 0.402956
C45   C     C_1   0.349169 0.661078 0.337351 0.049657
C46   C     C_1   0.461747 0.838123 0.161955 -0.013756
H8    H     H_    0.061019 0.762047 0.279702 0.181909
H9    H     H_    0.344388 0.863374 0.279311 0.158274
C47   C     C_R   0.466472 0.163373 0.088670 -0.293561
C48   C     C_R   0.349825 0.337110 0.411031 -0.177395
C49   C     C_R   0.454046 0.283502 0.089927 0.290944
C50   C     C_R   0.477449 0.223720 0.061120 0.246961
C51   C     C_R   0.443155 0.162354 0.145877 0.301530
C52   C     C_R   0.401557 0.222003 0.175035 -0.074190
C53   C     C_R   0.421781 0.282355 0.146748 -0.058524
C54   C     C_R   0.347356 0.223990 0.231681 -0.151908
C55   C     C_R   0.365111 0.283972 0.262093 -0.078999
C56   C     C_R   0.379227 0.343485 0.231600 0.391326
C57   C     C_R   0.406841 0.341711 0.175345 -0.181191
C58   C     C_R   0.262206 0.169523 0.258056 0.410364
C59   C     C_R   0.250458 0.167145 0.314833 0.316325
C60   C     C_R   0.290536 0.223480 0.346617 -0.102469
C61   C     C_R   0.350528 0.282448 0.320818 0.055042
C62   C     C_R   0.255991 0.223341 0.403336 -0.205379
C63   C     C_R   0.283839 0.279368 0.435130 0.420111
C64   C     C_R   0.392459 0.337391 0.355104 -0.220642
H10   H     H_    0.416878 0.388378 0.154135 0.184768
H11   H     H_    0.457662 0.381305 0.339882 0.185438
H12   H     H_    0.198080 0.180880 0.423660 0.143507
O11   O     O_R   0.323550 0.942140 0.056770 -0.537692
O12   O     O_R   0.647080 0.077200 0.045890 -0.556197
O13   O     O_R   0.813610 0.057920 0.943260 -0.534253
C65   C     C_R   0.477769 0.101283 0.056946 0.848496
O14   O     O_R   0.653470 0.943760 0.063000 -0.538820
O15   O     O_R   0.820050 0.923540 0.960490 -0.535991
C66   C     C_R   0.486395 0.923621 0.079048 0.717731
O16   O     O_R   0.317110 0.076520 0.039540 -0.532491
O17   O     O_3   0.483830 0.993580 0.966380 -0.371152
V3    V     V_3+5 0.760140 0.001190 0.006240 1.438584
O18   O     O_R   0.149510 0.922740 0.954070 -0.555825
C67   C     C_R   0.981323 0.898788 0.943119 0.806377
O19   O     O_R   0.143120 0.056170 0.936970 -0.533250
C68   C     C_R   0.972695 0.076363 0.921263 0.733714
V4    V     V_3+5 0.259690 0.998700 0.993700 1.449208
O20   O     O_3   0.986130 0.006420 0.033620 -0.373375
O21   O     O_3   0.940783 0.599882 0.852101 -0.548246
C69   C     C_3   0.133324 0.576656 0.849788 0.093397
H13   H     H_    0.238499 0.616104 0.859546 0.097331
H14   H     H_    0.163856 0.556607 0.808460 0.149056
C70   C     C_3   0.163215 0.522056 0.891830 -0.705565
H15   H     H_    0.077782 0.478386 0.880213 0.227659
H16   H     H_    0.317616 0.507655 0.894259 0.182055
H17   H     H_    0.118253 0.539539 0.932747 0.226369
O22   O     O_3   0.704967 0.835614 0.566226 -0.555114
C71   C     C_3   0.876928 0.866736 0.551455 0.129341
H18   H     H_    0.960155 0.835618 0.522414 0.113681
H19   H     H_    0.968598 0.877218 0.588166 0.131997
C72   C     C_3   0.827164 0.931848 0.523460 -0.665132
H20   H     H_    0.746145 0.964347 0.551747 0.234892
H21   H     H_    0.961395 0.956747 0.511500 0.174371
H22   H     H_    0.737556 0.923120 0.486238 0.220652
O23   O     O_3   0.160977 0.299377 0.825887 -0.645651
H23   H     H_    0.203913 0.341886 0.810726 0.307693
O24   O     O_3   0.776318 0.370348 0.779164 -0.548698
C73   C     C_3   0.724556 0.372189 0.834452 0.086389
H24   H     H_    0.852109 0.362035 0.861417 0.153796
H25   H     H_    0.609126 0.336321 0.842768 0.148103
C74   C     C_3   0.646932 0.440480 0.847782 -0.716501
H26   H     H_    0.512281 0.450533 0.823870 0.219219
H27   H     H_    0.616062 0.443558 0.892087 0.182427
H28   H     H_    0.754528 0.478151 0.837463 0.268967
O25   O     O_3   0.268341 0.266351 0.705147 -0.643167
H29   H     H_    0.347953 0.228283 0.717876 0.305175
O26   O     O_3   0.056323 0.130836 0.715248 -0.638387
H30   H     H_    0.075728 0.135643 0.675403 0.291958
O27   O     O_3   0.445147 0.620632 0.219354 -0.547099
C75   C     C_3   0.544837 0.613635 0.170024 0.100430
H31   H     H_    0.700375 0.623437 0.177061 0.136741
H32   H     H_    0.485038 0.647091 0.137587 0.134735
C76   C     C_3   0.526178 0.543116 0.150078 -0.657556
H33   H     H_    0.372015 0.531586 0.142803 0.227784
H34   H     H_    0.605088 0.536686 0.111286 0.177804
H35   H     H_    0.587747 0.508402 0.181116 0.233233
O28   O     O_3   0.150279 0.715121 0.165596 -0.556638
C77   C     C_3   0.044948 0.769483 0.143968 0.091914
H36   H     H_    0.978956 0.800128 0.176628 0.122417
H37   H     H_    0.139507 0.800418 0.118955 0.145310
C78   C     C_3   0.885340 0.745276 0.105977 -0.656238
H38   H     H_    0.818047 0.787597 0.083623 0.196036
H39   H     H_    0.944148 0.709626 0.076037 0.253765
H40   H     H_    0.772522 0.720654 0.129384 0.177193
O29   O     O_3   0.643015 0.777422 0.332440 -0.638291
H41   H     H_    0.560381 0.790602 0.363346 0.288655
O30   O     O_3   0.232887 0.278675 0.489482 -0.559030
C79   C     C_3   0.397789 0.261824 0.521312 0.027161
H42   H     H_    0.520939 0.294543 0.512370 0.120412
H43   H     H_    0.441773 0.209685 0.513853 0.127634
C80   C     C_3   0.350857 0.269556 0.581402 -0.599713
H44   H     H_    0.231447 0.236489 0.592319 0.223490
H45   H     H_    0.479891 0.256693 0.606846 0.180271
H46   H     H_    0.307183 0.321322 0.589961 0.233760
O31   O     O_3   0.186347 0.109457 0.337609 -0.616933
H47   H     H_    0.266394 0.099946 0.370635 0.281085
O32   O     O_3   0.460821 0.343839 0.063599 -0.652633
H48   H     H_    0.465311 0.337463 0.023565 0.327355
O33   O     O_3   0.509202 0.224322 0.005475 -0.554360
C81   C     C_3   0.709056 0.230367 0.996640 0.095535
H49   H     H_    0.780529 0.181131 0.998653 0.135349
H50   H     H_    0.781748 0.263438 0.026705 0.121718
C82   C     C_3   0.737856 0.259228 0.940211 -0.719986
H51   H     H_    0.674848 0.309747 0.938744 0.208738
H52   H     H_    0.894052 0.261546 0.931439 0.201087
H53   H     H_    0.665637 0.228486 0.908757 0.232206
O34   O     O_3   0.469153 0.102841 0.172766 -0.534709
C83   C     C_3   0.661051 0.098474 0.192593 0.121190
H54   H     H_    0.690391 0.137789 0.223159 0.128870
H55   H     H_    0.765126 0.102333 0.158559 0.104667
C84   C     C_3   0.693242 0.032100 0.220383 -0.622432
H56   H     H_    0.668421 0.991776 0.190628 0.205477
H57   H     H_    0.843522 0.028118 0.236425 0.212143
H58   H     H_    0.592476 0.026905 0.254876 0.231364
O35   O     O_3   0.353710 0.404855 0.254823 -0.566955
C85   C     C_3   0.155388 0.421563 0.253277 0.066975
H59   H     H_    0.068474 0.383364 0.273873 0.129727
H60   H     H_    0.103085 0.427778 0.210265 0.130536
C86   C     C_3   0.124304 0.486390 0.283129 -0.653322
H61   H     H_    0.207102 0.525896 0.263280 0.261852
H62   H     H_    0.968928 0.500285 0.281963 0.183413
H63   H     H_    0.172875 0.481378 0.326440 0.201671
O36   O     O_3   0.169166 0.120384 0.229642 -0.596820
H64   H     H_    0.118642 0.139196 0.194746 0.283921
O37   O     O_3   0.625009 0.886260 0.663879 -0.630847
H65   H     H_    0.517131 0.870093 0.640814 0.319773
O38   O     O_3   0.064301 0.774459 0.991119 -0.571560
C87   C     C_3   0.267953 0.776269 0.996115 0.114051
H66   H     H_    0.304441 0.810406 0.029815 0.133238
H67   H     H_    0.342194 0.795108 0.959153 0.102551
C88   C     C_3   0.350008 0.708469 0.011142 -0.753980
H68   H     H_    0.324537 0.673266 0.977271 0.214264
H69   H     H_    0.507720 0.711765 0.018757 0.191833
H70   H     H_    0.281847 0.689941 0.048772 0.243579
O39   O     O_3   0.943742 0.900101 0.828040 -0.568647
C89   C     C_3   0.130976 0.908905 0.807703 0.034486
H71   H     H_    0.171162 0.869040 0.778600 0.134992
H72   H     H_    0.239322 0.909982 0.841764 0.126720
C90   C     C_3   0.137124 0.974153 0.777278 -0.596758
H73   H     H_    0.101947 0.015263 0.805392 0.223297
H74   H     H_    0.283533 0.981501 0.760926 0.189467
H75   H     H_    0.031306 0.974364 0.742733 0.238874
O40   O     O_3   0.834191 0.596781 0.745303 -0.553782
C91   C     C_3   0.632580 0.588305 0.746209 0.094169
H76   H     H_    0.552254 0.631537 0.728547 0.112525
H77   H     H_    0.584949 0.580220 0.788895 0.134412
C92   C     C_3   0.580929 0.528332 0.712176 -0.679664
H78   H     H_    0.661115 0.484235 0.727610 0.268466
H79   H     H_    0.423912 0.519351 0.714559 0.175902
H80   H     H_    0.618709 0.536681 0.668793 0.210626

loop_
_geom_bond_atom_site_label_1
_geom_bond_atom_site_label_2
_ccdc_geom_bond_type
C28   C33   S    
C13   C19   A    
C87   H67   S    
O19   C68   A    
C82   H52   S    
C52   C53   A    
C4    C6    S    
O18   V4    S    
C7    C8    A    
C1    O6    A    
C49   O32   S    
C21   H2    S    
O31   H47   S    
C86   H61   S    
O27   C75   S    
O15   V3    S    
O34   C83   S    
C24   O23   S    
C40   C45   S    
O33   C81   S    
C89   H72   S    
C62   C63   A    
C90   H75   S    
C9    C10   A    
C16   C17   A    
C78   H39   S    
C70   H16   S    
O5    C3    A    
C18   C19   A    
C76   H35   S    
C27   H6    S    
C86   H62   S    
C87   C88   S    
C69   H13   S    
C29   H5    S    
C39   C41   S    
V2    O10   S    
O35   C85   S    
C65   O16   A    
C5    C8    A    
C23   O24   S    
C25   C68   S    
C41   C43   S    
C22   H1    S    
C82   H51   S    
C88   H69   S    
C85   H59   S    
C3    C26   S    
C7    H3    S    
C83   H54   S    
O32   H48   S    
C35   C42   S    
C80   H44   S    
C78   H38   S    
C41   H9    S    
C84   H57   S    
C89   C90   S    
C49   C53   A    
C56   O35   S    
O29   H41   S    
C17   O37   S    
C32   O25   S    
C49   C50   A    
O1    V2    S    
C36   O27   S    
C11   C15   A    
C20   O22   S    
O7    V1    S    
C79   H43   S    
O38   C87   S    
C28   C31   S    
C56   C57   A    
C57   H10   S    
C35   H7    S    
C87   H66   S    
O14   C66   A    
O9    C4    A    
C1    C37   S    
C81   H50   S    
C52   C54   A    
O36   H64   S    
O8    V2    S    
C77   C78   S    
C25   C33   T    
C60   C62   A    
O17   V3    S    
C85   H60   S    
C36   C40   S    
C29   C31   S    
C76   H33   S    
C30   C32   S    
C89   H71   S    
C43   H8    S    
C64   H11   S    
O37   H65   S    
C31   C32   S    
C9    O39   S    
O24   C73   S    
C78   H40   S    
C12   C13   A    
C79   C80   S    
C77   H37   S    
C72   H22   S    
C55   C61   A    
C23   C24   S    
O4    C2    A    
C59   C60   A    
C86   H63   S    
C23   C27   S    
C39   C40   S    
C92   H78   S    
C60   C61   A    
C41   C42   S    
C85   C86   S    
C75   C76   S    
O11   C66   A    
C88   H70   S    
C7    C11   A    
C54   C55   A    
C74   H27   S    
C91   C92   S    
O5    V1    S    
C17   C18   A    
C42   C46   S    
C27   C29   S    
C63   O30   S    
O12   C65   A    
O18   C67   A    
C16   H4    S    
C47   C51   A    
C84   H58   S    
C43   C44   S    
C42   C44   S    
O40   C91   S    
C79   H42   S    
C19   C22   A    
C51   O34   S    
C55   C56   A    
C6    C22   A    
C83   C84   S    
O23   H23   S    
O17   V4    S    
O3    C4    A    
C26   C34   T    
C23   C30   S    
C75   H32   S    
C91   H76   S    
C80   H46   S    
C91   H77   S    
O9    V2    S    
C27   C28   S    
C14   C15   A    
O26   H30   S    
C82   H53   S    
C10   C12   A    
C70   H17   S    
O13   C68   A    
O25   H29   S    
O2    V1    S    
C8    O38   S    
C48   C64   A    
C39   O29   S    
C73   H25   S    
O22   C71   S    
O19   V4    S    
C92   H80   S    
C38   C66   S    
C24   C32   S    
C90   H73   S    
C40   C43   S    
C44   O28   S    
O1    C2    A    
C58   O36   S    
C12   C16   A    
C38   C46   T    
C51   C52   A    
O13   V3    S    
C5    C67   S    
C2    C48   S    
C71   H19   S    
C35   C39   S    
C35   C36   S    
O6    V2    S    
C61   C64   A    
O21   C69   S    
C30   C34   S    
O39   C89   S    
C77   H36   S    
C20   C21   A    
C72   H21   S    
O28   C77   S    
C13   C14   A    
C92   H79   S    
O4    V1    S    
O3    V1    S    
V1    O10   S    
C70   H15   S    
C18   C20   A    
C76   H34   S    
C37   C45   T    
C81   H49   S    
C69   H14   S    
C47   C50   A    
V3    O20   S    
O2    C1    A    
C53   C57   A    
C47   C65   S    
C62   H12   S    
C14   O40   S    
C50   O33   S    
C71   H18   S    
O15   C67   A    
O7    V2    S    
C88   H68   S    
C6    C21   A    
C83   H55   S    
C59   O31   S    
C74   H28   S    
C71   C72   S    
C31   O26   S    
C58   C59   A    
C29   C30   S    
C24   C28   S    
C81   C82   S    
C80   H45   S    
C84   H56   S    
C36   C44   S    
O16   V4    S    
C73   C74   S    
V4    O20   S    
C48   C63   A    
C15   O21   S    
C10   C11   A    
C75   H31   S    
O30   C79   S    
C72   H20   S    
C90   H74   S    
C54   C58   A    
O14   V3    S    
O12   V3    S    
O11   V4    S    
C74   H26   S    
O8    C3    A    
C73   H24   S    
C69   C70   S    
C5    C9    A    
