data_mof_unit_12588.cif
_audit_creation_date              2013-03-05T15:52:18-0500
_audit_creation_method            fapswitch 2.2
_symmetry_space_group_name_H-M    P1
_symmetry_Int_Tables_number       1
_space_group_crystal_system       triclinic
_cell_length_a                    21.50342
_cell_length_b                    7.256553
_cell_length_c                    14.93053
_cell_angle_alpha                 89.998943
_cell_angle_beta                  73.548064
_cell_angle_gamma                 90.002198
_cell_volume                      2234.38417766

loop_
_atom_site_label
_atom_site_type_symbol
_atom_site_description
_atom_site_fract_x
_atom_site_fract_y
_atom_site_fract_z
_atom_type_partial_charge
O1    O     O_R   0.464160 0.506670 0.130070 -0.599668
O2    O     O_R   0.535840 0.006670 0.869930 -0.599634
O3    O     O_R   0.589710 0.179080 0.006710 -0.573263
O4    O     O_R   0.410290 0.679080 0.993290 -0.573691
C1    C     C_R   0.616604 0.344704 0.999736 0.942476
C2    C     C_R   0.383395 0.844691 0.000274 0.942618
O5    O     O_R   0.467940 0.177220 0.138010 -0.576988
O6    O     O_R   0.532060 0.677220 0.861990 -0.577140
O7    O     O_R   0.413200 0.002810 0.002170 -0.566002
O8    O     O_R   0.586800 0.502810 0.997830 -0.566012
C3    C     C_R   0.456857 0.346588 0.174295 1.008781
C4    C     C_R   0.543150 0.846590 0.825707 1.008459
O9    O     O_3   0.482180 0.337850 0.955280 -0.269043
O10   O     O_3   0.517820 0.837850 0.044720 -0.268688
V1    V     V_3+5 0.503310 0.064600 0.008300 1.281302
V2    V     V_3+5 0.496690 0.564600 0.991700 1.281007
C5    C     C_R   0.570062 0.867124 0.724592 -0.130094
C6    C     C_R   0.429964 0.367126 0.275414 -0.130177
C7    C     C_R   0.928796 0.858065 0.276712 -0.250762
C8    C     C_R   0.071212 0.358036 0.723290 -0.250803
C9    C     C_R   0.575105 0.072756 0.595450 -0.158094
C10   C     C_R   0.424895 0.572928 0.404500 -0.158052
C11   C     C_R   0.540159 0.992637 0.678928 -0.094072
C12   C     C_R   0.459848 0.492775 0.321038 -0.094170
C13   C     C_R   0.633451 0.807802 0.681462 -0.226013
C14   C     C_R   0.366597 0.307659 0.318589 -0.225802
C15   C     C_R   0.670247 0.887289 0.596015 0.091950
C16   C     C_R   0.329801 0.387135 0.404037 0.091870
C17   C     C_R   0.640557 0.028392 0.556474 0.147443
C18   C     C_R   0.359457 0.528421 0.443512 0.147517
C19   C     C_R   0.736368 0.839788 0.551215 0.057114
C20   C     C_R   0.263701 0.339473 0.448882 0.056988
C21   C     C_R   0.771488 0.937092 0.469047 0.072608
C22   C     C_R   0.228550 0.436894 0.530989 0.072725
C23   C     C_R   0.742757 0.096277 0.444064 -0.099663
C24   C     C_R   0.257242 0.596226 0.555901 -0.099729
C25   C     C_R   0.677593 0.134385 0.482968 -0.177526
C26   C     C_R   0.322398 0.634454 0.516978 -0.177587
C27   C     C_R   0.768771 0.700424 0.586194 -0.156286
C28   C     C_R   0.231354 0.199813 0.414011 -0.155965
C29   C     C_R   0.833364 0.660012 0.543500 -0.198156
C30   C     C_R   0.166762 0.159344 0.456694 -0.197981
C31   C     C_R   0.866317 0.742781 0.459153 0.154064
C32   C     C_R   0.133761 0.242351 0.540948 0.153925
C33   C     C_R   0.834870 0.875438 0.416956 -0.056079
C34   C     C_R   0.165172 0.375208 0.583088 -0.056068
C35   C     C_R   0.929628 0.685358 0.414628 -0.155882
C36   C     C_R   0.070442 0.184963 0.585456 -0.155778
C37   C     C_R   0.960511 0.742759 0.324480 -0.202435
C38   C     C_R   0.039519 0.242590 0.675547 -0.202435
C39   C     C_R   0.866708 0.929313 0.322496 0.300280
C40   C     C_R   0.133309 0.429246 0.677510 0.300150
H1    H     H_    0.656656 0.252560 0.457728 0.168483
H2    H     H_    0.343303 0.752754 0.542160 0.168396
H3    H     H_    0.007982 0.687305 0.289443 0.130908
H4    H     H_    0.992044 0.187151 0.710584 0.130900
H5    H     H_    0.856759 0.555060 0.574344 0.133293
H6    H     H_    0.143406 0.054177 0.425923 0.133372
H7    H     H_    0.552107 0.178563 0.564592 0.146530
H8    H     H_    0.447869 0.678867 0.435309 0.146527
H9    H     H_    0.491394 0.040972 0.712272 0.170706
H10   H     H_    0.508598 0.541209 0.287665 0.170550
H11   H     H_    0.654428 0.713974 0.720687 0.166240
H12   H     H_    0.345622 0.213765 0.279390 0.166440
H13   H     H_    0.770133 0.196450 0.395533 0.184094
H14   H     H_    0.229840 0.696415 0.604393 0.184007
H15   H     H_    0.954155 0.587563 0.447830 0.124179
H16   H     H_    0.045940 0.087020 0.552295 0.124168
C41   C     C_3   0.230761 0.775878 0.909650 -0.323343
C42   C     C_3   0.769248 0.275514 0.090294 -0.323678
H17   H     H_    0.227927 0.851933 0.846708 0.247392
H18   H     H_    0.772036 0.351396 0.153303 0.247611
C43   C     C_3   0.302202 0.756197 0.913023 0.165616
C44   C     C_3   0.697825 0.255712 0.086855 0.165653
H19   H     H_    0.310494 0.605988 0.920999 0.153845
H20   H     H_    0.689608 0.105537 0.078632 0.154215
H21   H     H_    0.283263 0.603822 0.085008 0.222716
H22   H     H_    0.716751 0.104473 0.914505 0.222811
C45   C     C_3   0.195726 0.755348 0.085239 -0.427242
C46   C     C_3   0.804282 0.255657 0.914699 -0.427329
C47   C     C_3   0.214367 0.066714 0.009223 0.107482
C48   C     C_3   0.785592 0.566741 0.991031 0.107534
C49   C     C_3   0.187646 0.867775 0.000203 -0.162045
C50   C     C_3   0.812348 0.367761 0.999835 -0.162034
H23   H     H_    0.185882 0.119015 0.078941 0.131099
H24   H     H_    0.814026 0.619277 0.921333 0.131165
C51   C     C_3   0.312224 0.855171 0.001399 -0.260448
C52   C     C_3   0.687772 0.355213 0.998627 -0.260221
C53   C     C_3   0.267875 0.749692 0.086670 -0.357200
C54   C     C_3   0.732149 0.250291 0.913180 -0.357784
C55   C     C_3   0.287362 0.060333 0.005723 0.162508
C56   C     C_3   0.712579 0.560395 0.994649 0.162282
H25   H     H_    0.316164 0.129846 0.941071 0.161690
H26   H     H_    0.683801 0.629386 0.059473 0.161800
H27   H     H_    0.165554 0.817329 0.151489 0.160571
H28   H     H_    0.834508 0.317730 0.848508 0.160362
H29   H     H_    0.272766 0.804624 0.153596 0.209222
H30   H     H_    0.727306 0.305863 0.846347 0.209173
O11   O     O_R   0.913210 0.208550 0.002110 -0.558465
O12   O     O_R   0.086790 0.708550 0.997890 -0.558372
O13   O     O_R   0.032060 0.539960 0.861980 -0.566101
O14   O     O_R   0.967940 0.039960 0.138020 -0.566096
C57   C     C_R   0.044185 0.372232 0.825366 0.999106
C58   C     C_R   0.955815 0.872231 0.174634 0.999234
O15   O     O_R   0.910290 0.538020 0.993280 -0.573488
O16   O     O_R   0.089710 0.038020 0.006720 -0.573441
O17   O     O_R   0.964160 0.712340 0.130090 -0.581737
O18   O     O_R   0.035840 0.212340 0.869910 -0.581794
C59   C     C_R   0.883806 0.370790 0.998865 0.932410
C60   C     C_R   0.116192 0.870795 0.001155 0.932200
O19   O     O_3   0.017820 0.379210 0.044690 -0.271453
O20   O     O_3   0.982180 0.879210 0.955310 -0.271525
V3    V     V_3+5 0.996690 0.652500 0.991710 1.288757
V4    V     V_3+5 0.003310 0.152500 0.008290 1.288766
H31   H     H_    0.211568 0.637096 0.902320 0.247327
H32   H     H_    0.788480 0.136766 0.097543 0.247355
N1    N     N_R   0.348917 0.814667 0.825228 0.226866
O21   O     O_R   0.391556 0.697549 0.778055 -0.395369
O22   O     O_R   0.346986 0.978731 0.791138 -0.376465
N2    N     N_R   0.651075 0.313600 0.174730 0.226837
O23   O     O_R   0.608434 0.196211 0.221659 -0.395039
O24   O     O_R   0.653008 0.477360 0.209161 -0.376733
H33   H     H_    0.177972 0.612102 0.082685 0.225484
H34   H     H_    0.821977 0.112325 0.917209 0.225263
N3    N     N_R   0.204092 0.197251 0.939508 0.235080
O25   O     O_R   0.166909 0.339740 0.966809 -0.406462
O26   O     O_R   0.233738 0.178324 0.851202 -0.326535
N4    N     N_R   0.795908 0.697002 0.060829 0.235117
O27   O     O_R   0.833106 0.839505 0.033611 -0.406224
O28   O     O_R   0.766298 0.677790 0.149132 -0.326656
N5    N     N_R   0.833485 0.030226 0.267453 0.211175
O29   O     O_R   0.779730 0.967194 0.255751 -0.338805
O30   O     O_R   0.854505 0.191725 0.234590 -0.437118
N6    N     N_R   0.166526 0.530223 0.732540 0.211165
O31   O     O_R   0.220283 0.467238 0.744253 -0.338890
O32   O     O_R   0.145500 0.691723 0.765382 -0.437177
N7    N     N_R   0.298170 0.164667 0.084684 0.222281
O33   O     O_R   0.338471 0.302521 0.068495 -0.421353
O34   O     O_R   0.264067 0.132791 0.170250 -0.485882
N8    N     N_R   0.701672 0.665425 0.915961 0.222367
O35   O     O_R   0.661387 0.803315 0.932527 -0.420842
O36   O     O_R   0.735684 0.634164 0.830287 -0.486040
H35   H     H_    0.745664 0.619656 0.646910 0.168719
H36   H     H_    0.254509 0.118838 0.353398 0.168794

loop_
_geom_bond_atom_site_label_1
_geom_bond_atom_site_label_2
_geom_bond_distance
_ccdc_geom_bond_type
C3    C6    1.463384 S    
O12   C60   1.343738 A    
C51   C55   1.577003 S    
C15   C17   1.420585 A    
C21   C33   1.436074 A    
O1    C3    1.323373 A    
C46   C50   1.559649 S    
O2    C4    1.323370 A    
N4    O27   1.300032 A    
C30   H6    1.084608 S    
O11   V4    2.007238 S    
C48   C56   1.556281 S    
C27   C29   1.385678 A    
C8    C57   1.472885 S    
H22   C54   1.107215 S    
O5    C3    1.337057 A    
N7    O34   1.301051 A    
H21   C53   1.107219 S    
C5    C11   1.398634 A    
C44   H20   1.116306 S    
O16   V4    2.029260 S    
C41   C49   1.556352 S    
C10   C12   1.387657 A    
O15   V3    2.029201 S    
C23   C25   1.384333 A    
N8    O36   1.301042 A    
C9    H7    1.084169 S    
N1    O22   1.300050 A    
C10   H8    1.084138 S    
C24   H14   1.076274 S    
C33   C39   1.436533 A    
O11   C59   1.343722 A    
C34   C40   1.436518 A    
O13   V3    2.040289 S    
C18   C26   1.391114 A    
C13   H11   1.076888 S    
O18   V4    2.031727 S    
C41   H17   1.106291 S    
C14   H12   1.076902 S    
O17   V3    2.031755 S    
C8    C38   1.396244 A    
O16   C60   1.333022 A    
C55   N7    1.473876 S    
C1    C52   1.527656 S    
C43   C51   1.569844 S    
C52   C56   1.576998 S    
C32   C34   1.422044 A    
C16   C18   1.420571 A    
C6    C14   1.400301 A    
C4    C5    1.463349 S    
C42   C44   1.557802 S    
C19   C21   1.431475 A    
C41   C43   1.557813 S    
C57   O18   1.324043 A    
C22   C34   1.436055 A    
C46   H28   1.112727 S    
C42   C50   1.556308 S    
C25   H1    1.084525 S    
C36   C38   1.385558 A    
O6    V2    2.040219 S    
C29   C31   1.394018 A    
C30   C32   1.394021 A    
C2    O7    1.318453 A    
C35   H15   1.084256 S    
O20   V3    1.787521 S    
C47   C49   1.573561 S    
N2    O24   1.300094 A    
C43   N1    1.470192 S    
C15   C19   1.431481 A    
C16   C20   1.431468 A    
N8    O35   1.300588 A    
C35   C37   1.385560 A    
C39   N5    1.433374 S    
N6    O32   1.301065 A    
N5    O30   1.301063 A    
C48   H24   1.114301 S    
C9    C17   1.399761 A    
C38   H4    1.084042 S    
C2    C51   1.527646 S    
C53   H29   1.108140 S    
C20   C22   1.431485 A    
O4    V2    2.029184 S    
C45   H27   1.112736 S    
O14   V4    2.040237 S    
C55   H25   1.109567 S    
C7    C58   1.472880 S    
C7    C37   1.396209 A    
C26   H2    1.084487 S    
O6    C4    1.337036 A    
C56   H26   1.109553 S    
C49   C60   1.532712 S    
O1    V2    2.028670 S    
C36   H16   1.084253 S    
O14   C58   1.329460 A    
O2    V1    2.028700 S    
C31   C33   1.422045 A    
C48   N4    1.469578 S    
O4    C2    1.324949 A    
C52   C54   1.558339 S    
C48   C50   1.573556 S    
C9    C11   1.387648 A    
N3    O25   1.300022 A    
C6    C12   1.398657 A    
C43   H19   1.116295 S    
C17   C25   1.391095 A    
N5    O29   1.300101 A    
C56   N8    1.473847 S    
O3    V1    2.029123 S    
N2    O23   1.301291 A    
C46   H34   1.111796 S    
O15   C59   1.333021 A    
C41   H31   1.105481 S    
C12   H10   1.083891 S    
C10   C18   1.399763 A    
C47   N3    1.469617 S    
O12   V3    2.007209 S    
C27   H35   1.075633 S    
C28   C30   1.385687 A    
O3    C1    1.324984 A    
N4    O28   1.299064 A    
C42   H18   1.106253 S    
N6    O31   1.300096 A    
C13   C15   1.419347 A    
C44   N2    1.470181 S    
N7    O33   1.300535 A    
C14   C16   1.419364 A    
C50   C59   1.532696 S    
C5    C13   1.400290 A    
C28   H36   1.075641 S    
O7    V1    2.016035 S    
C29   H5    1.084638 S    
C1    O8    1.318420 A    
C8    C40   1.414284 A    
C37   H3    1.084047 S    
N1    O21   1.301276 A    
C24   C26   1.384348 A    
C45   C49   1.559701 S    
C45   H33   1.111717 S    
O5    V1    2.040270 S    
C21   C23   1.409168 A    
C19   C27   1.409657 A    
O19   V4    1.787518 S    
C22   C24   1.409169 A    
C20   C28   1.409643 A    
C46   C54   1.558168 S    
C45   C53   1.558168 S    
C47   C55   1.556342 S    
C7    C39   1.414290 A    
C40   N6    1.433393 S    
C11   H9    1.083890 S    
O13   C57   1.329490 A    
O9    V2    1.787891 S    
C42   H32   1.105359 S    
N3    O26   1.299036 A    
C51   C53   1.558327 S    
C23   H13   1.076255 S    
O10   V1    1.787893 S    
O8    V2    2.016063 S    
C44   C52   1.569897 S    
C31   C35   1.398709 A    
C54   H30   1.108158 S    
C58   O17   1.324070 A    
C47   H23   1.114297 S    
C32   C36   1.398694 A    
