data_mof_unit_19952.cif
_audit_creation_date              2013-03-05T16:49:59-0500
_audit_creation_method            fapswitch 2.2
_symmetry_space_group_name_H-M    P1
_symmetry_Int_Tables_number       1
_space_group_crystal_system       triclinic
_cell_length_a                    27.816584
_cell_length_b                    10.843734
_cell_length_c                    26.491918
_cell_angle_alpha                 90.872821
_cell_angle_beta                  89.844055
_cell_angle_gamma                 89.214579
_cell_volume                      7989.19437739

loop_
_atom_site_label
_atom_site_type_symbol
_atom_site_description
_atom_site_fract_x
_atom_site_fract_y
_atom_site_fract_z
_atom_type_partial_charge
O1    O     O_R   0.500000 0.319660 0.542350 -0.580580
O2    O     O_R   0.500000 0.680340 0.457650 -0.573556
O3    O     O_R   0.500000 0.319630 0.457650 -0.575735
O4    O     O_R   0.500000 0.680370 0.542350 -0.585718
C1    C     C_R   0.498907 0.262099 0.499525 0.803685
C2    C     C_R   0.501416 0.737968 0.500407 0.799895
O5    O     O_R   0.430260 0.500030 0.542340 -0.545772
O6    O     O_R   0.569740 0.499970 0.457660 -0.557045
O7    O     O_R   0.430270 0.500010 0.457650 -0.597917
O8    O     O_R   0.569730 0.499990 0.542350 -0.588173
C3    C     C_R   0.407331 0.499726 0.500107 0.868984
C4    C     C_R   0.592655 0.501054 0.499936 0.869012
Cu1   Cu    Cu3+1 0.500000 0.500020 0.550150 0.981508
Cu2   Cu    Cu3+1 0.500000 0.499980 0.449850 0.979387
O9    O     O_2   0.490334 0.710369 0.788731 -0.524798
O10   O     O_2   0.538031 0.301343 0.211797 -0.525174
C5    C     C_R   0.458232 0.697635 0.055558 0.427561
C6    C     C_R   0.515396 0.269611 0.943875 0.428905
H1    H     H_    0.434354 0.600857 0.631756 0.150239
H2    H     H_    0.574237 0.452669 0.368306 0.174872
C7    C     C_R   0.179070 0.403356 0.489282 0.577263
C8    C     C_R   0.820966 0.602629 0.511187 0.573256
O11   O     O_2   0.205132 0.297946 0.484165 -0.506485
O12   O     O_2   0.794914 0.707979 0.516588 -0.513621
N1    N     N_R   0.201852 0.513812 0.494392 -0.438110
N2    N     N_R   0.798174 0.492195 0.505959 -0.437307
C9    C     C_R   0.176362 0.622520 0.497548 0.613994
C10   C     C_R   0.823690 0.383549 0.502504 0.616474
C11   C     C_R   0.280177 0.565645 0.457137 0.547145
C12   C     C_R   0.719978 0.437834 0.542950 0.538751
C13   C     C_R   0.330685 0.558437 0.458996 -0.335721
C14   C     C_R   0.669444 0.443523 0.540967 -0.335601
C15   C     C_R   0.326874 0.456027 0.539905 0.354585
C16   C     C_R   0.672938 0.550547 0.461090 0.349585
C17   C     C_R   0.276842 0.461976 0.537760 -0.214395
C18   C     C_R   0.722982 0.545697 0.463240 -0.211471
C19   C     C_R   0.253433 0.514859 0.496538 0.212771
C20   C     C_R   0.746571 0.490993 0.503960 0.209249
C21   C     C_R   0.101683 0.509417 0.494091 -0.051852
C22   C     C_R   0.898359 0.496646 0.506057 -0.052154
C23   C     C_R   0.128697 0.399132 0.489265 -0.013410
C24   C     C_R   0.871344 0.606892 0.511042 -0.011400
C25   C     C_R   0.104960 0.287659 0.482839 -0.174767
C26   C     C_R   0.895094 0.718356 0.517471 -0.175382
C27   C     C_R   0.125881 0.622333 0.496206 -0.107073
C28   C     C_R   0.874165 0.383746 0.503834 -0.107843
C29   C     C_R   0.354356 0.504381 0.500101 -0.162643
C30   C     C_R   0.645625 0.498478 0.500162 -0.165354
H3    H     H_    0.255768 0.423221 0.567935 0.193467
H4    H     H_    0.743911 0.586795 0.433497 0.195179
H5    H     H_    0.124761 0.202246 0.476020 0.192296
H6    H     H_    0.875303 0.803744 0.524378 0.191903
C31   C     C_R   0.976174 0.386758 0.501233 -0.078523
C32   C     C_R   0.023865 0.619305 0.498825 -0.078661
C33   C     C_R   0.973039 0.614899 0.505262 0.065065
C34   C     C_R   0.027004 0.391163 0.494844 0.065128
C35   C     C_R   0.949421 0.499372 0.503749 0.020903
C36   C     C_R   0.050620 0.506694 0.496350 0.021028
C37   C     C_R   0.950650 0.274407 0.507856 0.404439
C38   C     C_R   0.049384 0.731643 0.492143 0.404147
C39   C     C_R   0.900614 0.273735 0.505360 -0.215174
C40   C     C_R   0.099426 0.732326 0.494587 -0.214728
H7    H     H_    0.432193 0.595755 0.724746 0.164757
H8    H     H_    0.575990 0.456987 0.275988 0.169634
O13   O     O_2   0.800337 0.275850 0.497331 -0.547794
O14   O     O_2   0.199745 0.730246 0.502423 -0.548302
C41   C     C_R   0.055164 0.284315 0.484097 -0.176363
C42   C     C_R   0.944890 0.721729 0.516078 -0.176847
H9    H     H_    0.648571 0.406439 0.571592 0.175528
H10   H     H_    0.351611 0.593306 0.427966 0.167725
H11   H     H_    0.882533 0.186106 0.507803 0.200213
H12   H     H_    0.117505 0.819945 0.492085 0.200635
H13   H     H_    0.039820 0.196731 0.474636 0.206910
H14   H     H_    0.960254 0.809310 0.525509 0.206742
H15   H     H_    0.401178 0.254603 0.291748 0.182328
H16   H     H_    0.585569 0.754146 0.716283 0.192888
C43   C     C_R   0.396452 0.234038 0.372197 0.353724
C44   C     C_R   0.593998 0.758373 0.635685 0.347353
C45   C     C_R   0.417680 0.184124 0.415185 -0.158309
C46   C     C_R   0.576972 0.806611 0.590428 -0.140469
H17   H     H_    0.400687 0.198315 0.451705 0.165778
H18   H     H_    0.594905 0.782237 0.555242 0.164399
C47   C     C_R   0.460757 0.115819 0.411068 0.014607
C48   C     C_R   0.536681 0.885777 0.590579 0.018048
C49   C     C_R   0.481839 0.096080 0.363299 -0.283762
C50   C     C_R   0.514665 0.919284 0.636657 -0.323114
H19   H     H_    0.515363 0.044565 0.360723 0.148084
H20   H     H_    0.484165 0.982022 0.635414 0.140546
C51   C     C_R   0.459871 0.143863 0.319492 0.451651
C52   C     C_R   0.532323 0.873220 0.682956 0.468238
C53   C     C_R   0.417784 0.215159 0.324838 -0.210534
C54   C     C_R   0.571750 0.791366 0.681408 -0.183329
C55   C     C_R   0.485668 0.931890 0.457871 -0.222107
C56   C     C_R   0.516546 0.068584 0.541173 -0.226394
H21   H     H_    0.472565 0.879057 0.425761 0.161932
H22   H     H_    0.529657 0.121836 0.573172 0.160754
C57   C     C_R   0.502729 0.871781 0.500854 -0.080506
C58   C     C_R   0.498720 0.128413 0.498655 -0.080427
C59   C     C_R   0.518577 0.940874 0.543193 0.058846
C60   C     C_R   0.482734 0.059584 0.456380 0.055446
H23   H     H_    0.484821 0.802073 0.875140 0.174124
H24   H     H_    0.559232 0.224203 0.125403 0.174537
H25   H     H_    0.482965 0.802327 0.965067 0.183583
H26   H     H_    0.560345 0.223846 0.035487 0.191967
C61   C     C_R   0.480461 0.595229 0.188186 0.555365
C62   C     C_R   0.505472 0.385251 0.811321 0.569227
O15   O     O_2   0.462564 0.693238 0.214383 -0.577570
O16   O     O_2   0.509839 0.278566 0.784780 -0.572083
N3    N     N_R   0.499927 0.496866 0.213522 -0.448016
N4    N     N_R   0.499927 0.494612 0.786299 -0.447306
C63   C     C_R   0.519450 0.398470 0.186940 0.558584
C64   C     C_R   0.494463 0.603054 0.813239 0.537329
C65   C     C_R   0.542335 0.474423 0.295603 -0.205964
C66   C     C_R   0.462215 0.553263 0.704684 -0.207556
C67   C     C_R   0.541430 0.474012 0.348478 0.090759
C68   C     C_R   0.463238 0.555414 0.651767 0.087530
C69   C     C_R   0.458419 0.523573 0.348904 0.034773
C70   C     C_R   0.536831 0.443379 0.650363 0.071969
C71   C     C_R   0.457456 0.520619 0.296027 -0.222779
C72   C     C_R   0.537747 0.441611 0.703265 -0.220853
C73   C     C_R   0.499903 0.497152 0.268488 0.340402
C74   C     C_R   0.499890 0.496089 0.731305 0.328066
C75   C     C_R   0.499358 0.496167 0.107245 -0.047855
C76   C     C_R   0.499679 0.493029 0.892599 -0.049217
C77   C     C_R   0.479550 0.596054 0.134823 -0.070563
C78   C     C_R   0.506250 0.382994 0.864758 -0.071145
C79   C     C_R   0.457964 0.693398 0.108870 -0.264900
C80   C     C_R   0.512235 0.272459 0.890618 -0.264190
C81   C     C_R   0.519804 0.396842 0.133647 -0.007911
C82   C     C_R   0.493513 0.604074 0.866467 -0.000950
N5    N     N_R   0.500000 0.499970 0.374520 -0.180007
N6    N     N_R   0.500000 0.500030 0.625480 -0.177764
H27   H     H_    0.425457 0.544179 0.369038 0.155232
H28   H     H_    0.565767 0.399265 0.629245 0.135937
H29   H     H_    0.423745 0.536640 0.276725 0.173804
H30   H     H_    0.567804 0.398133 0.722202 0.169382
H31   H     H_    0.439400 0.764757 0.130488 0.178217
H32   H     H_    0.513950 0.187118 0.869111 0.169159
C83   C     C_R   0.487577 0.602951 0.973708 0.086068
C84   C     C_R   0.515933 0.389296 0.026190 0.080021
C85   C     C_R   0.510400 0.382145 0.972482 -0.042974
C86   C     C_R   0.481340 0.600174 0.027271 -0.043039
C87   C     C_R   0.499092 0.492397 0.946427 0.001216
C88   C     C_R   0.498720 0.495229 0.053411 0.001419
C89   C     C_R   0.484834 0.713718 0.946448 -0.146472
C90   C     C_R   0.539855 0.296480 0.053768 -0.145400
C91   C     C_R   0.487518 0.714310 0.894000 -0.181147
C92   C     C_R   0.541003 0.298996 0.106310 -0.190947
O17   O     O_3   0.973138 0.164396 0.519914 -0.596970
C93   C     C_3   0.983366 0.165904 0.572135 0.049530
H33   H     H_    0.949418 0.165575 0.594534 0.149751
H34   H     H_    0.004759 0.248033 0.583338 0.151773
C94   C     C_3   0.012789 0.051457 0.584951 -0.710562
H35   H     H_    0.046261 0.047564 0.561970 0.262917
H36   H     H_    0.022514 0.053985 0.625572 0.194088
H37   H     H_    0.991557 0.967525 0.577228 0.247722
O18   O     O_3   0.026882 0.841645 0.480097 -0.596914
C95   C     C_3   0.016549 0.840044 0.427901 0.049815
H38   H     H_    0.994935 0.758206 0.416834 0.151925
H39   H     H_    0.050448 0.839710 0.405410 0.150030
C96   C     C_3   0.987378 0.954887 0.415056 -0.710165
H40   H     H_    0.008855 0.038490 0.422605 0.247519
H41   H     H_    0.977521 0.952254 0.374471 0.194130
H42   H     H_    0.953985 0.959516 0.438148 0.263166
Cl1   Cl    Cl    0.342425 0.318423 0.377347 -0.609264
Cl2   Cl    Cl    0.643960 0.658019 0.635397 -0.616182
O19   O     O_3   0.479301 0.130363 0.271258 -0.546124
C97   C     C_3   0.499120 0.011141 0.262538 0.120939
H43   H     H_    0.476538 0.937792 0.279205 0.151439
H44   H     H_    0.536110 0.005812 0.278207 0.154039
C98   C     C_3   0.502347 0.986582 0.205882 -0.701744
H45   H     H_    0.524643 0.057600 0.187729 0.257695
H46   H     H_    0.519165 0.894622 0.198459 0.215738
H47   H     H_    0.465832 0.988468 0.189015 0.236932
O20   O     O_3   0.514149 0.904393 0.730745 -0.538386
C99   C     C_3   0.473978 0.985390 0.730396 0.128776
H48   H     H_    0.443818 0.944537 0.708551 0.134081
H49   H     H_    0.484208 0.076098 0.714755 0.168588
C100  C     C_3   0.456436 0.007032 0.784306 -0.669802
H50   H     H_    0.486773 0.035523 0.808750 0.251575
H51   H     H_    0.428294 0.080677 0.785161 0.204486
H52   H     H_    0.440864 0.921306 0.799346 0.245911
Cl3   Cl    Cl    0.352861 0.380106 0.591731 -0.605408
Cl4   Cl    Cl    0.646658 0.630765 0.410563 -0.620625
O21   O     O_3   0.429317 0.783081 0.030498 -0.580496
C101  C     C_3   0.431847 0.903185 0.052064 0.016041
H53   H     H_    0.468807 0.925406 0.065234 0.138696
H54   H     H_    0.406141 0.912642 0.084127 0.165479
C102  C     C_3   0.417101 0.997587 0.012873 -0.701607
H55   H     H_    0.379701 0.980651 0.000228 0.246314
H56   H     H_    0.419000 0.091991 0.029557 0.221684
H57   H     H_    0.441470 0.991636 0.979686 0.256198
O22   O     O_3   0.515740 0.157133 0.968711 -0.601343
C103  C     C_3   0.547096 0.068726 0.945619 0.031309
H58   H     H_    0.579092 0.111488 0.927801 0.152786
H59   H     H_    0.526995 0.014916 0.916724 0.154217
C104  C     C_3   0.565471 0.979259 0.985125 -0.812609
H60   H     H_    0.535098 0.942306 0.007137 0.247720
H61   H     H_    0.585018 0.901227 0.966301 0.217988
H62   H     H_    0.590500 0.026465 0.011375 0.234647
O23   O     O_3   0.744528 0.391942 0.584388 -0.550744
C105  C     C_3   0.727421 0.274727 0.597874 0.088295
H63   H     H_    0.718288 0.216661 0.564186 0.158973
H64   H     H_    0.695316 0.285453 0.622714 0.146360
C106  C     C_3   0.766371 0.207141 0.627165 -0.706808
H65   H     H_    0.775748 0.260835 0.661707 0.246881
H66   H     H_    0.753331 0.115124 0.638344 0.207356
H67   H     H_    0.799043 0.194598 0.603327 0.257794
O24   O     O_3   0.255782 0.610490 0.415423 -0.550175
C107  C     C_3   0.273029 0.727294 0.401562 0.083663
H68   H     H_    0.305262 0.715877 0.376949 0.144652
H69   H     H_    0.282025 0.786133 0.435070 0.159612
C108  C     C_3   0.234273 0.794309 0.371786 -0.701738
H70   H     H_    0.201487 0.807526 0.395399 0.257432
H71   H     H_    0.247427 0.885996 0.360316 0.209073
H72   H     H_    0.225042 0.739842 0.337400 0.246829

loop_
_geom_bond_atom_site_label_1
_geom_bond_atom_site_label_2
_geom_bond_distance
_ccdc_geom_bond_type
C103  H59   1.112092 S    
C98   H45   1.109842 S    
C65   C73   1.404245 A    
O18   C95   1.413001 S    
C102  H57   1.109252 S    
C14   C30   1.405489 A    
O23   C105  1.413911 S    
C3    C29   1.473748 S    
C4    C30   1.473368 S    
C69   H27   1.078508 S    
C96   H42   1.110976 S    
C69   C71   1.401010 A    
C33   C42   1.414552 A    
C31   C37   1.431321 A    
C37   O17   1.381549 S    
C21   C23   1.407613 A    
C32   C38   1.431343 A    
C108  H70   1.110924 S    
C22   C28   1.405641 A    
C98   H46   1.110254 S    
C10   C28   1.404599 A    
C105  H64   1.111637 S    
O1    C1    1.287162 A    
H1    C68   1.081125 S    
C8    O12   1.349968 S    
C17   C19   1.399321 A    
C48   C50   1.404800 A    
C85   C87   1.421511 A    
C32   C36   1.421866 A    
C83   C86   1.429904 A    
C44   C46   1.396697 A    
C97   H44   1.111657 S    
C75   C77   1.402813 A    
C103  C104  1.522517 S    
C56   C58   1.397128 A    
C43   Cl1   1.752668 S    
C27   C40   1.394159 A    
C12   C20   1.404299 A    
C38   C40   1.393801 A    
O4    Cu1   1.969681 S    
C104  H61   1.110585 S    
C80   H32   1.079762 S    
C51   O19   1.390963 S    
C81   C92   1.398244 A    
C61   N3    1.374529 A    
C95   C96   1.520456 S    
C57   C59   1.414169 A    
H7    C66   1.082482 S    
C83   C87   1.422638 A    
C63   C81   1.411681 A    
C97   C98   1.522555 S    
H23   C91   1.083383 S    
C5    O21   1.395492 S    
C106  H67   1.110919 S    
C105  C106  1.520958 S    
C75   C88   1.426205 A    
C17   H3    1.083373 S    
C78   C80   1.397818 A    
C76   C87   1.426183 A    
C16   Cl4   1.762427 S    
C41   H13   1.073056 S    
C51   C53   1.399737 A    
C70   H28   1.080973 S    
H15   C53   1.083048 S    
C21   C27   1.405758 A    
C100  H52   1.109912 S    
H24   C92   1.083217 S    
C9    C27   1.404781 A    
C43   C45   1.397235 A    
C103  H58   1.116102 S    
C55   H21   1.085003 S    
C13   C29   1.405596 A    
Cu1   Cu2   2.657135 S    
C75   C81   1.407505 A    
C6    O22   1.394551 S    
C95   H39   1.113984 S    
C23   C25   1.393681 A    
C39   H11   1.083912 S    
O2    C2    1.286248 A    
C24   C26   1.393760 A    
C69   N5    1.365774 A    
C96   H41   1.110353 S    
C43   C53   1.397463 A    
C72   C74   1.405339 A    
C96   H40   1.108489 S    
C90   C92   1.392244 A    
Cu2   N5    1.995635 S    
C71   C73   1.404482 A    
C7    O11   1.350001 S    
C98   H47   1.110828 S    
C44   Cl2   1.753260 S    
C37   C39   1.393680 A    
C105  H63   1.116222 S    
C89   C91   1.391371 A    
C50   H20   1.081082 S    
C76   C82   1.406774 A    
C46   C48   1.402335 A    
N3    C73   1.456122 S    
C2    C57   1.451862 S    
H26   C90   1.074398 S    
C38   O18   1.381547 S    
O4    C2    1.283707 A    
C50   C52   1.417868 A    
C84   C90   1.412882 A    
O19   C97   1.413966 S    
C45   H17   1.083567 S    
C31   C35   1.421899 A    
N2    C20   1.436755 S    
C67   N5    1.365350 A    
C28   C39   1.394135 A    
C44   C54   1.398179 A    
C106  H65   1.110693 S    
C21   C36   1.422228 A    
C52   O20   1.396943 S    
C93   C94   1.520462 S    
C71   H29   1.082510 S    
C5    C86   1.430490 A    
C72   H30   1.082459 S    
C66   C74   1.406982 A    
C104  H62   1.109918 S    
O5    C3    1.289362 A    
O7    Cu2   1.950065 S    
C15   Cl3   1.763197 S    
C61   O15   1.349122 S    
C52   C54   1.401533 A    
O20   C99   1.411945 S    
C68   N6    1.363037 A    
O6    C4    1.290146 A    
O24   C107  1.413908 S    
C40   H12   1.083903 S    
C49   C51   1.414997 A    
C84   C85   1.432575 A    
C94   H37   1.108501 S    
C56   H22   1.085188 S    
O7    C3    1.291700 A    
C55   C60   1.387131 A    
O3    Cu2   1.969683 S    
O8    C4    1.290731 A    
H16   C54   1.083203 S    
C7    C23   1.402562 A    
C70   C72   1.402192 A    
C46   H18   1.083504 S    
C97   H43   1.115827 S    
C47   C49   1.405499 A    
C6    C80   1.414631 A    
O22   C103  1.417863 S    
C107  H69   1.116263 S    
C47   C60   1.484108 S    
C33   C35   1.422581 A    
C95   H38   1.114730 S    
C15   C29   1.412353 A    
C93   H34   1.114807 S    
C26   C42   1.386563 A    
C94   H36   1.110355 S    
C99   C100  1.521740 S    
C101  H54   1.111440 S    
C18   C20   1.399584 A    
C107  C108  1.520926 S    
C55   C57   1.401358 A    
C86   C88   1.420941 A    
C18   H4    1.083377 S    
H25   C89   1.073914 S    
C76   C78   1.402708 A    
C62   N4    1.374407 A    
C31   C34   1.425091 A    
C12   O23   1.389422 S    
C7    N1    1.367812 A    
C32   C33   1.425138 A    
C83   C89   1.412173 A    
O6    Cu2   1.951489 S    
C22   C35   1.422240 A    
C82   C91   1.398590 A    
C48   C59   1.484772 S    
N2    C10   1.368782 A    
O9    C64   1.344872 S    
C6    C85   1.431555 A    
C5    C79   1.413784 A    
C84   C88   1.423605 A    
C22   C24   1.407598 A    
O3    C1    1.281481 A    
O8    Cu1   1.950062 S    
C26   H6    1.083613 S    
H2    C67   1.078333 S    
C66   C68   1.402640 A    
C11   O24   1.389085 S    
C14   H9    1.082041 S    
C104  H60   1.108215 S    
N1    C9    1.368603 A    
C34   C41   1.414540 A    
C62   C78   1.416454 A    
C16   C30   1.411647 A    
C58   C60   1.412602 A    
C61   C77   1.414160 A    
C13   H10   1.081872 S    
C101  C102  1.522260 S    
C99   H48   1.113558 S    
C10   O13   1.349465 S    
C94   H35   1.111028 S    
C108  H71   1.110530 S    
C11   C13   1.407112 A    
C9    O14   1.349440 S    
O17   C93   1.413030 S    
N4    C74   1.457242 S    
C12   C14   1.407347 A    
C25   H5    1.083618 S    
O21   C101  1.416899 S    
C8    C24   1.402761 A    
C62   O16   1.348468 S    
C56   C59   1.387092 A    
N3    C63   1.374195 A    
C108  H72   1.110691 S    
C99   H49   1.113380 S    
C15   C17   1.393695 A    
Cu1   N6    1.995635 S    
C34   C36   1.422603 A    
C16   C18   1.393667 A    
C102  H55   1.110649 S    
O2    Cu2   1.963529 S    
N4    C64   1.372643 A    
C70   N6    1.363919 A    
C100  H50   1.109469 S    
C45   C47   1.403159 A    
C49   H19   1.081909 S    
O5    Cu1   1.951489 S    
O1    Cu1   1.963529 S    
C1    C58   1.449568 S    
C25   C41   1.386451 A    
C107  H68   1.111625 S    
C8    N2    1.368001 A    
C11   C19   1.403829 A    
C77   C79   1.398012 A    
C93   H33   1.113975 S    
C100  H51   1.110531 S    
C79   H31   1.080447 S    
C64   C82   1.410176 A    
C101  H53   1.114893 S    
C106  H66   1.110518 S    
C42   H14   1.073069 S    
H8    C65   1.082454 S    
O10   C63   1.348365 S    
N1    C19   1.436287 S    
C102  H56   1.110803 S    
C65   C67   1.400984 A    
