data_mof_unit_44461.cif
_audit_creation_date              2012-12-11T16:19:03-0500
_audit_creation_method            fapswitch 2.2
_symmetry_space_group_name_H-M    P1
_symmetry_Int_Tables_number       1
_space_group_crystal_system       orthorhombic
_cell_length_a                    6.923589
_cell_length_b                    31.565968
_cell_length_c                    34.866247
_cell_angle_alpha                 90.0
_cell_angle_beta                  90.0
_cell_angle_gamma                 90.0
_cell_volume                      7620.01091877

loop_
_atom_site_label
_atom_site_type_symbol
_atom_type_description
_atom_site_fract_x
_atom_site_fract_y
_atom_site_fract_z
_atom_type_partial_charge
O1    O     O_R   0.417270 0.211480 0.210950 -0.530123
O2    O     O_R   0.582730 0.788520 0.789050 -0.532013
O3    O     O_R   0.582730 0.788520 0.710950 -0.532013
O4    O     O_R   0.417270 0.211480 0.289050 -0.530123
O5    O     O_R   0.917270 0.288520 0.289050 -0.530123
O6    O     O_R   0.082730 0.711480 0.710950 -0.532013
O7    O     O_R   0.082730 0.711480 0.789050 -0.532013
O8    O     O_R   0.917270 0.288520 0.210950 -0.530123
O9    O     O_R   0.746940 0.206370 0.288750 -0.537848
O10   O     O_R   0.253060 0.793630 0.711250 -0.534724
O11   O     O_R   0.253060 0.793630 0.788750 -0.534724
O12   O     O_R   0.746940 0.206370 0.211250 -0.537848
O13   O     O_R   0.246940 0.293630 0.211250 -0.537848
O14   O     O_R   0.753060 0.706370 0.788750 -0.534724
O15   O     O_R   0.753060 0.706370 0.711250 -0.534724
O16   O     O_R   0.246940 0.293630 0.288750 -0.537848
C1    C     C_R   0.578303 0.196930 0.302745 0.769167
C2    C     C_R   0.421902 0.803419 0.697387 0.767171
C3    C     C_R   0.421901 0.803419 0.802613 0.767171
C4    C     C_R   0.578303 0.196930 0.197255 0.769167
C5    C     C_R   0.078303 0.303070 0.197255 0.769166
C6    C     C_R   0.921902 0.696580 0.802613 0.767172
C7    C     C_R   0.921902 0.696580 0.697387 0.767171
C8    C     C_R   0.078303 0.303070 0.302745 0.769167
O17   O     O_3   0.583760 0.276950 0.250000 -0.375436
O18   O     O_3   0.416240 0.723050 0.750000 -0.373990
O19   O     O_3   0.083760 0.223050 0.250000 -0.375436
O20   O     O_3   0.916240 0.776950 0.750000 -0.373990
V1    V     V_3+5 0.858600 0.245000 0.250000 1.514769
V2    V     V_3+5 0.141400 0.755000 0.750000 1.516298
V3    V     V_3+5 0.358600 0.255000 0.250000 1.514769
V4    V     V_3+5 0.641400 0.745000 0.750000 1.516298
C9    C     C_R   0.927408 0.585428 0.538741 0.588136
C10   C     C_R   0.991637 0.410778 0.462656 0.591316
C11   C     C_R   0.991637 0.410778 0.037344 0.591316
C12   C     C_R   0.927408 0.585428 0.961259 0.588136
C13   C     C_R   0.427408 0.914572 0.961259 0.588138
C14   C     C_R   0.491637 0.089222 0.037344 0.591316
C15   C     C_R   0.491637 0.089222 0.462656 0.591316
C16   C     C_R   0.427408 0.914572 0.538741 0.588136
N1    N     N_R   0.926955 0.571368 0.576045 -0.555834
N2    N     N_R   0.002979 0.425030 0.425475 -0.555572
N3    N     N_R   0.002979 0.425030 0.074525 -0.555572
N4    N     N_R   0.926955 0.571368 0.923955 -0.555834
N5    N     N_R   0.426954 0.928632 0.923955 -0.555834
N6    N     N_R   0.502979 0.074970 0.074525 -0.555572
N7    N     N_R   0.502979 0.074970 0.425475 -0.555572
N8    N     N_R   0.426955 0.928632 0.576045 -0.555834
C17   C     C_R   0.932950 0.528807 0.584121 0.575410
C18   C     C_R   0.993766 0.467582 0.417450 0.573871
C19   C     C_R   0.993766 0.467582 0.082550 0.573871
C20   C     C_R   0.932950 0.528807 0.915879 0.575411
C21   C     C_R   0.432950 0.971193 0.915879 0.575411
C22   C     C_R   0.493766 0.032418 0.082550 0.573871
C23   C     C_R   0.493766 0.032418 0.417450 0.573871
C24   C     C_R   0.432950 0.971193 0.584121 0.575411
C25   C     C_R   0.943162 0.498730 0.554245 -0.030157
C26   C     C_R   0.973433 0.497479 0.447226 -0.029387
C27   C     C_R   0.973433 0.497479 0.052774 -0.029387
C28   C     C_R   0.943162 0.498730 0.945755 -0.030158
C29   C     C_R   0.443162 0.001270 0.945755 -0.030157
C30   C     C_R   0.473433 0.002520 0.052774 -0.029387
C31   C     C_R   0.473432 0.002520 0.447226 -0.029387
C32   C     C_R   0.443162 0.001270 0.554245 -0.030157
C33   C     C_R   0.948932 0.512865 0.515942 -0.016198
C34   C     C_R   0.965047 0.483282 0.485483 -0.016383
C35   C     C_R   0.965047 0.483282 0.014517 -0.016383
C36   C     C_R   0.948932 0.512865 0.984058 -0.016197
C37   C     C_R   0.448932 0.987135 0.984058 -0.016197
C38   C     C_R   0.465046 0.016718 0.014517 -0.016383
C39   C     C_R   0.465046 0.016718 0.485483 -0.016383
C40   C     C_R   0.448932 0.987135 0.515942 -0.016198
C41   C     C_R   0.940069 0.556543 0.508034 -0.035860
C42   C     C_R   0.973990 0.439595 0.493363 -0.036433
C43   C     C_R   0.973990 0.439595 0.006637 -0.036433
C44   C     C_R   0.940069 0.556543 0.991966 -0.035860
C45   C     C_R   0.440069 0.943457 0.991966 -0.035860
C46   C     C_R   0.473990 0.060405 0.006637 -0.036433
C47   C     C_R   0.473990 0.060405 0.493363 -0.036433
C48   C     C_R   0.440069 0.943457 0.508034 -0.035860
C49   C     C_R   0.950859 0.454987 0.561744 -0.134644
C50   C     C_R   0.963070 0.541180 0.439684 -0.134142
C51   C     C_R   0.963070 0.541180 0.060315 -0.134142
C52   C     C_R   0.950858 0.454987 0.938256 -0.134643
C53   C     C_R   0.450858 0.045013 0.938256 -0.134643
C54   C     C_R   0.463070 0.958820 0.060315 -0.134141
C55   C     C_R   0.463070 0.958820 0.439684 -0.134142
C56   C     C_R   0.450859 0.045013 0.561744 -0.134644
C57   C     C_R   0.965624 0.425795 0.531690 -0.131975
C58   C     C_R   0.946084 0.570327 0.469694 -0.131950
C59   C     C_R   0.946084 0.570327 0.030306 -0.131950
C60   C     C_R   0.965624 0.425795 0.968310 -0.131975
C61   C     C_R   0.465623 0.074205 0.968310 -0.131975
C62   C     C_R   0.446085 0.929672 0.030306 -0.131950
C63   C     C_R   0.446084 0.929672 0.469694 -0.131950
C64   C     C_R   0.465624 0.074205 0.531690 -0.131975
O21   O     O_2   0.915583 0.627298 0.531311 -0.506830
O22   O     O_2   0.995999 0.368817 0.469961 -0.506926
O23   O     O_2   0.995999 0.368817 0.030039 -0.506926
O24   O     O_2   0.915583 0.627298 0.968689 -0.506830
O25   O     O_2   0.415583 0.872702 0.968689 -0.506830
O26   O     O_2   0.495999 0.131183 0.030039 -0.506926
O27   O     O_2   0.495999 0.131183 0.469961 -0.506926
O28   O     O_2   0.415583 0.872702 0.531311 -0.506830
O29   O     O_2   0.932662 0.515577 0.620907 -0.519211
O30   O     O_2   0.006784 0.481055 0.380821 -0.519620
O31   O     O_2   0.006784 0.481055 0.119179 -0.519620
O32   O     O_2   0.932662 0.515578 0.879093 -0.519211
O33   O     O_2   0.432661 0.984422 0.879093 -0.519212
O34   O     O_2   0.506784 0.018945 0.119179 -0.519620
O35   O     O_2   0.506784 0.018945 0.380821 -0.519620
O36   O     O_2   0.432662 0.984422 0.620907 -0.519211
H1    H     H_    0.946361 0.443141 0.590881 0.175707
H2    H     H_    0.968659 0.553048 0.410561 0.175992
H3    H     H_    0.968660 0.553048 0.089439 0.175992
H4    H     H_    0.946360 0.443141 0.909119 0.175706
H5    H     H_    0.446360 0.056859 0.909119 0.175706
H6    H     H_    0.468660 0.946952 0.089439 0.175992
H7    H     H_    0.468659 0.946952 0.410561 0.175992
H8    H     H_    0.446361 0.056859 0.590881 0.175707
H9    H     H_    0.971845 0.392383 0.538637 0.177630
H10   H     H_    0.939332 0.603732 0.462735 0.177878
H11   H     H_    0.939332 0.603732 0.037265 0.177878
H12   H     H_    0.971845 0.392383 0.961363 0.177630
H13   H     H_    0.471844 0.107617 0.961363 0.177630
H14   H     H_    0.439333 0.896268 0.037265 0.177878
H15   H     H_    0.439332 0.896268 0.462735 0.177878
H16   H     H_    0.471845 0.107617 0.538637 0.177630
C65   C     C_R   0.885760 0.391351 0.365748 -0.035660
C66   C     C_R   0.777689 0.604207 0.633503 -0.041174
C67   C     C_R   0.777689 0.604207 0.866497 -0.041173
C68   C     C_R   0.885760 0.391351 0.134252 -0.035660
C69   C     C_R   0.385761 0.108649 0.134252 -0.035660
C70   C     C_R   0.277689 0.895793 0.866497 -0.041173
C71   C     C_R   0.277689 0.895793 0.633503 -0.041174
C72   C     C_R   0.385760 0.108649 0.365748 -0.035660
C73   C     C_R   0.906014 0.361573 0.336344 -0.191191
C74   C     C_R   0.778854 0.634903 0.662503 -0.180814
C75   C     C_R   0.778854 0.634903 0.837497 -0.180814
C76   C     C_R   0.906014 0.361573 0.163656 -0.191191
C77   C     C_R   0.406014 0.138427 0.163656 -0.191191
C78   C     C_R   0.278854 0.865097 0.837497 -0.180814
C79   C     C_R   0.278854 0.865097 0.662503 -0.180814
C80   C     C_R   0.406014 0.138427 0.336344 -0.191192
H17   H     H_    0.795036 0.360031 0.314484 0.138263
H18   H     H_    0.659732 0.635348 0.682637 0.145163
H19   H     H_    0.659732 0.635348 0.817363 0.145163
H20   H     H_    0.795035 0.360031 0.185516 0.138263
H21   H     H_    0.295036 0.139969 0.185516 0.138263
H22   H     H_    0.159732 0.864652 0.817363 0.145163
H23   H     H_    0.159732 0.864652 0.682637 0.145163
H24   H     H_    0.295035 0.139969 0.314484 0.138263
C81   C     C_R   0.066266 0.334100 0.334952 -0.117389
C82   C     C_R   0.930103 0.664691 0.665600 -0.124804
C83   C     C_R   0.930103 0.664691 0.834400 -0.124804
C84   C     C_R   0.066266 0.334100 0.165048 -0.117388
C85   C     C_R   0.566266 0.165900 0.165048 -0.117388
C86   C     C_R   0.430103 0.835309 0.834400 -0.124803
C87   C     C_R   0.430103 0.835309 0.665600 -0.124804
C88   C     C_R   0.566266 0.165900 0.334952 -0.117388
C89   C     C_R   0.208044 0.337019 0.364489 -0.064692
C90   C     C_R   0.083999 0.662569 0.638400 -0.060059
C91   C     C_R   0.083999 0.662569 0.861600 -0.060059
C92   C     C_R   0.208043 0.337019 0.135511 -0.064693
C93   C     C_R   0.708044 0.162981 0.135511 -0.064693
C94   C     C_R   0.583998 0.837431 0.861600 -0.060060
C95   C     C_R   0.583998 0.837431 0.638400 -0.060059
C96   C     C_R   0.708044 0.162981 0.364489 -0.064693
C97   C     C_R   0.187513 0.368031 0.393293 -0.131654
C98   C     C_R   0.082398 0.630705 0.610155 -0.131989
C99   C     C_R   0.082398 0.630705 0.889845 -0.131989
C100  C     C_R   0.187513 0.368031 0.106707 -0.131654
C101  C     C_R   0.687513 0.131969 0.106707 -0.131654
C102  C     C_R   0.582398 0.869295 0.889845 -0.131989
C103  C     C_R   0.582398 0.869295 0.610155 -0.131989
C104  C     C_R   0.687513 0.131969 0.393293 -0.131654
H25   H     H_    0.294551 0.370577 0.415855 0.166184
H26   H     H_    0.198420 0.628908 0.589342 0.164288
H27   H     H_    0.198420 0.628908 0.910658 0.164288
H28   H     H_    0.294551 0.370577 0.084145 0.166184
H29   H     H_    0.794551 0.129423 0.084145 0.166184
H30   H     H_    0.698420 0.871092 0.910658 0.164288
H31   H     H_    0.698420 0.871092 0.589342 0.164288
H32   H     H_    0.794551 0.129423 0.415855 0.166184
C105  C     C_R   0.026129 0.394870 0.394480 0.340657
C106  C     C_R   0.929260 0.601966 0.607010 0.338774
C107  C     C_R   0.929260 0.601966 0.892990 0.338774
C108  C     C_R   0.026129 0.394870 0.105520 0.340657
C109  C     C_R   0.526129 0.105130 0.105520 0.340657
C110  C     C_R   0.429260 0.898034 0.892990 0.338773
C111  C     C_R   0.429260 0.898034 0.607010 0.338774
C112  C     C_R   0.526129 0.105130 0.394480 0.340657
H33   H     H_    0.759370 0.411547 0.366327 0.141317
H34   H     H_    0.657575 0.582353 0.631478 0.139281
H35   H     H_    0.657575 0.582353 0.868521 0.139281
H36   H     H_    0.759370 0.411547 0.133673 0.141317
H37   H     H_    0.259370 0.088453 0.133673 0.141317
H38   H     H_    0.157574 0.917646 0.868521 0.139281
H39   H     H_    0.157575 0.917646 0.631478 0.139281
H40   H     H_    0.259370 0.088453 0.366327 0.141317
C113  C     C_2   0.372516 0.307086 0.368140 0.778098
O37   O     O_2   0.354483 0.269961 0.358858 -0.556103
O38   O     O_R   0.546147 0.321020 0.384278 -0.662827
H41   H     H_    0.646611 0.297747 0.385987 0.336014
C114  C     C_2   0.244428 0.693631 0.636386 0.779571
O39   O     O_2   0.216523 0.731046 0.643331 -0.559599
O40   O     O_R   0.426324 0.680242 0.623907 -0.665971
H42   H     H_    0.522731 0.704254 0.622089 0.339045
C115  C     C_2   0.244428 0.693631 0.863614 0.779571
O41   O     O_2   0.216523 0.731046 0.856669 -0.559599
O42   O     O_R   0.426324 0.680242 0.876093 -0.665971
H43   H     H_    0.522731 0.704254 0.877911 0.339044
C116  C     C_2   0.372516 0.307086 0.131860 0.778097
O43   O     O_2   0.354484 0.269961 0.141142 -0.556103
O44   O     O_R   0.546147 0.321020 0.115722 -0.662827
H44   H     H_    0.646611 0.297747 0.114013 0.336014
C117  C     C_2   0.872516 0.192914 0.131860 0.778097
O45   O     O_2   0.854483 0.230039 0.141142 -0.556103
O46   O     O_R   0.046147 0.178980 0.115722 -0.662827
H45   H     H_    0.146611 0.202253 0.114013 0.336014
C118  C     C_2   0.744428 0.806369 0.863614 0.779571
O47   O     O_2   0.716523 0.768954 0.856669 -0.559599
O48   O     O_R   0.926324 0.819758 0.876093 -0.665971
H46   H     H_    0.022731 0.795746 0.877911 0.339044
C119  C     C_2   0.744428 0.806369 0.636386 0.779571
O49   O     O_2   0.716523 0.768954 0.643331 -0.559599
O50   O     O_R   0.926324 0.819758 0.623907 -0.665971
H47   H     H_    0.022731 0.795746 0.622089 0.339044
C120  C     C_2   0.872516 0.192914 0.368140 0.778097
O51   O     O_2   0.854483 0.230039 0.358858 -0.556103
O52   O     O_R   0.046147 0.178980 0.384278 -0.662827
H48   H     H_    0.146611 0.202253 0.385987 0.336014

loop_
_geom_bond_atom_site_label_1
_geom_bond_atom_site_label_2
_ccdc_geom_bond_type
O17   V3    S    
O38   H41   S    
C56   C64   A    
O18   V4    S    
C65   C105  A    
O12   V1    S    
O19   V1    S    
C113  O38   S    
C113  O37   D    
C37   C45   A    
O48   H46   S    
C10   N2    A    
C78   H22   S    
C10   O22   S    
C76   H20   S    
C39   C47   A    
C91   C115  S    
C69   C109  A    
O15   V4    S    
C102  C110  A    
C29   C37   A    
C114  O39   D    
O16   V3    S    
C30   C54   A    
C75   H19   S    
C52   H4    S    
C20   C28   A    
C98   H26   S    
O8    V1    S    
C42   C57   A    
C73   H17   S    
C27   C51   A    
C41   C58   A    
C119  O50   S    
C26   C50   A    
C71   H39   S    
C95   C119  S    
C38   C46   A    
C80   C88   A    
C46   C61   A    
C93   C101  A    
C98   C106  A    
C34   C42   A    
C45   C62   A    
O1    V3    S    
C40   C48   A    
C17   C25   A    
C22   O34   S    
O3    C2    A    
O2    V4    S    
N1    C17   A    
N7    C112  S    
C1    C88   S    
C16   N8    A    
C70   C110  A    
N8    C111  S    
C2    C87   S    
C54   C62   A    
C27   C35   A    
C96   C120  S    
C21   C29   A    
C26   C34   A    
C68   C76   A    
O42   H43   S    
O11   V2    S    
C102  H30   S    
C32   C56   A    
C23   C31   A    
C16   C48   A    
C56   H8    S    
C11   N3    A    
O9    V1    S    
C89   C97   A    
C100  H28   S    
C79   H23   S    
C101  H29   S    
O16   C8    A    
O7    V2    S    
C59   H11   S    
C12   C44   A    
O12   C4    A    
C58   H10   S    
C30   C38   A    
C99   H27   S    
O3    V4    S    
C53   C61   A    
C78   C86   A    
C19   O31   S    
C11   O23   S    
C94   C118  S    
C97   H25   S    
C3    C86   S    
C120  O51   D    
C82   C90   A    
C119  O49   D    
O5    V1    S    
C6    C83   S    
C62   H14   S    
C76   C84   A    
O17   V1    S    
O10   C2    A    
C16   O28   S    
C94   C102  A    
C14   N6    A    
O19   V3    S    
O40   H42   S    
C18   C26   A    
C70   H38   S    
O20   V4    S    
C68   H36   S    
C50   H2    S    
C54   H6    S    
C33   C41   A    
C85   C93   A    
O46   H45   S    
C104  H32   S    
C17   O29   S    
C14   C46   A    
C83   C91   A    
C117  O45   D    
C116  O43   D    
C15   N7    A    
C13   C45   A    
N5    C21   A    
C65   C73   A    
C35   C36   A    
C55   C63   A    
C15   C47   A    
C44   C59   A    
O44   H44   S    
C55   H7    S    
C118  O47   D    
C51   H3    S    
C70   C78   A    
C64   H16   S    
C49   H1    S    
O10   V2    S    
O50   H47   S    
C90   C98   A    
C75   C83   A    
N2    C18   A    
O11   C3    A    
N6    C22   A    
C24   C32   A    
C115  O41   D    
C73   C81   A    
C12   O24   S    
C36   C44   A    
O9    C1    A    
C48   C63   A    
C53   H5    S    
C71   C111  A    
C29   C53   A    
C43   C60   A    
C10   C42   A    
C96   C104  A    
O4    C1    A    
C77   C85   A    
N2    C105  S    
C9    C41   A    
O6    V2    S    
C61   H13   S    
C72   C112  A    
O18   V2    S    
C4    C85   S    
C90   C114  S    
C120  O52   S    
C25   C49   A    
C12   N4    A    
C23   O35   S    
C35   C43   A    
N6    C109  S    
C13   N5    A    
C66   C74   A    
C91   C99   A    
C8    C81   S    
C86   C94   A    
N7    C23   A    
C89   C113  S    
N8    C24   A    
C92   C100  A    
O1    C4    A    
C69   H37   S    
C101  C109  A    
C31   C55   A    
O2    C3    A    
C103  H31   S    
O13   V3    S    
C67   H35   S    
C11   C43   A    
C31   C39   A    
C66   H34   S    
O8    C5    A    
N4    C20   A    
C65   H33   S    
C66   C106  A    
O20   V2    S    
C15   O27   S    
C93   C117  S    
C92   C116  S    
C117  O46   S    
O7    C6    A    
C51   C59   A    
C77   H21   S    
C69   C77   A    
C50   C58   A    
C99   C107  A    
C118  O48   S    
C9    N1    A    
O14   C6    A    
C60   H12   S    
C116  O44   S    
C49   C57   A    
C39   C40   A    
C14   O26   S    
O13   C5    A    
C84   C92   A    
C13   O25   S    
C68   C108  A    
C28   C52   A    
N3    C19   A    
O5    C8    A    
C57   H9    S    
N3    C108  S    
C74   H18   S    
O6    C7    A    
O15   C7    A    
C71   C79   A    
C115  O42   S    
C5    C84   S    
C87   C95   A    
N1    C106  S    
C95   C103  A    
C9    O21   S    
C79   C87   A    
C32   C40   A    
C37   C38   A    
C103  C111  A    
C88   C96   A    
C72   H40   S    
O4    V3    S    
C67   C75   A    
N4    C107  S    
C97   C105  A    
C63   H15   S    
C104  C112  A    
C47   C64   A    
C19   C27   A    
C100  C108  A    
C28   C36   A    
C72   C80   A    
C33   C34   A    
C7    C82   S    
C81   C89   A    
O52   H48   S    
C18   O30   S    
C22   C30   A    
C20   O32   S    
C21   O33   S    
C52   C60   A    
C74   C82   A    
C114  O40   S    
O14   V4    S    
C24   O36   S    
N5    C110  S    
C80   H24   S    
C25   C33   A    
C67   C107  A    
