data_mof_unit_17865.cif
_audit_creation_date              2012-12-11T15:22:37-0500
_audit_creation_method            fapswitch 2.2
_symmetry_space_group_name_H-M    P1
_symmetry_Int_Tables_number       1
_space_group_crystal_system       triclinic
_cell_length_a                    22.417832
_cell_length_b                    12.989015
_cell_length_c                    26.993104
_cell_angle_alpha                 90.217183
_cell_angle_beta                  90.400883
_cell_angle_gamma                 89.921318
_cell_volume                      7859.74601603

loop_
_atom_site_label
_atom_site_type_symbol
_atom_type_description
_atom_site_fract_x
_atom_site_fract_y
_atom_site_fract_z
_atom_type_partial_charge
C1    C     C_R   0.721258 0.345324 0.177994 0.534980
C2    C     C_R   0.476181 0.256677 0.898814 -0.133571
C3    C     C_R   0.018996 0.592997 0.557406 -0.125773
C4    C     C_R   0.516010 0.076056 0.396787 -0.133994
C5    C     C_R   0.439185 0.088499 0.593971 -0.129274
C6    C     C_R   0.081717 0.654444 0.408231 -0.126168
C7    C     C_R   0.004830 0.590835 0.607612 -0.137444
C8    C     C_R   0.737989 0.963209 0.373000 0.028964
C9    C     C_R   0.258800 0.955788 0.629016 0.037877
C10   C     C_R   0.238414 0.464305 0.373675 0.027254
C11   C     C_R   0.762873 0.465676 0.625980 0.024989
C12   C     C_R   0.688107 0.968862 0.403995 -0.129129
C13   C     C_R   0.018039 0.755901 0.103184 -0.136310
C14   C     C_R   0.225663 0.865553 0.621976 -0.138276
C15   C     C_R   0.187096 0.454337 0.402692 -0.135102
C16   C     C_R   0.706600 0.452921 0.603922 -0.134533
C17   C     C_R   0.694713 0.955271 0.454436 -0.134740
C18   C     C_R   0.215410 0.828802 0.573950 -0.128168
C19   C     C_R   0.191980 0.449140 0.453731 -0.134196
C20   C     C_R   0.702092 0.439772 0.552829 -0.120987
C21   C     C_R   0.750909 0.933100 0.474369 0.024783
C22   C     C_R   0.238264 0.882758 0.533371 0.012537
C23   C     C_R   0.248287 0.447410 0.476377 0.027735
C24   C     C_R   0.976834 0.758250 0.897507 -0.135817
C25   C     C_R   0.753604 0.443591 0.523728 0.024936
C26   C     C_R   0.799990 0.918409 0.443111 -0.130625
C27   C     C_R   0.271804 0.972256 0.540777 -0.138883
C28   C     C_R   0.299763 0.445220 0.447086 -0.122480
C29   C     C_R   0.809725 0.453179 0.545930 -0.135761
C30   C     C_R   0.793910 0.936409 0.392474 -0.137117
C31   C     C_R   0.281845 0.008785 0.588427 -0.133891
C32   C     C_R   0.294940 0.457169 0.395938 -0.127166
C33   C     C_R   0.814484 0.462316 0.596804 -0.127817
C34   C     C_R   0.793324 0.985014 0.557563 0.007944
C35   C     C_R   0.504596 0.259156 0.053580 0.011237
C36   C     C_R   0.170352 0.877513 0.459594 0.009984
C37   C     C_R   0.284620 0.501887 0.561903 0.006784
C38   C     C_R   0.717565 0.499970 0.439384 0.009241
C39   C     C_R   0.721281 0.348118 0.321380 0.543424
C40   C     C_R   0.278815 0.347528 0.678506 0.539587
C41   C     C_R   0.204439 0.805979 0.326964 0.560734
C42   C     C_R   0.779053 0.847196 0.678249 0.540813
C43   C     C_R   0.794828 0.966251 0.608724 -0.111767
C44   C     C_R   0.164529 0.861343 0.408279 -0.109631
C45   C     C_R   0.287720 0.476678 0.612435 -0.105858
C46   C     C_R   0.486142 0.258393 0.950197 0.014639
C47   C     C_R   0.712890 0.476872 0.388822 -0.115153
C48   C     C_R   0.723309 0.827408 0.599885 -0.136051
C49   C     C_R   0.264320 0.789628 0.404514 -0.132807
C50   C     C_R   0.225038 0.327119 0.599482 -0.143865
C51   C     C_R   0.775580 0.326101 0.399689 -0.134192
C52   C     C_R   0.720505 0.845203 0.549532 -0.141420
C53   C     C_R   0.271207 0.806523 0.454897 -0.146645
C54   C     C_R   0.221065 0.350104 0.549715 -0.140742
C55   C     C_R   0.780053 0.347192 0.449653 -0.138610
C56   C     C_R   0.756285 0.920838 0.527888 0.031366
C57   C     C_R   0.006631 0.757747 0.052003 0.014046
C58   C     C_R   0.225104 0.850808 0.482505 0.021715
C59   C     C_R   0.251840 0.434583 0.530172 0.029599
C60   C     C_R   0.750031 0.431492 0.470142 0.036570
C61   C     C_R   0.762239 0.885183 0.629398 0.006722
C62   C     C_R   0.211731 0.820018 0.380565 0.000498
C63   C     C_R   0.260464 0.387798 0.630563 0.008282
C64   C     C_R   0.739755 0.388010 0.369464 0.010641
C65   C     C_R   0.554058 0.158823 0.321449 0.541184
C66   C     C_R   0.444648 0.158253 0.677943 0.538466
C67   C     C_R   0.053584 0.658999 0.321059 0.525180
C68   C     C_R   0.988840 0.759314 0.948528 0.012635
C69   C     C_R   0.944975 0.658743 0.678058 0.539401
C70   C     C_R   0.731537 0.002502 0.322997 0.540706
C71   C     C_R   0.267780 0.000390 0.677790 0.535957
C72   C     C_R   0.231471 0.503000 0.323326 0.532756
C73   C     C_R   0.768733 0.503106 0.676594 0.551246
C74   C     C_R   0.509012 0.071240 0.104723 -0.139888
C75   C     C_R   0.474723 0.069655 0.900257 -0.154234
C76   C     C_R   0.021332 0.568893 0.100701 -0.147257
C77   C     C_R   0.990998 0.572674 0.895590 -0.147068
C78   C     C_R   0.497422 0.071073 0.054105 0.011126
C79   C     C_R   0.496308 0.165120 0.028137 0.063837
C80   C     C_R   0.482751 0.070097 0.951247 0.005339
C81   C     C_R   0.012956 0.569663 0.049691 0.006365
C82   C     C_R   0.000499 0.571922 0.946543 0.008025
C83   C     C_R   0.483504 0.977165 0.977432 -0.155502
C84   C     C_R   0.490217 0.977695 0.028677 -0.146824
C85   C     C_R   0.008756 0.478462 0.971399 -0.151879
C86   C     C_R   0.014153 0.477227 0.022772 -0.154837
C87   C     C_3   0.830047 0.071518 0.534529 -0.253900
C88   C     C_3   0.870889 0.131332 0.570640 -0.309019
C89   C     C_3   0.908142 0.212149 0.544133 -0.453709
C90   C     C_R   0.488352 0.164657 0.976508 0.066103
C91   C     C_3   0.120765 0.925741 0.490424 -0.247833
C92   C     C_3   0.063489 0.954827 0.462139 -0.309184
C93   C     C_3   0.018383 0.005847 0.496491 -0.458203
C94   C     C_3   0.314579 0.599244 0.542279 -0.257217
C95   C     C_3   0.354783 0.656736 0.579913 -0.303919
C96   C     C_3   0.388190 0.746653 0.556763 -0.455477
C97   C     C_3   0.688295 0.597424 0.458632 -0.258721
C98   C     C_3   0.619966 0.590429 0.455465 -0.298744
C99   C     C_3   0.590393 0.684211 0.479123 -0.461100
C100  C     C_3   0.657102 0.792738 0.870086 -0.240218
C101  C     C_R   0.005928 0.664333 0.025045 0.064968
C102  C     C_3   0.625947 0.867431 0.834189 -0.287458
C103  C     C_3   0.603185 0.963868 0.860529 -0.424316
C104  C     C_3   0.347936 0.818932 0.133449 -0.242993
C105  C     C_3   0.353162 0.701694 0.126173 -0.259993
C106  C     C_3   0.385990 0.671088 0.078863 -0.457572
C107  C     C_3   0.151614 0.322887 0.865656 -0.242980
C108  C     C_3   0.145399 0.205802 0.872456 -0.259663
C109  C     C_3   0.112072 0.176129 0.919517 -0.457300
C110  C     C_3   0.826830 0.254857 0.117284 -0.231922
C111  C     C_3   0.875489 0.282502 0.155472 -0.269091
C112  C     C_R   0.278720 0.346943 0.821378 0.535629
C113  C     C_R   0.998701 0.665335 0.973325 0.064393
C114  C     C_3   0.925827 0.345195 0.132537 -0.447251
C115  C     C_R   0.502111 0.352166 0.027294 -0.140774
C116  C     C_R   0.492420 0.351818 0.976007 -0.139751
C117  C     C_R   0.998084 0.851143 0.026919 -0.143627
C118  C     C_R   0.988539 0.851822 0.975615 -0.142966
C119  C     C_R   0.738440 0.956823 0.130301 0.021389
C120  C     C_R   0.263966 0.965623 0.871518 0.023159
C121  C     C_R   0.235645 0.465897 0.128350 0.023221
C122  C     C_R   0.777091 0.524765 0.879562 0.021332
C123  C     C_R   0.794774 0.946260 0.108803 -0.140885
C124  C     C_R   0.221293 0.846701 0.178589 0.548026
C125  C     C_R   0.208602 0.946825 0.893200 -0.140826
C126  C     C_R   0.290731 0.443682 0.106844 -0.140753
C127  C     C_R   0.722572 0.532845 0.904730 -0.125384
C128  C     C_R   0.799301 0.923832 0.058409 -0.119226
C129  C     C_R   0.205190 0.931097 0.944215 -0.115674
C130  C     C_R   0.294109 0.428078 0.055790 -0.115840
C131  C     C_R   0.720198 0.519087 0.955788 -0.117392
C132  C     C_R   0.747497 0.915469 0.028819 0.035800
C133  C     C_R   0.256888 0.937860 0.974172 0.034571
C134  C     C_R   0.242728 0.438362 0.025725 0.034280
C135  C     C_R   0.778980 0.845432 0.821797 0.530689
C136  C     C_R   0.772325 0.498005 0.983046 0.035206
C137  C     C_R   0.691361 0.922238 0.051170 -0.127191
C138  C     C_R   0.312158 0.954792 0.951825 -0.127597
C139  C     C_R   0.187679 0.458715 0.047869 -0.128382
C140  C     C_R   0.827171 0.492893 0.958132 -0.119940
C141  C     C_R   0.553250 0.157266 0.177827 0.546298
C142  C     C_R   0.445211 0.157166 0.823096 0.542123
C143  C     C_R   0.054025 0.656987 0.177285 0.544029
C144  C     C_R   0.946499 0.657494 0.822376 0.535220
C145  C     C_R   0.686932 0.940655 0.101468 -0.127143
C146  C     C_R   0.469384 0.162192 0.873815 -0.007278
C147  C     C_R   0.315732 0.966356 0.901047 -0.123211
C148  C     C_R   0.184062 0.470354 0.098658 -0.123439
C149  C     C_R   0.829398 0.505528 0.906822 -0.132635
C150  C     C_R   0.707930 0.850412 0.947913 -0.101996
C151  C     C_R   0.299840 0.882540 0.055750 -0.095369
C152  C     C_R   0.199632 0.385142 0.943842 -0.095723
C153  C     C_R   0.800640 0.387459 0.054636 -0.101076
C154  C     C_R   0.710341 0.841597 0.896307 0.017732
C155  C     C_R   0.294351 0.863593 0.106564 0.004495
C156  C     C_R   0.205327 0.366009 0.893010 0.004884
C157  C     C_R   0.523034 0.163406 0.129475 -0.006266
C158  C     C_R   0.790107 0.347875 0.102076 0.007059
C159  C     C_R   0.802078 0.942400 0.898076 -0.140039
C160  C     C_R   0.196574 0.945674 0.103543 -0.133013
C161  C     C_R   0.303879 0.444903 0.896852 -0.133828
C162  C     C_R   0.715169 0.481830 0.114056 -0.139535
C163  C     C_R   0.797028 0.955001 0.948855 -0.127984
C164  C     C_R   0.203188 0.964745 0.053483 -0.126590
C165  C     C_R   0.297129 0.463946 0.946936 -0.127370
C166  C     C_R   0.726877 0.520316 0.067014 -0.125741
C167  C     C_R   0.751467 0.905368 0.974542 0.023712
C168  C     C_R   0.975424 0.664364 0.871326 -0.008452
C169  C     C_R   0.253293 0.928223 0.028511 0.020990
C170  C     C_R   0.246490 0.429032 0.971444 0.021183
C171  C     C_R   0.767990 0.470907 0.036147 0.020060
C172  C     C_R   0.761056 0.881381 0.871422 0.030639
C173  C     C_R   0.239825 0.889246 0.130235 0.020743
C174  C     C_R   0.260262 0.389962 0.869751 0.021941
C175  C     C_R   0.744341 0.393094 0.131785 0.022665
C176  C     C_R   0.525148 0.166667 0.369889 0.023985
C177  C     C_R   0.462411 0.163665 0.626079 0.032636
C178  C     C_R   0.036503 0.667108 0.372767 0.033667
C179  C     C_R   0.027199 0.661491 0.127421 -0.006228
C180  C     C_R   0.969274 0.668731 0.628048 0.020583
C181  C     C_R   0.515555 0.262479 0.392893 -0.127709
C182  C     C_R   0.493805 0.247460 0.606720 -0.128665
C183  C     C_R   0.977720 0.684648 0.387569 -0.144012
C184  C     C_R   0.948672 0.749353 0.597741 -0.129419
C185  C     C_R   0.499321 0.267012 0.442774 -0.122371
C186  C     C_R   0.503757 0.253169 0.555635 -0.115926
C187  C     C_R   0.964360 0.687433 0.438128 -0.124349
C188  C     C_R   0.961410 0.749846 0.547402 -0.131222
C189  C     C_R   0.731302 0.001420 0.179619 0.538125
C190  C     C_R   0.518162 0.257765 0.104329 -0.137073
C191  C     C_R   0.268978 0.002492 0.820711 0.536542
C192  C     C_R   0.231008 0.502328 0.179301 0.540534
C193  C     C_R   0.780208 0.544717 0.825868 0.562880
C194  C     C_R   0.493486 0.175822 0.470190 0.037484
C195  C     C_R   0.480213 0.177207 0.523636 0.035740
C196  C     C_R   0.009768 0.671902 0.473692 0.023143
C197  C     C_R   0.996444 0.671587 0.526875 0.029881
C198  C     C_R   0.501737 0.080593 0.446413 -0.126708
C199  C     C_R   0.446377 0.096824 0.543462 -0.131467
C200  C     C_R   0.068558 0.656356 0.458314 -0.129084
Cr1   Cr    Cr6+3 0.756570 0.170940 0.251190 0.995052
Cr2   Cr    Cr6+3 0.374010 0.036240 0.749520 1.007380
Cr3   Cr    Cr6+3 0.125990 0.536240 0.250480 1.005643
Cr4   Cr    Cr6+3 0.874010 0.536240 0.749520 1.008446
Cr5   Cr    Cr6+3 0.243430 0.170940 0.748810 0.996342
Cr6   Cr    Cr6+3 0.256570 0.670940 0.251190 0.992863
Cr7   Cr    Cr6+3 0.743430 0.670940 0.748810 0.990913
Cr8   Cr    Cr6+3 0.623740 0.299110 0.249580 1.009458
Cr9   Cr    Cr6+3 0.376260 0.299110 0.750420 1.010893
Cr10  Cr    Cr6+3 0.123740 0.799110 0.249580 1.005500
Cr11  Cr    Cr6+3 0.876260 0.799110 0.750420 1.002417
Cr12  Cr    Cr6+3 0.625990 0.036240 0.250480 1.006435
H1    H     H_    0.469148 0.996198 0.881600 0.124630
H2    H     H_    0.352583 0.963469 0.973516 0.114881
H3    H     H_    0.343118 0.579017 0.510456 0.141645
H4    H     H_    0.279098 0.652000 0.528909 0.154687
H5    H     H_    0.601179 0.687675 0.519314 0.147228
H6    H     H_    0.605750 0.755991 0.460987 0.152599
H7    H     H_    0.541229 0.678500 0.474710 0.137525
H8    H     H_    0.605520 0.585648 0.416068 0.158470
H9    H     H_    0.604208 0.520035 0.474562 0.157077
H10   H     H_    0.702009 0.614000 0.497402 0.155021
H11   H     H_    0.703811 0.663720 0.436193 0.144336
H12   H     H_    0.832636 0.931491 0.368804 0.113691
H13   H     H_    0.147590 0.470008 0.026011 0.115134
H14   H     H_    0.306463 0.079778 0.593680 0.113987
H15   H     H_    0.335042 0.463249 0.373995 0.119014
H16   H     H_    0.858427 0.473979 0.612813 0.143189
H17   H     H_    0.575922 0.942008 0.892977 0.155366
H18   H     H_    0.641075 0.012348 0.873331 0.168541
H19   H     H_    0.575407 0.009833 0.834532 0.148915
H20   H     H_    0.656412 0.890623 0.804001 0.174172
H21   H     H_    0.587377 0.827160 0.816797 0.139466
H22   H     H_    0.670217 0.721428 0.850484 0.165906
H23   H     H_    0.623291 0.766915 0.897319 0.109449
H24   H     H_    0.868264 0.478224 0.978235 0.116992
H25   H     H_    0.357533 0.684988 0.045780 0.155234
H26   H     H_    0.428515 0.714189 0.075491 0.138054
H27   H     H_    0.396517 0.587567 0.079936 0.134589
H28   H     H_    0.377976 0.669022 0.158270 0.152807
H29   H     H_    0.308123 0.666582 0.125196 0.210283
H30   H     H_    0.389261 0.857811 0.120733 0.126173
H31   H     H_    0.345915 0.837262 0.173562 0.144497
H32   H     H_    0.140367 0.189589 0.952774 0.155306
H33   H     H_    0.069766 0.220156 0.922789 0.138690
H34   H     H_    0.101113 0.092822 0.918172 0.134661
H35   H     H_    0.642756 0.950204 0.116881 0.137096
H36   H     H_    0.120518 0.173849 0.840138 0.151901
H37   H     H_    0.190134 0.169379 0.873477 0.211387
H38   H     H_    0.110491 0.362933 0.878270 0.126131
H39   H     H_    0.154174 0.341110 0.825618 0.140078
H40   H     H_    0.946308 0.302149 0.101344 0.137799
H41   H     H_    0.908744 0.420243 0.118835 0.172490
H42   H     H_    0.960768 0.360309 0.160988 0.141324
H43   H     H_    0.856571 0.326827 0.186905 0.179740
H44   H     H_    0.894621 0.210040 0.170568 0.144025
H45   H     H_    0.797380 0.193280 0.130996 0.180447
H46   H     H_    0.358860 0.983139 0.885337 0.138246
H47   H     H_    0.848851 0.218939 0.084679 0.115873
H48   H     H_    0.829644 0.002198 0.968039 0.102055
H49   H     H_    0.168079 0.005826 0.034114 0.102915
H50   H     H_    0.332534 0.503591 0.966708 0.102158
H51   H     H_    0.702052 0.586677 0.054060 0.107894
H52   H     H_    0.141210 0.490070 0.114282 0.138387
H53   H     H_    0.872013 0.500772 0.888463 0.134827
H54   H     H_    0.522648 0.333560 0.372948 0.121126
H55   H     H_    0.510822 0.307361 0.630971 0.108157
H56   H     H_    0.942552 0.694873 0.360316 0.101676
H57   H     H_    0.511844 0.998192 0.123936 0.123321
H58   H     H_    0.919926 0.809172 0.612341 0.137501
H59   H     H_    0.425294 0.039526 0.519969 0.101024
H60   H     H_    0.499546 0.008732 0.466490 0.098682
H61   H     H_    0.045882 0.531480 0.542029 0.104263
H62   H     H_    0.104383 0.646745 0.485066 0.110969
H63   H     H_    0.412973 0.024815 0.607723 0.134222
H64   H     H_    0.523587 0.000898 0.380460 0.126941
H65   H     H_    0.020334 0.527251 0.630157 0.119884
H66   H     H_    0.127523 0.643398 0.396933 0.109159
H67   H     H_    0.492403 0.341464 0.459977 0.095121
H68   H     H_    0.990739 0.500075 0.875607 0.123798
H69   H     H_    0.530380 0.315775 0.541407 0.096801
H70   H     H_    0.918631 0.699600 0.449476 0.110469
H71   H     H_    0.943446 0.810755 0.524401 0.102626
H72   H     H_    0.644619 0.990695 0.389750 0.135367
H73   H     H_    0.207376 0.824827 0.653325 0.101958
H74   H     H_    0.142889 0.458200 0.386373 0.140662
H75   H     H_    0.666428 0.456053 0.625943 0.116905
H76   H     H_    0.823416 0.010837 0.632935 0.124036
H77   H     H_    0.123480 0.880563 0.389231 0.131841
H78   H     H_    0.313203 0.522967 0.638247 0.119474
H79   H     H_    0.028115 0.495507 0.118871 0.125175
H80   H     H_    0.686364 0.525929 0.364864 0.119500
H81   H     H_    0.478575 0.904140 0.958287 0.097922
H82   H     H_    0.491058 0.905034 0.048290 0.095927
H83   H     H_    0.009938 0.406223 0.951196 0.098198
H84   H     H_    0.020248 0.404150 0.041384 0.100143
H85   H     H_    0.656235 0.964514 0.478152 0.113197
H86   H     H_    0.189163 0.759735 0.568291 0.108522
H87   H     H_    0.151714 0.447083 0.475699 0.104338
H88   H     H_    0.658654 0.428759 0.535947 0.107962
H89   H     H_    0.691653 0.797389 0.526881 0.108204
H90   H     H_    0.840188 0.976823 0.880116 0.131516
H91   H     H_    0.313486 0.787673 0.471975 0.108918
H92   H     H_    0.195881 0.298654 0.525780 0.114061
H93   H     H_    0.804739 0.294388 0.472842 0.105983
H94   H     H_    0.698017 0.763983 0.615006 0.136740
H95   H     H_    0.300894 0.755546 0.384186 0.139094
H96   H     H_    0.203984 0.257532 0.612757 0.138232
H97   H     H_    0.796374 0.256609 0.385649 0.141637
H98   H     H_    0.842948 0.895298 0.457959 0.096937
H99   H     H_    0.289096 0.014774 0.509552 0.120068
H100  H     H_    0.343483 0.435436 0.463711 0.104890
H101  H     H_    0.155300 0.970393 0.120514 0.135176
H102  H     H_    0.849747 0.455686 0.523677 0.111838
H103  H     H_    0.471418 0.328417 0.878771 0.119260
H104  H     H_    0.528454 0.329257 0.123379 0.123920
H105  H     H_    0.965191 0.829440 0.878941 0.123711
H106  H     H_    0.022409 0.827598 0.123567 0.118018
H107  H     H_    0.490447 0.424481 0.956476 0.099693
H108  H     H_    0.508146 0.425053 0.046324 0.101213
H109  H     H_    0.980952 0.924627 0.957129 0.099294
H110  H     H_    0.998482 0.923534 0.046996 0.099133
H111  H     H_    0.834966 0.958687 0.130507 0.116154
H112  H     H_    0.345532 0.468223 0.880212 0.133601
H113  H     H_    0.168180 0.946848 0.870981 0.114688
H114  H     H_    0.330984 0.440970 0.129236 0.114559
H115  H     H_    0.681341 0.548156 0.884991 0.119728
H116  H     H_    0.671932 0.813132 0.967394 0.091354
H117  H     H_    0.340308 0.858989 0.037350 0.105651
H118  H     H_    0.158803 0.363070 0.961998 0.105904
H119  H     H_    0.832653 0.349312 0.030915 0.100268
H120  H     H_    0.843251 0.916217 0.042414 0.110259
H121  H     H_    0.162000 0.915474 0.960198 0.110071
H122  H     H_    0.337047 0.409866 0.039842 0.111454
H123  H     H_    0.681175 0.519678 0.135903 0.129080
H124  H     H_    0.677107 0.521526 0.973636 0.101742
H125  H     H_    0.933708 0.176968 0.513376 0.148054
H126  H     H_    0.879098 0.273499 0.529146 0.150817
H127  H     H_    0.940023 0.247762 0.570776 0.144271
H128  H     H_    0.843531 0.170959 0.599159 0.167817
H129  H     H_    0.902200 0.076845 0.589052 0.157896
H130  H     H_    0.859320 0.038142 0.505744 0.138794
H131  H     H_    0.798915 0.126457 0.516315 0.154259
H132  H     H_    0.009715 0.956718 0.529188 0.157633
H133  H     H_    0.035510 0.081558 0.509471 0.151051
H134  H     H_    0.650492 0.919080 0.029644 0.106653
H135  H     H_    0.975749 0.017989 0.476150 0.135558
H136  H     H_    0.074021 0.009828 0.431998 0.162582
H137  H     H_    0.042907 0.884627 0.445808 0.177431
H138  H     H_    0.108614 0.870486 0.520031 0.152446
H139  H     H_    0.138616 0.996518 0.508447 0.156774
H140  H     H_    0.411732 0.721860 0.522658 0.140139
H141  H     H_    0.356975 0.810166 0.548037 0.165275
H142  H     H_    0.421734 0.776619 0.583610 0.145027
H143  H     H_    0.327353 0.687383 0.610813 0.166164
H144  H     H_    0.388696 0.602454 0.594974 0.162360
O1    O     O_R   0.769900 0.064540 0.196060 -0.535189
O2    O     O_R   0.433710 0.069580 0.694600 -0.521570
O3    O     O_R   0.066290 0.569580 0.305400 -0.512573
O4    O     O_R   0.933710 0.569580 0.694600 -0.522446
O5    O     O_R   0.680760 0.993330 0.302620 -0.506329
O6    O     O_R   0.319240 0.993330 0.697380 -0.503351
O7    O     O_R   0.180760 0.493330 0.302620 -0.506265
O8    O     O_R   0.819240 0.493330 0.697380 -0.501140
O9    O     O_3   0.668770 0.168760 0.250420 -0.233812
O10   O     O_3   0.331230 0.168760 0.749580 -0.236305
O11   O     O_3   0.168770 0.668760 0.250420 -0.259115
O12   O     O_R   0.230100 0.064540 0.803940 -0.535164
O13   O     O_3   0.831230 0.668760 0.749580 -0.255311
O14   O     O_R   0.750800 0.274080 0.199250 -0.515125
O15   O     O_R   0.249200 0.274080 0.800750 -0.507941
O16   O     O_R   0.250800 0.774080 0.199250 -0.503117
O17   O     O_R   0.749200 0.774080 0.800750 -0.528703
O18   O     O_R   0.669990 0.371670 0.194150 -0.520190
O19   O     O_R   0.330010 0.371670 0.805850 -0.524976
O20   O     O_R   0.169990 0.871670 0.194150 -0.517419
O21   O     O_R   0.830010 0.871670 0.805850 -0.521591
O22   O     O_R   0.574600 0.238480 0.197800 -0.500895
O23   O     O_R   0.269900 0.564540 0.196060 -0.533918
O24   O     O_R   0.425400 0.238480 0.802200 -0.499341
O25   O     O_R   0.074600 0.738480 0.197800 -0.498969
O26   O     O_R   0.925400 0.738480 0.802200 -0.501394
O27   O     O_R   0.566130 0.068680 0.194240 -0.527019
O28   O     O_R   0.433870 0.068680 0.805760 -0.530275
O29   O     O_R   0.066130 0.568680 0.194240 -0.528591
O30   O     O_R   0.933870 0.568680 0.805760 -0.535548
O31   O     O_R   0.680610 0.992490 0.199570 -0.503749
O32   O     O_R   0.319390 0.992490 0.800430 -0.504906
O33   O     O_R   0.180610 0.492490 0.199570 -0.499771
O34   O     O_R   0.730100 0.564540 0.803940 -0.531573
O35   O     O_R   0.819390 0.492490 0.800430 -0.495560
O36   O     O_R   0.770060 0.065440 0.307230 -0.517890
O37   O     O_R   0.229940 0.065440 0.692770 -0.514207
O38   O     O_R   0.270060 0.565440 0.307230 -0.528188
O39   O     O_R   0.729940 0.565440 0.692770 -0.514918
O40   O     O_R   0.750960 0.274920 0.302300 -0.504948
O41   O     O_R   0.249040 0.274920 0.697700 -0.506341
O42   O     O_R   0.250960 0.774920 0.302300 -0.502700
O43   O     O_R   0.749040 0.774920 0.697700 -0.503517
O44   O     O_R   0.670160 0.372580 0.305320 -0.520530
O45   O     O_R   0.574760 0.239320 0.300850 -0.501171
O46   O     O_R   0.329840 0.372580 0.694680 -0.519266
O47   O     O_R   0.170160 0.872580 0.305320 -0.513422
O48   O     O_R   0.829840 0.872580 0.694680 -0.526094
O49   O     O_R   0.425240 0.239320 0.699150 -0.496855
O50   O     O_R   0.074760 0.739320 0.300850 -0.521391
O51   O     O_R   0.925240 0.739320 0.699150 -0.501344
O52   O     O_R   0.566290 0.069580 0.305400 -0.527813

loop_
_geom_bond_atom_site_label_1
_geom_bond_atom_site_label_2
_ccdc_geom_bond_type
C21   C26   A    
C34   C56   A    
C98   H8    S    
C101  C113  A    
Cr9   O19   S    
C100  H22   S    
C149  H53   S    
C136  C140  A    
C121  C192  S    
C77   C168  A    
C123  H111  S    
C190  H104  S    
C1    O14   A    
Cr9   O49   S    
C14   H73   S    
C177  C182  A    
C141  O27   A    
C98   H9    S    
C29   C33   A    
C111  H44   S    
C144  O30   A    
C108  C109  S    
C88   H128  S    
C142  C146  S    
C110  C111  S    
C76   H79   S    
Cr5   O15   S    
C187  H70   S    
C152  C156  A    
C72   O7    A    
Cr3   O7    S    
C25   C60   S    
C151  C155  A    
C129  H121  S    
C81   C86   A    
Cr10  O20   S    
C54   C59   A    
C103  H18   S    
C41   O42   A    
C102  H20   S    
C130  C134  A    
C80   C83   A    
C115  H108  S    
C105  H29   S    
C92   H137  S    
C116  H107  S    
C25   C29   A    
C114  H42   S    
C159  C172  A    
Cr1   O14   S    
C27   C31   A    
C122  C149  A    
C28   C32   A    
C142  O28   A    
C39   O44   A    
C47   C64   A    
C120  C125  A    
C49   H95   S    
C132  C137  A    
C17   C21   A    
C97   H11   S    
C19   C23   A    
Cr3   O33   S    
Cr6   O11   S    
C152  C170  A    
C189  O1    A    
C32   H15   S    
C16   C20   A    
C152  H118  S    
Cr1   O1    S    
C135  C172  S    
Cr3   O3    S    
C160  H101  S    
C12   H72   S    
C129  C133  A    
C36   C91   S    
C141  C157  S    
C35   C190  A    
C106  H27   S    
C36   C44   A    
C88   H129  S    
C37   C45   A    
Cr11  O48   S    
C6    H66   S    
Cr7   O17   S    
C91   C92   S    
C43   C61   A    
C199  H59   S    
C95   H143  S    
C89   H125  S    
C49   C62   A    
C74   C157  A    
C52   H89   S    
C13   H106  S    
C196  C197  S    
C22   C58   S    
Cr7   O39   S    
C53   C58   A    
Cr10  O25   S    
C162  C175  A    
C119  C123  A    
C82   C85   A    
C108  H36   S    
C147  H46   S    
Cr12  O5    S    
C161  C174  A    
C77   C82   A    
C49   C53   A    
C51   C55   A    
C34   C87   S    
Cr7   O13   S    
C127  C131  A    
Cr11  O26   S    
C181  H54   S    
C69   O51   A    
C125  C129  A    
C48   C52   A    
C88   C89   S    
C98   C99   S    
C128  H120  S    
C7    H65   S    
Cr6   O16   S    
C180  C184  A    
C137  H134  S    
Cr2   O10   S    
C112  C174  S    
Cr6   O23   S    
C160  C173  A    
C193  O34   A    
C76   C179  A    
Cr10  O11   S    
C97   C98   S    
C81   C101  A    
C85   C86   A    
Cr9   O10   S    
C23   C59   S    
Cr6   O38   S    
C87   H130  S    
Cr11  O51   S    
C69   C180  S    
C104  H30   S    
C13   C57   A    
C115  C116  A    
C143  O25   A    
C69   O4    A    
C153  C158  A    
C87   H131  S    
C68   C118  A    
C182  H55   S    
C107  H39   S    
C79   C90   A    
C106  H25   S    
C112  O19   A    
C107  C108  S    
C5    H63   S    
C143  C179  S    
C135  O17   A    
C198  H60   S    
C143  O29   A    
Cr1   O36   S    
C4    C198  A    
C109  H33   S    
C89   H127  S    
Cr8   O22   S    
C191  O32   A    
C50   C63   A    
C126  H114  S    
Cr12  O52   S    
C195  C199  A    
C1    O18   A    
C75   C146  A    
C103  H19   S    
C66   C177  S    
C17   H85   S    
C139  C148  A    
C44   H77   S    
C145  H35   S    
C11   C33   A    
C131  C136  A    
C120  C191  S    
C134  C139  A    
C92   H136  S    
C192  O33   A    
C117  H110  S    
C109  H32   S    
C75   H1    S    
C66   O49   A    
C159  H90   S    
Cr8   O9    S    
C24   H105  S    
C186  H69   S    
C66   O2    A    
Cr12  O31   S    
C83   C84   A    
C99   H6    S    
C8    C12   A    
C125  H113  S    
C23   C28   A    
C148  H52   S    
C16   H75   S    
C35   C115  A    
C55   H93   S    
C37   C59   A    
C135  O21   A    
C38   C60   A    
C131  H124  S    
C150  H116  S    
C26   C30   A    
C4    C176  A    
C27   H99   S    
C142  O24   A    
C43   H76   S    
C100  C154  S    
C1    C175  S    
C107  H38   S    
C18   C22   A    
C34   C43   A    
Cr3   O29   S    
C82   C113  A    
C100  H23   S    
C67   C178  S    
C50   H96   S    
C40   O46   A    
C162  H123  S    
C104  H31   S    
C57   C101  A    
C8    C70   S    
C151  C169  A    
C184  H58   S    
Cr4   O13   S    
C117  C118  A    
C70   O36   A    
C194  C198  A    
C35   C79   A    
C7    C180  A    
Cr8   O18   S    
C104  C155  S    
C102  C103  S    
C161  C165  A    
C158  C175  A    
C134  C170  S    
C31   H14   S    
C165  H50   S    
C140  C149  A    
Cr7   O43   S    
Cr8   O44   S    
C10   C72   S    
C103  H17   S    
C87   C88   S    
C187  C196  A    
C124  O16   A    
Cr12  O9    S    
C41   O47   A    
C132  C167  S    
C185  C194  A    
C96   H141  S    
C5    C199  A    
C15   C19   A    
C39   C64   S    
C156  C174  A    
C94   H3    S    
C50   C54   A    
C40   C63   S    
C160  C164  A    
C77   H68   S    
C137  C145  A    
C3    C7    A    
C84   H82   S    
C20   C25   A    
C126  C130  A    
C65   O45   A    
C85   H83   S    
C86   H84   S    
C97   H10   S    
C182  C186  A    
C133  C169  S    
C157  C190  A    
C104  C105  S    
C162  C166  A    
C161  H112  S    
C70   O5    A    
C12   C17   A    
Cr4   O4    S    
Cr11  O13   S    
C178  C183  A    
C110  C158  S    
C68   C113  A    
C65   O52   A    
C194  C195  S    
C133  C138  A    
C55   C60   A    
C6    C178  A    
C111  H43   S    
Cr10  O50   S    
C41   C62   S    
C47   H80   S    
C3    H61   S    
C176  C181  A    
C53   H91   S    
C11   C73   S    
C191  O12   A    
Cr7   O34   S    
C91   H139  S    
C93   H135  S    
C112  O15   A    
C183  H56   S    
C96   H140  S    
C127  H115  S    
C9    C14   A    
Cr1   O40   S    
C183  C187  A    
C11   C16   A    
Cr2   O2    S    
C114  H40   S    
C164  H49   S    
C28   H100  S    
C121  C148  A    
C67   O3    A    
C71   O37   A    
C166  H51   S    
C99   H7    S    
Cr2   O32   S    
C18   H86   S    
C65   C176  S    
Cr5   O41   S    
C2    C146  A    
C122  C193  S    
C42   O43   A    
C57   C117  A    
Cr9   O46   S    
C165  C170  A    
C114  H41   S    
C138  H2    S    
C9    C71   S    
C153  H119  S    
C21   C56   S    
C46   C90   A    
C119  C145  A    
C105  C106  S    
C46   C116  A    
C108  H37   S    
C139  H13   S    
C8    C30   A    
C48   H94   S    
Cr10  O47   S    
C110  H47   S    
C6    C200  A    
C188  C197  A    
C200  H62   S    
C150  C167  A    
C26   H98   S    
C92   C93   S    
C111  C114  S    
C94   C95   S    
C24   C68   A    
C102  H21   S    
C106  H26   S    
C140  H24   S    
C73   O8    A    
Cr4   O30   S    
C51   H97   S    
Cr1   O9    S    
C89   H126  S    
C185  H67   S    
C192  O23   A    
C14   C18   A    
Cr3   O11   S    
C95   C96   S    
C196  C200  A    
C33   H16   S    
C123  C128  A    
C2    C46   A    
C141  O22   A    
C144  C168  S    
C24   C168  A    
Cr4   O35   S    
C36   C58   A    
C10   C15   A    
Cr5   O10   S    
C122  C127  A    
C15   H74   S    
C39   O40   A    
C20   H88   S    
C144  O26   A    
C99   H5    S    
C19   H87   S    
C124  O20   A    
C45   H78   S    
C136  C171  S    
C75   C80   A    
C74   C78   A    
C107  C156  S    
C155  C173  A    
C188  H71   S    
C166  C171  A    
C91   H138  S    
C164  C169  A    
C193  O35   A    
C38   C97   S    
C128  C132  A    
Cr8   O45   S    
C74   H57   S    
Cr4   O8    S    
C4    H64   S    
C186  C195  A    
C29   H102  S    
C110  H45   S    
C93   H133  S    
C71   O6    A    
C54   H92   S    
C118  H109  S    
C181  C185  A    
C78   C79   A    
C30   H12   S    
C124  C173  S    
C44   C62   A    
C13   C179  A    
C163  H48   S    
C45   C63   A    
Cr2   O28   S    
C184  C188  A    
C163  C167  A    
C10   C32   A    
C138  C147  A    
C42   O48   A    
C153  C171  A    
Cr12  O27   S    
C100  C102  S    
C51   C64   A    
C154  C172  A    
C93   H132  S    
C42   C61   S    
C5    C177  A    
C38   C47   A    
C151  H117  S    
C109  H34   S    
C159  C163  A    
C189  O31   A    
C2    H103  S    
C119  C189  S    
C96   H142  S    
C76   C81   A    
Cr5   O12   S    
C130  H122  S    
Cr2   O6    S    
C73   O39   A    
C94   H4    S    
C22   C27   A    
C72   O38   A    
C121  C126  A    
C40   O41   A    
Cr11  O21   S    
C67   O50   A    
C83   H81   S    
C48   C61   A    
C3    C197  A    
C105  H28   S    
Cr5   O37   S    
C37   C94   S    
Cr6   O42   S    
C80   C90   A    
C9    C31   A    
C78   C84   A    
C150  C154  A    
C95   H144  S    
Cr9   O24   S    
C120  C147  A    
C52   C56   A    
