data_mof_unit_32637.cif
_audit_creation_date              2012-12-10T17:54:17-0500
_audit_creation_method            fapswitch 2.2
_symmetry_space_group_name_H-M    P1
_symmetry_Int_Tables_number       1
_space_group_crystal_system       triclinic
_cell_length_a                    27.64291
_cell_length_b                    10.631637
_cell_length_c                    9.99862
_cell_angle_alpha                 92.808023
_cell_angle_beta                  91.293934
_cell_angle_gamma                 88.074733
_cell_volume                      2932.65802734

loop_
_atom_site_label
_atom_site_type_symbol
_atom_type_description
_atom_site_fract_x
_atom_site_fract_y
_atom_site_fract_z
_atom_type_partial_charge
Br1   Br    Br    0.360693 0.234427 0.494264 -0.265126
Br2   Br    Br    0.633214 0.091851 0.924355 -0.161118
Br3   Br    Br    0.240794 0.257185 0.443732 -0.264143
Br4   Br    Br    0.560719 0.860217 0.005248 -0.278425
Br5   Br    Br    0.454291 0.859933 0.827708 -0.331894
Br6   Br    Br    0.444223 0.861749 0.241620 -0.261305
Br7   Br    Br    0.405741 0.306970 0.186893 -0.276153
Br8   Br    Br    0.308423 0.505933 0.145450 -0.276407
Br9   Br    Br    0.317962 0.678917 0.872812 -0.258879
Br10  Br    Br    0.605253 0.451392 0.868113 -0.292645
Br11  Br    Br    0.642757 0.300238 0.295658 -0.277741
Br12  Br    Br    0.248521 0.794869 0.573813 -0.220097
Br13  Br    Br    0.762748 0.308171 0.312623 -0.281074
Br14  Br    Br    0.367357 0.777991 0.530317 -0.311483
Br15  Br    Br    0.124020 0.845340 0.287128 -0.283369
Br16  Br    Br    0.980732 0.656696 0.144620 -0.464738
Br17  Br    Br    0.632536 0.730888 0.678769 -0.352365
Br18  Br    Br    0.864323 0.665216 0.136457 -0.271060
Br19  Br    Br    0.753124 0.728154 0.695841 -0.250906
Br20  Br    Br    0.506711 0.114523 0.192809 -0.273140
Br21  Br    Br    0.618110 0.212505 0.623974 -0.339069
C1    C     C_R   0.507016 0.260506 0.496374 0.959221
C2    C     C_R   0.976130 0.470728 0.629742 0.037166
C3    C     C_R   0.973544 0.593189 0.427102 -0.037936
C4    C     C_R   0.406519 0.500318 0.499026 1.007056
C5    C     C_R   0.949324 0.527946 0.525064 0.022995
C6    C     C_R   0.951003 0.424846 0.738732 0.141425
C7    C     C_R   0.900974 0.403974 0.725694 0.153965
C8    C     C_R   0.873936 0.457897 0.618426 -0.051902
C9    C     C_R   0.898403 0.521288 0.518993 -0.122178
C10   C     C_R   0.872004 0.576743 0.412142 -0.158020
C11   C     C_R   0.821229 0.580169 0.416486 0.651152
C12   C     C_R   0.277282 0.406196 0.485348 0.299360
C13   C     C_R   0.822876 0.455612 0.608720 0.623388
C14   C     C_R   0.724003 0.425961 0.421007 0.277945
C15   C     C_R   0.673511 0.422466 0.416648 0.212128
C16   C     C_R   0.495747 0.741381 0.503056 0.930652
C17   C     C_R   0.669473 0.600247 0.582192 0.207029
C18   C     C_R   0.719983 0.603303 0.585323 0.294930
C19   C     C_R   0.746891 0.515341 0.506035 0.034964
C20   C     C_R   0.027345 0.461207 0.620923 0.030705
C21   C     C_R   0.050894 0.538425 0.534443 0.091627
C22   C     C_R   0.023562 0.613682 0.446639 0.034917
C23   C     C_R   0.253458 0.524432 0.508814 0.023585
C24   C     C_R   0.055383 0.371753 0.690167 -0.193504
C25   C     C_R   0.097151 0.709806 0.379055 0.342551
C26   C     C_R   0.947690 0.628157 0.309584 0.184810
C27   C     C_R   0.897044 0.622724 0.303278 0.301202
C28   C     C_R   0.593656 0.501815 0.500769 1.002966
C29   C     C_R   0.046996 0.709717 0.384848 -0.184417
C30   C     C_R   0.570720 0.103685 0.686629 0.218167
C31   C     C_R   0.580246 0.042751 0.806909 0.239169
C32   C     C_R   0.549959 0.947132 0.842226 0.226224
C33   C     C_R   0.513338 0.907520 0.752598 0.257996
C34   C     C_R   0.101957 0.539145 0.533533 -0.124164
C35   C     C_R   0.511804 0.948354 0.620746 -0.087429
C36   C     C_R   0.533027 0.062112 0.598707 -0.108768
C37   C     C_R   0.517828 0.125413 0.484594 -0.155783
C38   C     C_R   0.499582 0.057337 0.371741 0.283203
C39   C     C_R   0.482866 0.937690 0.386647 0.262852
C40   C     C_R   0.180460 0.469738 0.617602 0.605660
C41   C     C_R   0.491857 0.878951 0.508815 -0.146062
C42   C     C_R   0.412218 0.470682 0.118952 0.227337
C43   C     C_R   0.369906 0.525332 0.063922 0.215889
C44   C     C_R   0.372808 0.589067 0.945512 0.247210
C45   C     C_R   0.129776 0.460298 0.617946 -0.018267
C46   C     C_R   0.415960 0.581294 0.874863 -0.176840
C47   C     C_R   0.457958 0.523513 0.928920 0.050212
C48   C     C_R   0.457248 0.498215 0.066999 0.049648
C49   C     C_R   0.541547 0.491205 0.075828 -0.031140
C50   C     C_R   0.541731 0.482673 0.934314 0.342020
C51   C     C_R   0.175049 0.600720 0.430527 0.637041
C52   C     C_R   0.280295 0.634602 0.526792 0.328003
C53   C     C_R   0.330620 0.626778 0.515804 0.173093
C54   C     C_R   0.327837 0.397416 0.489544 0.209422
C55   C     C_3   0.132620 0.274145 0.774258 -0.650166
C56   C     C_R   0.105944 0.372625 0.694157 0.161171
C57   C     C_3   0.877545 0.324776 0.827482 -0.657349
C58   C     C_3   0.974378 0.422555 0.877626 -0.800205
C59   C     C_R   0.125034 0.617716 0.446141 -0.127805
C60   C     C_R   0.354171 0.508151 0.498576 -0.292698
C61   C     C_R   0.646278 0.507171 0.501161 -0.267066
H1    H     H_    0.026334 0.785732 0.340458 0.209913
H2    H     H_    0.857661 0.247213 0.775038 0.272860
H3    H     H_    0.948602 0.462876 0.952957 0.290567
H4    H     H_    0.984445 0.324787 0.903956 0.228089
H5    H     H_    0.006614 0.482046 0.887104 0.275991
H6    H     H_    0.575309 0.485432 0.132087 0.202703
H7    H     H_    0.417021 0.632415 0.785791 0.245090
H8    H     H_    0.037924 0.297788 0.739084 0.169347
H9    H     H_    0.107672 0.206694 0.815407 0.213919
H10   H     H_    0.158402 0.218421 0.709481 0.278475
H11   H     H_    0.152075 0.319938 0.860875 0.282108
H12   H     H_    0.903935 0.276416 0.894033 0.219788
H13   H     H_    0.853051 0.384770 0.892095 0.289581
N1    N     N_R   0.201772 0.531945 0.519166 -0.334272
N2    N     N_R   0.798488 0.517368 0.510728 -0.330516
N3    N     N_R   0.499540 0.498800 0.142780 -0.117915
N4    N     N_R   0.499520 0.498720 0.857170 -0.130222
O1    O     O_R   0.500000 0.316780 0.614690 -0.594397
O2    O     O_R   0.571250 0.499990 0.614680 -0.552638
O3    O     O_R   0.571240 0.499970 0.385350 -0.620212
O4    O     O_2   0.208598 0.417305 0.713153 -0.497711
O5    O     O_2   0.796943 0.395684 0.697173 -0.499813
O6    O     O_2   0.197033 0.649920 0.326964 -0.425486
O7    O     O_2   0.794108 0.647546 0.330169 -0.443815
O8    O     O_R   0.500000 0.316750 0.385360 -0.563411
O9    O     O_R   0.428760 0.500030 0.614650 -0.636009
O10   O     O_R   0.428750 0.500010 0.385320 -0.589462
O11   O     O_R   0.500000 0.683250 0.614640 -0.602252
O12   O     O_R   0.500000 0.683220 0.385310 -0.583281
Zn1   Zn    Zn3+2 0.500000 0.500020 0.653130 1.053546
Zn2   Zn    Zn3+2 0.500000 0.499980 0.346870 1.072215

loop_
_geom_bond_atom_site_label_1
_geom_bond_atom_site_label_2
_ccdc_geom_bond_type
Br4   C32   S    
C52   C53   A    
C14   C15   A    
Br21  C30   S    
C49   H6    S    
C58   H5    S    
C16   C41   S    
C40   N1    A    
C32   C33   A    
C11   N2    A    
O2    Zn1   S    
Br19  C18   S    
Br11  C15   S    
C40   O4    S    
C3    C5    A    
Br13  C14   S    
C6    C58   S    
C28   O2    A    
C9    C10   A    
C21   C34   A    
Br3   C12   S    
C1    O8    A    
C46   H7    S    
C13   N2    A    
C35   C36   A    
C39   C41   A    
C20   C21   A    
C2    C5    A    
O8    Zn2   S    
C40   C45   A    
C12   C54   A    
C42   C48   A    
C15   C61   A    
C47   C48   A    
C44   C46   A    
C49   C50   A    
C30   C36   A    
C2    C6    A    
C7    C57   S    
O10   Zn2   S    
C48   N3    A    
C38   C39   A    
C11   O7    S    
Br12  C52   S    
C17   C61   A    
C4    C60   S    
C12   C23   A    
Br16  C26   S    
C29   H1    S    
Br9   C44   S    
C33   C35   A    
C1    O1    A    
C46   C47   A    
Br1   C54   S    
Br6   C39   S    
Br5   C33   S    
C55   C56   S    
C28   O3    A    
C54   C60   A    
N3    Zn2   S    
C37   C38   A    
C50   N4    A    
C8    C13   A    
C13   O5    S    
O9    Zn1   S    
C51   N1    A    
C28   C61   S    
C8    C9    A    
C23   N1    S    
C55   H11   S    
C26   C27   A    
C57   H13   S    
O12   Zn2   S    
Br20  C38   S    
C24   H8    S    
Br7   C42   S    
C16   O11   A    
Br2   C31   S    
C55   H10   S    
Br8   C43   S    
O1    Zn1   S    
C10   C27   A    
C35   C41   A    
C21   C22   A    
C53   C60   A    
Br14  C53   S    
C58   H3    S    
C34   C45   A    
C31   C32   A    
C45   C56   A    
C7    C8    A    
C3    C26   A    
C10   C11   A    
Br18  C27   S    
C1    C37   S    
C22   C29   A    
C5    C9    A    
C4    O10   A    
C25   C29   A    
C2    C20   A    
C43   C44   A    
C14   C19   A    
C47   N4    A    
C30   C31   A    
C19   N2    S    
O3    Zn2   S    
Br10  C50   S    
C25   C59   A    
C34   C59   A    
C36   C37   A    
C17   C18   A    
C57   H12   S    
N4    Zn1   S    
Br17  C17   S    
C23   C52   A    
O11   Zn1   S    
C16   O12   A    
C55   H9    S    
C42   C43   A    
C18   C19   A    
C57   H2    S    
C51   O6    S    
C51   C59   A    
C6    C7    A    
C3    C22   A    
C20   C24   A    
C24   C56   A    
Br15  C25   S    
C58   H4    S    
C49   N3    A    
C4    O9    A    
