data_mof_unit_57686.cif
_audit_creation_date              2012-12-11T14:17:53-0500
_audit_creation_method            fapswitch 2.2
_symmetry_space_group_name_H-M    P1
_symmetry_Int_Tables_number       1
_space_group_crystal_system       triclinic
_cell_length_a                    11.18037
_cell_length_b                    11.214278
_cell_length_c                    18.655969
_cell_angle_alpha                 89.879271
_cell_angle_beta                  89.872455
_cell_angle_gamma                 120.759931
_cell_volume                      2009.9947728

loop_
_atom_site_label
_atom_site_type_symbol
_atom_type_description
_atom_site_fract_x
_atom_site_fract_y
_atom_site_fract_z
_atom_type_partial_charge
C1    C     C_R   0.518083 0.457330 0.147484 0.616918
C2    C     C_R   0.956562 0.381059 0.544509 -0.076826
C3    C     C_R   0.348497 0.866143 0.518172 -0.175157
C4    C     C_R   0.564528 0.627722 0.526821 -0.155559
C5    C     C_R   0.732033 0.017225 0.546658 0.384732
C6    C     C_R   0.894194 0.662679 0.586777 0.423116
C7    C     C_R   0.231978 0.287613 0.555337 0.375857
C8    C     C_R   0.995195 0.736335 0.447138 0.363589
C9    C     C_R   0.687227 0.914580 0.407208 0.383059
C10   C     C_R   0.394622 0.218906 0.475519 0.389019
C11   C     C_R   0.842948 0.038178 0.503153 -0.212056
C12   C     C_R   0.542393 0.060520 0.147755 0.600016
C13   C     C_R   0.913601 0.784523 0.557240 -0.162989
C14   C     C_R   0.194202 0.150565 0.549534 -0.140597
C15   C     C_R   0.972798 0.824557 0.489617 -0.195582
C16   C     C_R   0.820279 0.983252 0.434454 -0.160373
C17   C     C_R   0.277004 0.116677 0.511031 -0.122351
C18   C     C_R   0.545209 0.425416 0.362291 0.595445
C19   C     C_R   0.535970 0.046053 0.347468 0.646648
C20   C     C_R   0.931950 0.480562 0.356334 0.581851
C21   C     C_R   0.420856 0.545435 0.637827 0.546646
C22   C     C_R   0.053299 0.539042 0.649203 0.589867
C23   C     C_R   0.939491 0.482763 0.147730 0.603019
C24   C     C_R   0.457301 0.880658 0.637541 0.536899
C25   C     C_R   0.507561 0.996504 0.925117 0.046037
C26   C     C_R   0.001499 0.508597 0.924947 0.047394
C27   C     C_R   0.491067 0.491751 0.924332 0.047750
C28   C     C_R   0.998824 0.509146 0.075288 0.047372
C29   C     C_R   0.508196 0.000636 0.075573 0.049097
C30   C     C_R   0.493775 0.489862 0.074719 0.046045
C31   C     C_R   0.405448 0.009390 0.962550 -0.030863
C32   C     C_R   0.991231 0.395680 0.963267 -0.031980
C33   C     C_R   0.607047 0.594586 0.961521 -0.032641
C34   C     C_R   0.457565 0.517611 0.852178 0.620856
C35   C     C_R   0.012465 0.407731 0.038250 -0.029195
C36   C     C_R   0.394268 0.989102 0.037724 -0.029745
C37   C     C_R   0.597470 0.604893 0.036666 -0.033807
C38   C     C_R   0.615527 0.999140 0.037396 -0.150325
C39   C     C_R   0.996633 0.614937 0.036299 -0.154562
C40   C     C_R   0.385064 0.380945 0.036603 -0.152034
C41   C     C_R   0.000099 0.615777 0.962767 -0.152929
C42   C     C_R   0.614038 0.994844 0.963828 -0.153550
C43   C     C_R   0.382258 0.383334 0.963079 -0.152287
C44   C     C_R   0.313396 0.040766 0.927915 0.394950
C45   C     C_R   0.060629 0.542452 0.852380 0.610295
C46   C     C_R   0.961752 0.271685 0.929669 0.392980
C47   C     C_R   0.731164 0.689239 0.926385 0.392791
C48   C     C_R   0.043980 0.316287 0.073340 0.395002
C49   C     C_R   0.270453 0.960262 0.072138 0.392118
C50   C     C_R   0.692176 0.729679 0.070544 0.392002
C51   C     C_R   0.199415 0.026751 0.964855 -0.184560
C52   C     C_R   0.978658 0.174918 0.967278 -0.186655
C53   C     C_R   0.830394 0.805299 0.962484 -0.186698
C54   C     C_R   0.028032 0.201359 0.037389 -0.182280
C55   C     C_R   0.173599 0.978129 0.035265 -0.185336
C56   C     C_R   0.482339 0.938906 0.852458 0.619655
C57   C     C_R   0.806264 0.829851 0.032743 -0.187722
C58   C     C_R   0.469778 0.907289 0.558538 0.026700
C59   C     C_R   0.965619 0.489872 0.583882 0.053249
C60   C     C_R   0.444068 0.526364 0.562218 0.011138
C61   C     C_R   0.968865 0.498540 0.433250 0.014880
C62   C     C_R   0.484451 0.943016 0.408415 0.084286
C63   C     C_R   0.531128 0.460039 0.436126 0.031405
C64   C     C_R   0.594782 0.947034 0.519018 -0.004871
C65   C     C_R   0.937408 0.582792 0.548519 -0.025041
C66   C     C_R   0.363050 0.393646 0.530121 0.011023
C67   C     C_R   0.359864 0.899399 0.444355 -0.095242
C68   C     C_R   0.967693 0.606217 0.474524 -0.033488
C69   C     C_R   0.582371 0.922361 0.444586 -0.014340
C70   C     C_R   0.428009 0.356829 0.478836 0.003433
C71   C     C_R   0.957970 0.384199 0.469980 -0.150674
C72   C     C_R   0.602828 0.596881 0.461396 -0.130627
Cr1   Cr    Cr6+3 0.768550 0.541320 0.250660 1.177933
Cr2   Cr    Cr6+3 0.458680 0.227230 0.250660 1.141337
Cr3   Cr    Cr6+3 0.772770 0.231450 0.250660 1.136819
Cr4   Cr    Cr6+3 0.541320 0.768550 0.749340 1.156603
Cr5   Cr    Cr6+3 0.227230 0.458680 0.749340 1.169573
Cr6   Cr    Cr6+3 0.231450 0.772770 0.749340 1.129711
F1    F     F_    0.338437 0.094393 0.860494 -0.591745
F2    F     F_    0.056316 0.787951 0.382696 -0.618480
F3    F     F_    0.665667 0.862918 0.339543 -0.574483
F4    F     F_    0.491270 0.191404 0.451375 -0.659498
F5    F     F_    0.907419 0.239256 0.862618 -0.586269
F6    F     F_    0.760366 0.666034 0.858901 -0.573884
F7    F     F_    0.098077 0.341983 0.140504 -0.600308
F8    F     F_    0.238697 0.906626 0.139543 -0.594466
F9    F     F_    0.669558 0.759646 0.137943 -0.576404
F10   F     F_    0.764948 0.086752 0.609521 -0.585063
F11   F     F_    0.839960 0.625818 0.653946 -0.556149
F12   F     F_    0.146667 0.314743 0.592381 -0.650952
H1    H     H_    0.132164 0.053424 0.937660 0.135803
H2    H     H_    0.006050 0.926473 0.470005 0.137278
H3    H     H_    0.906141 0.001815 0.400072 0.171742
H4    H     H_    0.246472 0.011090 0.510276 0.133177
H5    H     H_    0.704888 0.006795 0.064133 0.182785
H6    H     H_    0.986789 0.695581 0.062350 0.179852
H7    H     H_    0.303211 0.290142 0.063410 0.176351
H8    H     H_    0.007161 0.704561 0.935762 0.181672
H9    H     H_    0.695139 0.985484 0.937521 0.179606
H10   H     H_    0.290958 0.301882 0.936790 0.176240
H11   H     H_    0.278730 0.904260 0.416965 0.213815
H12   H     H_    0.954189 0.080941 0.940704 0.135591
H13   H     H_    0.949072 0.296539 0.441084 0.153594
H14   H     H_    0.690004 0.677711 0.431909 0.179335
H15   H     H_    0.947342 0.294021 0.572173 0.269667
H16   H     H_    0.248796 0.823352 0.544968 0.122038
H17   H     H_    0.629219 0.728972 0.550097 0.129967
H18   H     H_    0.923977 0.875496 0.934382 0.141047
H19   H     H_    0.053122 0.133520 0.065266 0.137182
H20   H     H_    0.080422 0.955489 0.062810 0.139387
H21   H     H_    0.874857 0.925170 0.059207 0.136818
H22   H     H_    0.947193 0.101218 0.521929 0.160518
H23   H     H_    0.889695 0.851095 0.588304 0.163607
H24   H     H_    0.104697 0.071350 0.578329 0.146419
O1    O     O_R   0.910960 0.572410 0.171010 -0.497779
O2    O     O_R   0.528530 0.639750 0.824400 -0.446344
O3    O     O_R   0.111220 0.471470 0.824400 -0.451564
O4    O     O_R   0.360250 0.888780 0.824400 -0.446629
O5    O     O_R   0.909330 0.572400 0.331540 -0.425022
O6    O     O_R   0.427600 0.336930 0.331540 -0.480258
O7    O     O_R   0.663070 0.090670 0.331540 -0.468632
O8    O     O_R   0.572400 0.909330 0.668460 -0.410519
O9    O     O_R   0.336930 0.427600 0.668460 -0.408707
O10   O     O_R   0.090670 0.663070 0.668460 -0.492374
O11   O     O_R   0.638240 0.528520 0.324410 -0.470407
O12   O     O_R   0.427590 0.338550 0.171010 -0.506686
O13   O     O_R   0.471480 0.109720 0.324410 -0.452836
O14   O     O_R   0.890280 0.361760 0.324410 -0.502934
O15   O     O_R   0.528520 0.638240 0.675590 -0.474992
O16   O     O_R   0.109720 0.471480 0.675590 -0.438238
O17   O     O_R   0.361760 0.890280 0.675590 -0.473571
O18   O     O_3   0.666667 0.333333 0.250630 -0.351683
O19   O     O_3   0.333333 0.666667 0.749370 -0.382640
O20   O     O_R   0.661450 0.089040 0.171010 -0.494766
O21   O     O_R   0.572410 0.910960 0.828990 -0.494332
O22   O     O_R   0.338550 0.427590 0.828990 -0.502193
O23   O     O_R   0.089040 0.661450 0.828990 -0.491288
O24   O     O_R   0.639750 0.528530 0.175600 -0.443006
O25   O     O_R   0.471470 0.111220 0.175600 -0.461284
O26   O     O_R   0.888780 0.360250 0.175600 -0.453279

loop_
_geom_bond_atom_site_label_1
_geom_bond_atom_site_label_2
_ccdc_geom_bond_type
C25   C31   A    
C26   C32   A    
Cr1   O5    S    
Cr2   O18   S    
C12   C29   S    
C53   H18   S    
C25   C56   S    
C4    C72   A    
C61   C68   A    
Cr3   O20   S    
C39   C41   A    
C66   C70   A    
C27   C33   A    
C48   C54   A    
C29   C36   A    
C52   H12   S    
C16   H3    S    
C62   C67   A    
Cr6   O4    S    
C9    C16   A    
C9    C69   A    
C20   O14   A    
Cr5   O3    S    
Cr3   O26   S    
C31   C36   A    
C18   O11   A    
C18   C63   S    
Cr1   O24   S    
C10   C17   A    
C34   O2    A    
C46   C52   A    
Cr3   O14   S    
C11   C16   A    
C20   C61   S    
C26   C45   S    
C51   H1    S    
C15   H2    S    
C5    F10   S    
C7    C14   A    
C30   C37   A    
C28   C35   A    
C38   H5    S    
Cr5   O22   S    
Cr6   O10   S    
C47   C53   A    
C61   C71   A    
Cr1   O18   S    
C60   C66   A    
C27   C34   S    
C12   O20   A    
C22   O16   A    
C14   C17   A    
Cr5   O19   S    
C35   C48   A    
C24   O8    A    
Cr4   O21   S    
C52   C54   A    
C6    C65   A    
C3    H16   S    
C58   C64   A    
C4    H17   S    
C31   C44   A    
C32   C35   A    
C23   O26   A    
C43   H10   S    
C21   C60   S    
C22   C59   S    
C53   C57   A    
C2    C59   A    
C72   H14   S    
C28   C39   A    
C49   C55   A    
C7    F12   S    
C10   F4    S    
C33   C37   A    
C54   H19   S    
C29   C38   A    
Cr6   O17   S    
C3    C58   A    
Cr5   O9    S    
Cr4   O15   S    
Cr2   O13   S    
C63   C70   A    
C34   O22   A    
C65   C68   A    
C4    C60   A    
C45   O23   A    
C12   O25   A    
C30   C40   A    
Cr2   O12   S    
C47   F6    S    
C1    O12   A    
C21   O15   A    
C50   F9    S    
C10   C70   A    
C44   C51   A    
C8    C68   A    
C8    C15   A    
C13   C15   A    
C5    C11   A    
C33   C47   A    
C23   C28   S    
C2    C71   A    
Cr6   O23   S    
C18   O6    A    
C40   H7    S    
C56   O21   A    
Cr2   O6    S    
Cr3   O18   S    
C67   H11   S    
C45   O3    A    
C71   H13   S    
C19   O7    A    
C11   H22   S    
Cr3   O7    S    
C50   C57   A    
C32   C46   A    
C49   F8    S    
C48   F7    S    
C44   F1    S    
C3    C67   A    
C25   C42   A    
Cr4   O19   S    
C22   O10   A    
C17   H4    S    
C6    F11   S    
C64   C69   A    
Cr2   O25   S    
C2    H15   S    
Cr1   O1    S    
C5    C64   A    
Cr4   O8    S    
C40   C43   A    
C55   H20   S    
C14   H24   S    
C42   H9    S    
C59   C65   A    
C7    C66   A    
C56   O4    A    
C37   C50   A    
C24   O17   A    
C57   H21   S    
Cr1   O11   S    
C19   O13   A    
C1    C30   S    
Cr4   O2    S    
C51   C55   A    
Cr5   O16   S    
Cr6   O19   S    
C39   H6    S    
C36   C49   A    
C23   O1    A    
C46   F5    S    
C38   C42   A    
C27   C43   A    
C63   C72   A    
C62   C69   A    
C24   C58   S    
C8    F2    S    
C41   H8    S    
C21   O9    A    
C19   C62   S    
C20   O5    A    
C13   H23   S    
C1    O24   A    
C26   C41   A    
C9    F3    S    
C6    C13   A    
