data_mof_unit_46366.cif
_audit_creation_date              2012-12-10T18:54:31-0500
_audit_creation_method            fapswitch 2.2
_symmetry_space_group_name_H-M    P1
_symmetry_Int_Tables_number       1
_space_group_crystal_system       triclinic
_cell_length_a                    19.350565
_cell_length_b                    18.181191
_cell_length_c                    9.079042
_cell_angle_alpha                 90.008689
_cell_angle_beta                  90.023517
_cell_angle_gamma                 90.062656
_cell_volume                      3194.15291355

loop_
_atom_site_label
_atom_site_type_symbol
_atom_type_description
_atom_site_fract_x
_atom_site_fract_y
_atom_site_fract_z
_atom_type_partial_charge
C1    C     C_R   0.367735 0.499928 0.499361 0.991326
C2    C     C_R   0.632151 0.500038 0.499771 1.016400
C3    C     C_R   0.458330 0.721278 0.595126 0.707509
C4    C     C_R   0.540788 0.278760 0.596960 0.698641
C5    C     C_R   0.541724 0.721136 0.404608 0.698280
C6    C     C_R   0.459268 0.278798 0.402698 0.706221
C7    C     C_R   0.457934 0.798546 0.596928 -0.312744
C8    C     C_R   0.541051 0.201490 0.599106 -0.312224
C9    C     C_R   0.542158 0.798391 0.402087 -0.313662
C10   C     C_R   0.459015 0.201551 0.399973 -0.314949
C11   C     C_R   0.500062 0.838423 0.499327 0.028717
C12   C     C_R   0.500012 0.161518 0.499417 0.027698
C13   C     C_R   0.562818 0.961151 0.504666 0.284090
C14   C     C_R   0.437195 0.038679 0.498669 0.283286
C15   C     C_R   0.437319 0.960952 0.492793 0.285741
C16   C     C_R   0.562842 0.038880 0.498929 0.283153
C17   C     C_R   0.500006 0.078641 0.499118 -0.157416
C18   C     C_R   0.500077 0.921242 0.499002 -0.158488
C19   C     C_R   0.500014 0.499996 0.220458 0.879753
C20   C     C_R   0.500016 0.500003 0.779543 0.873182
C21   C     C_1   0.500027 0.499995 0.065500 -0.060402
C22   C     C_1   0.500028 0.500004 0.934505 -0.063897
C23   C     C_R   0.745691 0.473625 0.612747 0.468484
C24   C     C_R   0.253617 0.539766 0.594912 0.464177
C25   C     C_R   0.259050 0.458362 0.382941 0.483074
C26   C     C_R   0.740597 0.525281 0.366275 0.469958
C27   C     C_R   0.817647 0.473112 0.605628 0.552313
C28   C     C_R   0.181592 0.537475 0.589624 0.575150
C29   C     C_R   0.187207 0.457865 0.374993 0.463123
C30   C     C_R   0.812415 0.522810 0.357203 0.547199
C31   C     C_R   0.851432 0.496902 0.477047 -0.304826
C32   C     C_R   0.148144 0.496178 0.479982 -0.208033
C33   C     C_R   0.707189 0.500052 0.493416 -0.492752
C34   C     C_R   0.292478 0.499399 0.492709 -0.487250
C35   C     C_R   0.964183 0.560437 0.443571 0.350368
C36   C     C_R   0.036388 0.428638 0.499209 0.356890
C37   C     C_R   0.036403 0.559585 0.438076 0.302455
C38   C     C_R   0.963572 0.427755 0.490358 0.337740
C39   C     C_R   0.072287 0.494682 0.472274 -0.041083
C40   C     C_R   0.927499 0.494558 0.467538 -0.066471
Cu1   Cu    Cu3+1 0.500000 0.573360 0.500000 1.107449
Cu2   Cu    Cu3+1 0.500000 0.426640 0.500000 1.108055
H1    H     H_    0.425223 0.826986 0.675073 0.208884
H2    H     H_    0.572875 0.173154 0.679071 0.209980
H3    H     H_    0.574872 0.826684 0.323645 0.208932
H4    H     H_    0.427260 0.173291 0.319658 0.211060
N1    N     N_R   0.500000 0.683620 0.500000 -0.294376
N2    N     N_R   0.500000 0.316380 0.500000 -0.293660
O1    O     O_R   0.400190 0.561980 0.499980 -0.536611
O2    O     O_R   0.599810 0.438020 0.500020 -0.546027
O3    O     O_R   0.599810 0.561980 0.500020 -0.542008
O4    O     O_R   0.400190 0.438020 0.499980 -0.537963
O5    O     O_R   0.500000 0.561940 0.288400 -0.548995
O6    O     O_R   0.500000 0.438060 0.711600 -0.546839
O7    O     O_R   0.500000 0.561940 0.711600 -0.548141
O8    O     O_R   0.500000 0.438060 0.288400 -0.544740
F1    F     F_    0.713518 0.449677 0.736730 -0.557147
F2    F     F_    0.285428 0.579554 0.701894 -0.555821
F3    F     F_    0.296119 0.420805 0.280665 -0.555373
F4    F     F_    0.703432 0.550124 0.249533 -0.558612
F5    F     F_    0.854396 0.450245 0.724522 -0.549241
F6    F     F_    0.144383 0.575034 0.691646 -0.580763
F7    F     F_    0.155770 0.421715 0.262608 -0.623158
F8    F     F_    0.843879 0.544034 0.230440 -0.558319
O9    O     O_3   0.929276 0.625871 0.421346 -0.519855
C41   C     C_3   0.921450 0.661659 0.558339 0.113629
H5    H     H_    0.972491 0.680549 0.600638 0.193520
H6    H     H_    0.896805 0.624976 0.641615 0.156814
C42   C     C_3   0.875183 0.728485 0.538293 -0.740185
H7    H     H_    0.823536 0.710999 0.497744 0.260505
H8    H     H_    0.868765 0.757369 0.645198 0.203739
H9    H     H_    0.898623 0.767007 0.457535 0.256622
O10   O     O_3   0.072772 0.369161 0.555625 -0.530712
C43   C     C_3   0.071594 0.308993 0.457100 0.129728
H10   H     H_    0.067546 0.325860 0.339319 0.174772
H11   H     H_    0.027684 0.272237 0.484826 0.173977
C44   C     C_3   0.137826 0.264832 0.475600 -0.712650
H12   H     H_    0.142423 0.244920 0.590845 0.244838
H13   H     H_    0.137159 0.216669 0.400381 0.201233
H14   H     H_    0.183420 0.299504 0.449147 0.278327
O11   O     O_3   0.072143 0.624266 0.412917 -0.540980
C45   C     C_3   0.082533 0.631849 0.259857 0.109323
H15   H     H_    0.032266 0.639300 0.201936 0.195793
H16   H     H_    0.109760 0.583105 0.213221 0.175010
C46   C     C_3   0.127093 0.699329 0.231573 -0.722231
H17   H     H_    0.177957 0.692993 0.286922 0.250225
H18   H     H_    0.135600 0.706037 0.111367 0.227885
H19   H     H_    0.101038 0.749272 0.274792 0.249137
O12   O     O_3   0.928149 0.363350 0.521473 -0.510278
C47   C     C_3   0.900642 0.334013 0.389458 0.062002
H20   H     H_    0.941978 0.324098 0.306599 0.127226
H21   H     H_    0.861407 0.371069 0.339995 0.167483
C48   C     C_3   0.865365 0.261114 0.422896 -0.740805
H22   H     H_    0.822552 0.269734 0.502505 0.270493
H23   H     H_    0.843859 0.237351 0.319914 0.207633
H24   H     H_    0.903099 0.221777 0.470577 0.240197
F9    F     F_    0.416796 0.684157 0.689525 -0.589450
F10   F     F_    0.581649 0.315911 0.692746 -0.600565
F11   F     F_    0.583310 0.683876 0.310647 -0.597847
F12   F     F_    0.418540 0.315967 0.306902 -0.587044
O13   O     O_3   0.625249 0.924305 0.508264 -0.555308
C49   C     C_3   0.644032 0.912788 0.656665 0.113277
H25   H     H_    0.603048 0.882155 0.717443 0.136325
H26   H     H_    0.653993 0.966220 0.712908 0.165430
C50   C     C_3   0.709894 0.867271 0.661751 -0.749294
H27   H     H_    0.752273 0.896674 0.603889 0.251989
H28   H     H_    0.725390 0.857857 0.778002 0.205758
H29   H     H_    0.701186 0.813227 0.607661 0.256499
O14   O     O_3   0.374708 0.075436 0.496108 -0.556071
C51   C     C_3   0.352858 0.087201 0.642468 0.113984
H30   H     H_    0.392605 0.117757 0.707102 0.136899
H31   H     H_    0.341549 0.033861 0.697842 0.166079
C52   C     C_3   0.287108 0.132974 0.640884 -0.749965
H32   H     H_    0.245915 0.103692 0.578933 0.250747
H33   H     H_    0.269159 0.142548 0.755440 0.207002
H34   H     H_    0.297149 0.186938 0.587569 0.259203
O15   O     O_3   0.374953 0.923886 0.487347 -0.553064
C53   C     C_3   0.357143 0.912432 0.338329 0.108927
H35   H     H_    0.398662 0.882273 0.278415 0.135741
H36   H     H_    0.347218 0.965872 0.282215 0.165327
C54   C     C_3   0.291601 0.866330 0.330991 -0.738498
H37   H     H_    0.248706 0.895235 0.387935 0.253915
H38   H     H_    0.276868 0.857024 0.214232 0.201879
H39   H     H_    0.300324 0.812248 0.384788 0.259698
O16   O     O_3   0.625294 0.075867 0.499838 -0.555414
C55   C     C_3   0.646350 0.087409 0.352845 0.119293
H40   H     H_    0.606124 0.117435 0.288738 0.136077
H41   H     H_    0.657683 0.034010 0.297803 0.165658
C56   C     C_3   0.711823 0.133753 0.352368 -0.762612
H42   H     H_    0.753495 0.105052 0.413746 0.254215
H43   H     H_    0.729152 0.143107 0.237294 0.204315
H44   H     H_    0.701712 0.187804 0.405186 0.257184

loop_
_geom_bond_atom_site_label_1
_geom_bond_atom_site_label_2
_ccdc_geom_bond_type
C19   O8    A    
C14   O14   S    
C41   H6    S    
C29   F7    S    
C11   C18   S    
C9    H3    S    
C48   H22   S    
C30   F8    S    
C15   C18   A    
Cu1   Cu2   S    
C4    C8    A    
O11   C45   S    
C44   H12   S    
C7    C11   A    
C50   H28   S    
C38   O12   S    
C55   H40   S    
C6    N2    A    
C13   C18   A    
C35   C37   A    
C56   H42   S    
C29   C32   A    
C4    F10   S    
C30   C31   A    
C44   H14   S    
C41   C42   S    
C35   O9    S    
C31   C40   S    
C49   C50   S    
O10   C43   S    
C32   C39   S    
C42   H8    S    
C51   H30   S    
Cu1   O7    S    
C54   H39   S    
C2    O2    A    
Cu2   O8    S    
C53   H35   S    
C5    F11   S    
C16   C17   A    
C23   C33   A    
C43   C44   S    
C12   C17   S    
C10   H4    S    
C3    C7    A    
C7    H1    S    
C27   F5    S    
C16   O16   S    
C25   C34   A    
C52   H34   S    
C19   O5    A    
C44   H13   S    
C41   H5    S    
C48   H23   S    
C21   C22   T    
C14   C17   A    
C37   O11   S    
C49   H25   S    
C20   O7    A    
Cu1   O1    S    
C1    C34   S    
C53   H36   S    
C46   H18   S    
C25   C29   A    
C50   H29   S    
C43   H10   S    
C27   C31   A    
O13   C49   S    
C24   C28   A    
C28   C32   A    
C20   O6    A    
C36   O10   S    
C55   C56   S    
C46   H17   S    
C45   H15   S    
C24   C34   A    
C15   O15   S    
C53   C54   S    
C6    F12   S    
C42   H9    S    
C5    C9    A    
C5    N1    A    
C3    F9    S    
C26   C33   A    
C47   H21   S    
C8    C12   A    
Cu1   N1    S    
Cu2   N2    S    
C49   H26   S    
C9    C11   A    
C51   C52   S    
Cu1   O5    S    
C54   H37   S    
C10   C12   A    
Cu2   O2    S    
C2    C33   S    
C20   C22   S    
C26   C30   A    
C48   H24   S    
C23   C27   A    
O16   C55   S    
C43   H11   S    
C13   O13   S    
C47   C48   S    
C52   H32   S    
C4    N2    A    
C46   H19   S    
C23   F1    S    
C55   H41   S    
C19   C21   S    
C36   C39   A    
C8    H2    S    
C6    C10   A    
C45   C46   S    
C50   H27   S    
C45   H16   S    
C56   H44   S    
C36   C38   A    
C35   C40   A    
C37   C39   A    
O15   C53   S    
Cu2   O6    S    
C38   C40   A    
C47   H20   S    
C1    O1    A    
C3    N1    A    
C42   H7    S    
C1    O4    A    
C51   H31   S    
C54   H38   S    
C2    O3    A    
C24   F2    S    
O9    C41   S    
C13   C16   A    
C14   C15   A    
C25   F3    S    
C52   H33   S    
O12   C47   S    
O14   C51   S    
C26   F4    S    
Cu1   O3    S    
Cu2   O4    S    
C56   H43   S    
C28   F6    S    
