data_mof_unit_14996.cif
_audit_creation_date              2012-12-10T20:44:01-0500
_audit_creation_method            fapswitch 2.2
_symmetry_space_group_name_H-M    P1
_symmetry_Int_Tables_number       1
_space_group_crystal_system       triclinic
_cell_length_a                    17.273906
_cell_length_b                    10.617835
_cell_length_c                    9.973841
_cell_angle_alpha                 89.068934
_cell_angle_beta                  89.216461
_cell_angle_gamma                 92.982725
_cell_volume                      1826.40439715

loop_
_atom_site_label
_atom_site_type_symbol
_atom_type_description
_atom_site_fract_x
_atom_site_fract_y
_atom_site_fract_z
_atom_type_partial_charge
C1    C     C_R   0.507996 0.260819 0.500846 0.933774
C2    C     C_R   0.890092 0.586875 0.487504 -0.090006
C3    C     C_1   0.971594 0.617129 0.483393 0.057232
C4    C     C_1   0.040519 0.632836 0.485183 0.103633
C5    C     C_R   0.152989 0.583184 0.608721 -0.188226
C6    C     C_R   0.229602 0.552174 0.610926 -0.145884
C7    C     C_R   0.276132 0.565019 0.495754 -0.147837
C8    C     C_R   0.247988 0.630422 0.381331 -0.176740
C9    C     C_R   0.170856 0.669057 0.382058 0.308477
C10   C     C_R   0.122727 0.635451 0.493176 0.022166
C11   C     C_R   0.543636 0.063478 0.618866 0.128660
C12   C     C_R   0.354606 0.516098 0.499463 0.968540
C13   C     C_R   0.532007 0.132217 0.501099 -0.194689
C14   C     C_R   0.545188 0.071230 0.379482 -0.088564
C15   C     C_R   0.539149 0.940094 0.376257 -0.094083
C16   C     C_R   0.525945 0.872361 0.496947 -0.124788
C17   C     C_R   0.539472 0.934712 0.616263 0.047026
C18   C     C_3   0.503943 0.920090 0.752594 -0.479585
C19   C     C_3   0.511221 0.063233 0.758085 0.294102
C20   C     C_R   0.437598 0.451751 0.072729 0.021157
C21   C     C_R   0.552889 0.574331 0.069647 0.005525
C22   C     C_R   0.556242 0.566656 0.925405 0.001308
C23   C     C_R   0.505163 0.740302 0.498866 0.895781
C24   C     C_R   0.435669 0.455236 0.931280 0.135055
C25   C     C_3   0.397107 0.324433 0.933669 0.239471
C26   C     C_3   0.397040 0.325597 0.085954 -0.324104
C27   C     C_R   0.647134 0.502048 0.498862 0.867740
C28   C     C_R   0.854249 0.544079 0.609539 -0.081740
C29   C     C_R   0.774722 0.511196 0.611312 -0.096114
C30   C     C_R   0.731517 0.520723 0.494481 -0.134649
C31   C     C_R   0.768368 0.558083 0.373510 -0.280005
C32   C     C_R   0.847210 0.590898 0.368518 0.418612
H1    H     H_    0.539272 0.893860 0.280390 0.216957
H2    H     H_    0.442730 0.882166 0.750493 0.196040
H3    H     H_    0.541460 0.870334 0.823391 0.250362
H4    H     H_    0.454153 0.105144 0.764337 0.094338
H5    H     H_    0.435154 0.256691 0.888865 0.111854
H6    H     H_    0.339288 0.330507 0.135961 0.231751
H7    H     H_    0.746191 0.479254 0.703970 0.229752
H8    H     H_    0.735215 0.564259 0.282783 0.182454
H9    H     H_    0.116287 0.561181 0.695943 0.181919
H10   H     H_    0.251690 0.513499 0.701567 0.250274
H11   H     H_    0.554059 0.123095 0.286971 0.189966
N1    N     N_R   0.499490 0.499140 0.142800 -0.155951
N2    N     N_R   0.499490 0.499180 0.857150 -0.158167
O1    O     O_R   0.500010 0.316790 0.614690 -0.582494
O2    O     O_R   0.500000 0.316760 0.385350 -0.624780
O3    O     O_R   0.389120 0.500020 0.614710 -0.565729
O4    O     O_R   0.389110 0.499990 0.385370 -0.604728
O5    O     O_R   0.500000 0.683240 0.614650 -0.659625
O6    O     O_R   0.499990 0.683210 0.385310 -0.610035
O7    O     O_R   0.610890 0.500010 0.614630 -0.631676
O8    O     O_R   0.610880 0.499980 0.385290 -0.659566
Zn1   Zn    Zn3+2 0.500010 0.500020 0.653130 1.006757
Zn2   Zn    Zn3+2 0.499990 0.499980 0.346870 0.972508
C33   C     C_2   0.898988 0.532543 0.735238 0.550264
H12   H     H_    0.959030 0.567284 0.739568 0.059902
O9    O     O_2   0.869337 0.482821 0.835935 -0.505619
S1    S     S_3+6 0.584244 0.116626 0.873318 0.019372
O10   O     O_2   0.585702 0.257697 0.883302 -0.345821
O11   O     O_2   0.567180 0.056730 0.008712 -0.301750
O12   O     O_3   0.671549 0.073812 0.819091 -0.499225
H13   H     H_    0.708340 0.104234 0.888194 0.407019
C34   C     C_2   0.599868 0.674938 0.138126 0.481888
H14   H     H_    0.614243 0.667550 0.241735 0.103085
O13   O     O_2   0.619991 0.773547 0.079887 -0.524816
C35   C     C_2   0.621561 0.630516 0.849750 0.556881
H15   H     H_    0.611793 0.682832 0.758435 0.083313
O14   O     O_2   0.687847 0.625175 0.889574 -0.519004
S2    S     S_3+6 0.300060 0.306688 0.874764 0.027700
O15   O     O_2   0.262826 0.187721 0.935864 -0.212748
O16   O     O_2   0.254913 0.416714 0.917761 -0.343221
O17   O     O_3   0.300728 0.293184 0.707183 -0.570991
H16   H     H_    0.246640 0.267402 0.684307 0.386411
C36   C     C_2   0.444421 0.224494 0.140201 0.525085
H17   H     H_    0.506724 0.233437 0.127413 0.113304
O18   O     O_2   0.412982 0.130683 0.193610 -0.501605
S3    S     S_3+6 0.890168 0.635049 0.211556 0.113119
O19   O     O_2   0.923197 0.768366 0.217939 -0.157949
O20   O     O_2   0.954254 0.549197 0.180504 -0.233589
O21   O     O_3   0.824674 0.626414 0.088379 -0.456079
H18   H     H_    0.811279 0.535159 0.079092 0.383456
C37   C     C_2   0.297800 0.661103 0.262005 0.563574
H19   H     H_    0.279868 0.629371 0.163827 0.063913
O22   O     O_2   0.357189 0.727466 0.271821 -0.513844
S4    S     S_3+6 0.135529 0.763782 0.248934 0.102039
O23   O     O_2   0.072015 0.842233 0.300539 -0.184745
O24   O     O_2   0.198786 0.851607 0.190685 -0.234923
O25   O     O_3   0.100360 0.670432 0.127136 -0.440588
H20   H     H_    0.142628 0.614458 0.104999 0.342767

loop_
_geom_bond_atom_site_label_1
_geom_bond_atom_site_label_2
_ccdc_geom_bond_type
C8    C37   S    
O17   H16   S    
N1    Zn2   S    
C12   O3    A    
C12   O4    A    
C28   C33   S    
C7    C8    A    
C31   H8    S    
O3    Zn1   S    
C11   C19   S    
O5    Zn1   S    
C24   N2    A    
C28   C29   A    
C19   H4    S    
C5    C6    A    
S4    O24   D    
C1    O1    A    
C16   C17   A    
C15   C16   A    
C33   H12   S    
C2    C32   A    
C18   C19   S    
C21   C34   S    
C25   H5    S    
C20   C24   A    
C8    C9    A    
S2    O15   D    
C29   C30   A    
C9    C10   A    
O6    Zn2   S    
S1    O10   D    
C13   C14   A    
C27   C30   S    
C29   H7    S    
C20   N1    A    
O7    Zn1   S    
O21   H18   S    
O8    Zn2   S    
C7    C12   S    
S1    O11   D    
C35   H15   S    
C24   C25   S    
S3    O19   D    
C26   H6    S    
C23   O5    A    
C19   S1    S    
C25   C26   S    
O4    Zn2   S    
C35   O14   D    
C34   O13   D    
C36   H17   S    
O12   H13   S    
C9    S4    S    
C21   N1    A    
C18   H2    S    
C23   O6    A    
C37   H19   S    
O1    Zn1   S    
S2    O17   S    
C17   C18   S    
C36   O18   D    
C37   O22   D    
N2    Zn1   S    
C16   C23   S    
C1    C13   S    
C4    C10   S    
C3    C4    T    
C27   O7    A    
O2    Zn2   S    
C18   H3    S    
C5    H9    S    
C11   C17   A    
S1    O12   S    
S4    O23   D    
C31   C32   A    
C1    O2    A    
S4    O25   S    
S2    O16   D    
C27   O8    A    
C6    C7    A    
C34   H14   S    
C2    C3    S    
C5    C10   A    
C11   C13   A    
S3    O21   S    
C30   C31   A    
C20   C26   S    
C33   O9    D    
S3    O20   D    
C22   C35   S    
C32   S3    S    
C22   N2    A    
C26   C36   S    
C6    H10   S    
C14   C15   A    
C2    C28   A    
C25   S2    S    
O25   H20   S    
C21   C22   A    
C15   H1    S    
C14   H11   S    
