data_mof_unit_34546.cif
_audit_creation_date              2013-03-05T16:42:23-0500
_audit_creation_method            fapswitch 2.2
_symmetry_space_group_name_H-M    P1
_symmetry_Int_Tables_number       1
_space_group_crystal_system       triclinic
_cell_length_a                    9.951085
_cell_length_b                    10.724502
_cell_length_c                    15.292742
_cell_angle_alpha                 90.649403
_cell_angle_beta                  69.067565
_cell_angle_gamma                 91.052579
_cell_volume                      1524.05961636

loop_
_atom_site_label
_atom_site_type_symbol
_atom_site_description
_atom_site_fract_x
_atom_site_fract_y
_atom_site_fract_z
_atom_type_partial_charge
O1    O     O_R   0.385310 0.683210 0.499990 -0.604252
O2    O     O_R   0.614650 0.683240 0.500000 -0.581416
C1    C     C_R   0.501098 0.739640 0.501286 0.921284
O3    O     O_R   0.319830 0.499970 0.632240 -0.590856
O4    O     O_R   0.549170 0.500000 0.632250 -0.605821
C2    C     C_R   0.409973 0.498376 0.675567 0.957113
Zn1   Zn    Zn3+2 0.346870 0.499980 0.499990 1.100466
Zn2   Zn    Zn3+2 0.653130 0.500020 0.500010 1.102297
O5    O     O_R   0.385350 0.316760 0.500000 -0.573613
O6    O     O_R   0.614690 0.316790 0.500010 -0.564481
O7    O     O_R   0.450830 0.500000 0.367750 -0.572688
O8    O     O_R   0.680170 0.500030 0.367760 -0.576182
C3    C     C_R   0.496300 0.260874 0.505225 0.966723
C4    C     C_R   0.589709 0.504519 0.324429 0.947039
C5    C     C_R   0.352425 0.473020 0.775268 -0.178422
C6    C     C_R   0.640011 0.551793 0.229422 -0.083230
C7    C     C_R   0.252521 0.314679 0.893092 0.337945
C8    C     C_R   0.278836 0.360236 0.803729 -0.193374
C9    C     C_R   0.386930 0.550821 0.838463 0.235611
C10   C     C_R   0.368676 0.503629 0.928870 -0.024249
C11   C     C_R   0.310401 0.380429 0.952309 -0.029529
C12   C     C_R   0.419597 0.568054 0.992970 0.034750
C13   C     C_R   0.456839 0.498716 0.058695 0.087848
C14   C     C_R   0.397286 0.377767 0.080711 -0.007210
C15   C     C_R   0.320668 0.321820 0.030849 -0.057046
C16   C     C_R   0.427766 0.698715 0.996856 -0.122879
C17   C     C_R   0.498976 0.759799 0.048974 0.311843
C18   C     C_R   0.560174 0.688731 0.101981 -0.003853
C19   C     C_R   0.540910 0.556363 0.106310 -0.001014
C20   C     C_R   0.636529 0.746837 0.153254 -0.044766
C21   C     C_R   0.669622 0.679716 0.219796 -0.212293
C22   C     C_R   0.600318 0.487678 0.162369 0.255208
C23   C     C_R   0.420100 0.935041 0.463016 0.011771
C24   C     C_R   0.507748 0.872088 0.500361 -0.284422
C25   C     C_R   0.600218 0.938870 0.536849 0.242534
C26   C     C_R   0.588780 0.067837 0.545632 0.227826
C27   C     C_R   0.493142 0.128903 0.511389 -0.251851
C28   C     C_R   0.413368 0.062283 0.467875 0.088333
C29   C     C_3   0.253893 0.060988 0.490116 -0.365190
C30   C     C_3   0.261871 0.920119 0.483847 0.127211
C31   C     C_R   0.889580 0.548051 0.573934 0.136737
N1    N     N_R   0.856900 0.500860 0.500610 -0.158595
C32   C     C_R   0.968338 0.460147 0.424092 0.260271
C33   C     C_R   0.111696 0.461463 0.423713 0.320878
N2    N     N_R   0.142540 0.500820 0.500610 -0.157104
C34   C     C_R   0.031000 0.546698 0.574409 0.073794
C35   C     C_3   0.977879 0.503942 0.674776 0.420179
C36   C     C_3   0.826203 0.505443 0.672902 -0.488930
H1    H     H_    0.773454 0.411923 0.679156 0.252574
H2    H     H_    0.279946 0.228048 0.050305 0.218481
H3    H     H_    0.659992 0.845854 0.148618 0.220614
N3    N     N_R   0.696074 0.876859 0.572682 0.246762
O9    O     O_R   0.821370 0.842350 0.515083 -0.303544
O10   O     O_R   0.672891 0.881167 0.661884 -0.229488
N4    N     N_R   0.666820 0.134854 0.594802 0.254956
O11   O     O_R   0.598046 0.202387 0.667820 -0.374410
O12   O     O_R   0.805954 0.125956 0.568333 -0.281859
H4    H     H_    0.193397 0.094173 0.562310 0.243864
H5    H     H_    0.223392 0.105019 0.434681 0.278002
H6    H     H_    0.202487 0.872304 0.551230 0.183927
N5    N     N_R   0.230237 0.868264 0.404267 0.259243
O13   O     O_R   0.296336 0.910007 0.319892 -0.291492
O14   O     O_R   0.137855 0.776673 0.417313 -0.333166
N6    N     N_R   0.939799 0.407074 0.346283 0.243931
O15   O     O_R   0.883898 0.295490 0.352661 -0.298514
O16   O     O_R   0.984136 0.463684 0.265955 -0.306912
N7    N     N_R   0.223269 0.420581 0.341482 0.232718
O17   O     O_R   0.262400 0.490704 0.267649 -0.386547
O18   O     O_R   0.273066 0.308439 0.336266 -0.363347
N8    N     N_R   0.019014 0.378227 0.691479 0.198772
O19   O     O_R   0.963138 0.330453 0.774801 -0.274529
O20   O     O_R   0.093414 0.306945 0.622557 -0.402926
N9    N     N_R   0.636924 0.358006 0.144785 0.201738
O21   O     O_R   0.637543 0.285378 0.212249 -0.316624
O22   O     O_R   0.691561 0.317373 0.058938 -0.275175
N10   N     N_R   0.001578 0.596750 0.739215 0.224510
O23   O     O_R   0.929658 0.588376 0.828704 -0.291270
O24   O     O_R   0.094426 0.687778 0.708216 -0.332978
H7    H     H_    0.758765 0.577491 0.718438 0.268558
H8    H     H_    0.704946 0.729850 0.269886 0.179003
N11   N     N_R   0.506088 0.893882 0.047535 0.216249
O25   O     O_R   0.464338 0.957061 0.125515 -0.301232
O26   O     O_R   0.528845 0.952660 0.969428 -0.263957
N12   N     N_R   0.174923 0.198467 0.920271 0.231267
O27   O     O_R   0.072634 0.188546 0.001786 -0.279748
O28   O     O_R   0.189379 0.110093 0.858681 -0.279892
H9    H     H_    0.248773 0.304028 0.754095 0.220322
N13   N     N_R   0.448917 0.671730 0.806165 0.189573
O29   O     O_R   0.385307 0.745305 0.766530 -0.314995
O30   O     O_R   0.573812 0.704780 0.808635 -0.339953
H10   H     H_    0.402844 0.326270 0.139444 0.220696
H11   H     H_    0.373456 0.755338 0.962095 0.222402

loop_
_geom_bond_atom_site_label_1
_geom_bond_atom_site_label_2
_geom_bond_distance
_ccdc_geom_bond_type
C5    C8    1.392963 A    
N4    O11   1.301401 A    
C30   H6    1.113438 S    
N9    O21   1.301562 A    
N13   O30   1.299526 A    
C9    C10   1.426064 A    
C20   H3    1.080725 S    
N11   O25   1.300692 A    
C21   H8    1.084218 S    
N2    C34   1.363878 A    
C33   N2    1.377366 A    
C6    C21   1.396196 A    
C5    C9    1.398697 A    
C16   C17   1.393277 A    
C13   C19   1.420706 A    
C36   H7    1.097840 S    
C26   C27   1.412664 A    
Zn2   N1    2.030884 S    
C35   N10   1.467168 S    
C19   C22   1.421085 A    
O4    C2    1.304423 A    
O7    C4    1.302008 A    
C16   H11   1.080768 S    
C24   C25   1.415857 A    
C31   N1    1.364157 A    
N5    O14   1.299994 A    
O5    C3    1.293446 A    
C15   H2    1.081550 S    
C2    C5    1.451353 S    
C25   C26   1.390907 A    
C31   C34   1.410235 A    
N8    O19   1.301312 A    
C3    C27   1.418559 S    
N9    O22   1.301819 A    
O3    Zn1   1.942660 S    
N11   O26   1.301518 A    
N3    O10   1.300126 A    
C32   N6    1.428528 S    
C23   C24   1.388883 A    
N10   O23   1.301429 A    
C28   C29   1.499307 S    
C23   C30   1.496598 S    
N7    O17   1.298612 A    
C17   N11   1.438451 S    
C14   C15   1.382376 A    
O3    C2    1.292080 A    
C9    N13   1.439892 S    
C29   C30   1.514445 S    
C1    C24   1.420760 S    
C29   H4    1.109969 S    
C7    C11   1.411505 A    
C30   N5    1.463362 S    
O1    C1    1.297945 A    
N6    O16   1.300806 A    
Zn1   O7    1.914441 S    
C32   C33   1.424317 A    
C35   N8    1.467422 S    
C27   C28   1.388983 A    
C35   C36   1.520200 S    
Zn2   O8    1.942657 S    
C29   H5    1.109956 S    
C10   C11   1.429871 A    
C7    C8    1.389109 A    
N12   O27   1.301440 A    
C36   H1    1.112448 S    
C10   C12   1.421905 A    
N4    O12   1.301321 A    
C4    C6    1.451304 S    
N1    C32   1.366991 A    
C14   H10   1.078276 S    
Zn1   N2    2.030122 S    
C22   N9    1.441913 S    
N3    O9    1.300868 A    
Zn1   O5    2.008811 S    
C11   C15   1.398322 A    
C34   C35   1.507607 S    
C18   C19   1.428077 A    
O1    Zn1   1.995026 S    
O2    Zn2   2.008811 S    
C23   C28   1.367359 A    
N10   O24   1.302236 A    
O6    C3    1.289147 A    
O4    Zn2   1.914441 S    
C6    C22   1.394184 A    
C8    H9    1.083649 S    
C7    N12   1.438541 S    
N6    O15   1.300161 A    
C18   C20   1.406309 A    
O2    C1    1.285316 A    
O8    C4    1.296264 A    
C26   N4    1.438599 S    
C20   C21   1.388136 A    
C31   C36   1.490054 S    
N5    O13   1.301471 A    
C13   C14   1.409312 A    
N13   O29   1.301546 A    
Zn2   O6    1.995026 S    
C12   C16   1.403955 A    
C25   N3    1.434408 S    
C12   C13   1.412011 A    
N12   O28   1.301563 A    
C33   N7    1.419187 S    
N8    O20   1.299386 A    
N7    O18   1.299925 A    
C17   C18   1.411617 A    
