data_mof_unit_55756.cif
_audit_creation_date              2012-12-11T16:08:38-0500
_audit_creation_method            fapswitch 2.2
_symmetry_space_group_name_H-M    P1
_symmetry_Int_Tables_number       1
_space_group_crystal_system       triclinic
_cell_length_a                    12.961706
_cell_length_b                    13.309727
_cell_length_c                    27.716105
_cell_angle_alpha                 94.813171
_cell_angle_beta                  90.093172
_cell_angle_gamma                 119.10666
_cell_volume                      4157.98394393

loop_
_atom_site_label
_atom_site_type_symbol
_atom_type_description
_atom_site_fract_x
_atom_site_fract_y
_atom_site_fract_z
_atom_type_partial_charge
C1    C     C_R   0.627671 0.896555 0.426997 0.544462
C2    C     C_R   0.157125 0.739544 0.301709 0.013078
C3    C     C_R   0.142045 0.725982 0.200932 0.007685
C4    C     C_R   0.601264 0.222632 0.440767 0.547626
C5    C     C_R   0.131276 0.631860 0.223999 -0.139196
C6    C     C_R   0.137073 0.638015 0.274255 -0.137882
C7    C     C_R   0.128520 0.717176 0.151063 -0.125669
C8    C     C_R   0.121380 0.803913 0.127971 -0.000301
C9    C     C_R   0.213177 0.948645 0.356354 -0.131569
C10   C     C_R   0.194143 0.939154 0.306233 0.010541
C11   C     C_R   0.169774 0.835357 0.278720 0.063119
C12   C     C_R   0.572910 0.287221 0.224017 0.301675
C13   C     C_R   0.206531 0.033602 0.282820 -0.130594
C14   C     C_R   0.193489 0.024614 0.232366 -0.112757
C15   C     C_R   0.168606 0.921642 0.204757 0.025825
C16   C     C_R   0.268845 0.876434 0.425879 0.547864
C17   C     C_R   0.160391 0.827857 0.228125 0.062196
C18   C     C_R   0.146615 0.908367 0.154507 -0.122644
C19   C     C_R   0.208911 0.855725 0.378614 -0.003893
C20   C     C_R   0.742792 0.950713 0.354362 -0.113351
C21   C     C_R   0.743859 0.943171 0.304086 -0.027243
C22   C     C_R   0.740393 0.927168 0.202752 -0.020573
C23   C     C_R   0.563162 0.271229 0.273511 -0.082840
C24   C     C_R   0.823001 0.030385 0.229565 0.282033
C25   C     C_R   0.824872 0.038353 0.280403 0.274680
C26   C     C_R   0.744530 0.914076 0.152607 -0.108044
C27   C     C_R   0.677401 0.805493 0.126882 -0.016008
C28   C     C_R   0.626930 0.899118 0.565108 0.545836
C29   C     C_R   0.567394 0.761913 0.351414 -0.127969
C30   C     C_R   0.572101 0.748830 0.301025 0.030660
C31   C     C_R   0.658090 0.841503 0.277206 0.005102
C32   C     C_R   0.489418 0.646942 0.273869 -0.120663
C33   C     C_R   0.493301 0.635821 0.223478 -0.124718
C34   C     C_R   0.662959 0.328734 0.305497 -0.018120
C35   C     C_R   0.577714 0.727720 0.199612 0.028887
C36   C     C_R   0.658153 0.832491 0.226531 0.005485
C37   C     C_R   0.588472 0.714453 0.149680 -0.130966
C38   C     C_R   0.650187 0.864807 0.377906 -0.015833
C39   C     C_R   0.737321 0.294151 0.652802 -0.124052
C40   C     C_R   0.602163 0.225817 0.578815 0.545960
C41   C     C_R   0.749641 0.313265 0.703417 0.024886
C42   C     C_R   0.767752 0.343582 0.805266 0.021634
C43   C     C_R   0.860177 0.343461 0.779035 -0.141195
C44   C     C_R   0.850095 0.325977 0.728426 -0.130319
C45   C     C_R   0.684753 0.356862 0.206126 0.048297
C46   C     C_R   0.778860 0.367131 0.855698 -0.131477
C47   C     C_R   0.687086 0.371904 0.880879 0.000973
C48   C     C_R   0.548802 0.292316 0.655053 -0.130032
C49   C     C_R   0.556716 0.304895 0.705206 0.004855
C50   C     C_R   0.657157 0.314980 0.729648 0.064518
C51   C     C_R   0.462873 0.301976 0.731170 -0.146110
C52   C     C_R   0.272106 0.879683 0.563466 0.544593
C53   C     C_R   0.468417 0.309152 0.781464 -0.144072
C54   C     C_R   0.569346 0.322788 0.806180 0.009973
C55   C     C_R   0.664470 0.326169 0.780380 0.068972
C56   C     C_1   0.696187 0.375913 0.155517 -0.012774
C57   C     C_R   0.579534 0.340694 0.856309 -0.126027
C58   C     C_R   0.634736 0.279405 0.628712 0.000041
C59   C     C_1   0.223391 0.863610 0.610352 -0.005241
C60   C     C_R   0.092042 0.739163 0.719020 0.296782
C61   C     C_R   0.077348 0.730814 0.768925 -0.087804
C62   C     C_R   0.226253 0.932138 0.785869 -0.118359
C63   C     C_R   0.239797 0.941602 0.736116 -0.158635
C64   C     C_1   0.634192 0.273580 0.395780 -0.020344
C65   C     C_R   0.172585 0.845641 0.702577 0.041867
C66   C     C_R   0.145386 0.826537 0.802335 -0.009729
C67   C     C_1   0.651612 0.304284 0.355458 -0.070339
C68   C     C_1   0.127515 0.815363 0.853245 -0.052417
C69   C     C_1   0.195346 0.854519 0.651843 -0.018138
C70   C     C_1   0.102577 0.798117 0.894720 -0.008809
C71   C     C_1   0.641099 0.867551 0.611857 -0.009138
C72   C     C_R   0.669949 0.927977 0.738231 -0.088877
C73   C     C_R   0.673051 0.917087 0.788079 0.296379
C74   C     C_R   0.631946 0.718844 0.769569 -0.158886
C75   C     C_R   0.631212 0.731010 0.719942 -0.119853
C76   C     C_R   0.773205 0.402477 0.287932 -0.144958
C77   C     C_R   0.650884 0.835831 0.704205 -0.010509
C78   C     C_1   0.705070 0.399357 0.114115 -0.003096
C79   C     C_R   0.652314 0.811323 0.803756 0.042439
C80   C     C_1   0.664059 0.800547 0.854503 -0.016335
C81   C     C_1   0.647323 0.849337 0.653346 -0.052768
C82   C     C_1   0.682315 0.790860 0.896054 -0.003742
C83   C     C_R   0.064276 0.771647 0.079372 0.546960
C84   C     C_R   0.717270 0.441989 0.067479 0.546094
C85   C     C_R   0.719366 0.782693 0.080564 0.545101
C86   C     C_R   0.056864 0.766307 0.941374 0.546938
C87   C     C_R   0.710001 0.432995 0.929378 0.547473
C88   C     C_R   0.784182 0.415774 0.238328 -0.157233
C89   C     C_R   0.172423 0.749191 0.351675 -0.130537
C90   C     C_R   0.716253 0.776255 0.943083 0.545976
C91   C     C_3   0.008725 0.131121 0.203246 -0.124211
C92   C     C_3   0.868140 0.218022 0.311855 -0.111707
C93   C     C_3   0.078039 0.574767 0.681717 -0.120098
C94   C     C_3   0.419663 0.300582 0.192302 -0.134002
C95   C     C_3   0.813644 0.085578 0.827040 -0.118707
Cr1   Cr    Cr6+3 0.416430 0.829200 0.492370 1.024285
Cr2   Cr    Cr6+3 0.674630 0.087020 0.504170 1.023358
Cr3   Cr    Cr6+3 0.408920 0.083740 0.503490 1.022709
Cr4   Cr    Cr6+3 0.914010 0.832750 0.013970 1.025168
Cr5   Cr    Cr6+3 0.922310 0.578600 0.003000 1.022456
Cr6   Cr    Cr6+3 0.656280 0.574630 0.003870 1.022498
H1    H     H_    0.851010 0.447253 0.312302 0.117432
H2    H     H_    0.870120 0.472143 0.225073 0.128671
H3    H     H_    0.496264 0.694956 0.369596 0.121866
H4    H     H_    0.861505 0.389557 0.874724 0.120770
H5    H     H_    0.804097 0.284747 0.632539 0.119983
H6    H     H_    0.939974 0.356570 0.797646 0.093996
H7    H     H_    0.921214 0.323492 0.708858 0.093412
H8    H     H_    0.507384 0.341816 0.875669 0.132822
H9    H     H_    0.395194 0.307071 0.801045 0.107084
H10   H     H_    0.384649 0.292668 0.712563 0.107251
H11   H     H_    0.469686 0.282115 0.636839 0.135697
H12   H     H_    0.203512 0.098203 0.214893 0.096848
H13   H     H_    0.013273 0.649316 0.781506 0.126431
H14   H     H_    0.278705 0.006874 0.811378 0.131186
H15   H     H_    0.303806 0.023401 0.723795 0.127576
H16   H     H_    0.683181 0.008688 0.726190 0.126097
H17   H     H_    0.618282 0.637768 0.781311 0.127084
H18   H     H_    0.615477 0.658948 0.693947 0.132240
H19   H     H_    0.477632 0.213691 0.286854 0.125361
H20   H     H_    0.111662 0.636807 0.130901 0.138739
H21   H     H_    0.167293 0.676804 0.368949 0.128127
H22   H     H_    0.116132 0.552803 0.203200 0.110737
H23   H     H_    0.226998 0.114464 0.303455 0.110250
H24   H     H_    0.128234 0.564373 0.291603 0.105002
H25   H     H_    0.143036 0.976098 0.136640 0.115898
H26   H     H_    0.065885 0.202970 0.181641 0.124415
H27   H     H_    0.001003 0.050200 0.184531 0.105986
H28   H     H_    0.053043 0.149781 0.239803 0.162730
H29   H     H_    0.933572 0.295784 0.334849 0.129411
H30   H     H_    0.782618 0.182475 0.330059 0.121676
H31   H     H_    0.859249 0.245925 0.276124 0.174928
H32   H     H_    0.082421 0.541481 0.716753 0.105895
H33   H     H_    0.168052 0.622294 0.667585 0.123304
H34   H     H_    0.240650 0.030965 0.377241 0.133230
H35   H     H_    0.024050 0.499213 0.655209 0.139901
H36   H     H_    0.480644 0.386520 0.179826 0.121433
H37   H     H_    0.387432 0.311399 0.228541 0.098499
H38   H     H_    0.342001 0.257515 0.166239 0.130256
H39   H     H_    0.850551 0.122386 0.792484 0.108607
H40   H     H_    0.861968 0.043295 0.841101 0.120823
H41   H     H_    0.828530 0.158352 0.854007 0.145235
H42   H     H_    0.809616 0.985089 0.134138 0.176944
H43   H     H_    0.807938 0.029292 0.375003 0.183492
H44   H     H_    0.534339 0.630931 0.129526 0.124491
H45   H     H_    0.430762 0.555279 0.203202 0.090415
H46   H     H_    0.422706 0.575496 0.291631 0.101854
O1    O     O_R   0.296680 0.802170 0.437540 -0.519474
O2    O     O_R   0.637200 0.461990 0.052510 -0.510366
O3    O     O_R   0.664790 0.681920 0.057970 -0.501821
O4    O     O_R   0.525380 0.838530 0.443500 -0.498370
O5    O     O_R   0.815840 0.852920 0.961840 -0.506827
O6    O     O_R   0.012100 0.822630 0.963670 -0.494996
O7    O     O_R   0.037010 0.668460 0.953040 -0.510104
O8    O     O_R   0.813390 0.478970 0.949660 -0.502476
O9    O     O_R   0.632250 0.456930 0.945520 -0.519834
O10   O     O_R   0.660200 0.677230 0.958780 -0.496738
O11   O     O_3   0.830870 0.661990 0.006950 -0.245950
O12   O     O_R   0.662610 0.183990 0.557860 -0.502166
O13   O     O_R   0.702130 0.995190 0.446810 -0.522368
O14   O     O_R   0.661770 0.181390 0.458760 -0.496185
O15   O     O_R   0.499820 0.198480 0.455280 -0.509347
O16   O     O_R   0.311660 0.976250 0.449080 -0.502888
O17   O     O_R   0.297580 0.804960 0.544440 -0.507609
O18   O     O_R   0.526220 0.841130 0.542590 -0.495300
O19   O     O_R   0.703030 0.997990 0.553710 -0.509577
O20   O     O_3   0.897730 0.125757 0.206090 -0.570711
O21   O     O_3   0.909549 0.137720 0.306909 -0.581947
O22   O     O_3   0.023876 0.644555 0.686353 -0.557026
O23   O     O_R   0.500730 0.201280 0.562180 -0.521508
O24   O     O_3   0.473625 0.230733 0.192956 -0.556792
O25   O     O_3   0.691174 0.008141 0.821379 -0.556192
O26   O     O_R   0.312500 0.978850 0.548170 -0.497654
O27   O     O_3   0.499990 0.999990 0.500010 -0.245554
O28   O     O_R   0.820790 0.857990 0.068830 -0.522230
O29   O     O_R   0.016700 0.827330 0.062850 -0.499862
O30   O     O_R   0.041970 0.673520 0.060040 -0.522348
O31   O     O_R   0.817980 0.483660 0.048840 -0.496438

loop_
_geom_bond_atom_site_label_1
_geom_bond_atom_site_label_2
_ccdc_geom_bond_type
C53   H9    S    
C15   C18   A    
C66   C68   S    
C63   C65   A    
C39   H5    S    
C8    C83   S    
C20   H43   S    
C40   O12   A    
C35   C36   A    
C93   H35   S    
Cr5   O31   S    
C40   O23   A    
Cr3   O16   S    
C7    C8    A    
C39   C41   A    
C32   H46   S    
C53   C54   A    
C21   C31   A    
C12   C23   A    
C93   O22   S    
C95   H39   S    
C72   C77   A    
C91   H26   S    
C60   O22   S    
Cr2   O12   S    
C91   O20   S    
C35   C37   A    
C86   O6    A    
C93   H32   S    
C16   C19   S    
C30   C31   A    
Cr3   O27   S    
C89   H21   S    
C2    C11   A    
Cr2   O19   S    
C46   H4    S    
Cr6   O3    S    
C56   C78   T    
C42   C46   A    
C27   C85   S    
C85   O3    A    
C85   O28   A    
C46   C47   A    
C61   C66   A    
C9    C19   A    
C57   H8    S    
Cr4   O29   S    
C45   C56   S    
C49   C51   A    
C72   H16   S    
C33   H45   S    
C1    O4    A    
C29   C30   A    
C95   O25   S    
C76   C88   A    
C31   C36   A    
C28   O19   A    
C84   O2    A    
Cr6   O10   S    
C16   O16   A    
C83   O29   A    
C94   H38   S    
C4    C64   S    
C2    C6    A    
C7    H20   S    
C74   H17   S    
Cr5   O30   S    
Cr3   O15   S    
C12   O24   S    
C44   H7    S    
C25   O21   S    
C76   H1    S    
Cr1   O1    S    
C40   C58   S    
C91   H27   S    
C62   C66   A    
C64   C67   T    
C92   H30   S    
C75   H18   S    
C24   C25   A    
C90   O5    A    
C93   H33   S    
C74   C75   A    
C23   H19   S    
C13   H23   S    
C83   O30   A    
C72   C73   A    
Cr6   O9    S    
C3    C5    A    
Cr1   O4    S    
C8    C18   A    
Cr1   O17   S    
C29   H3    S    
C60   C61   A    
C51   C53   A    
C47   C87   S    
C29   C38   A    
C2    C89   A    
C92   H29   S    
C43   C44   A    
Cr2   O13   S    
C62   C63   A    
C19   C89   A    
C52   C59   S    
Cr5   O11   S    
C94   O24   S    
C47   C57   A    
C20   C38   A    
C92   O21   S    
C77   C81   S    
C23   C34   A    
C24   O20   S    
C26   C27   A    
Cr4   O28   S    
C43   H6    S    
C73   O25   S    
C84   O31   A    
C75   C77   A    
Cr1   O27   S    
C1    C38   S    
C59   C69   T    
C63   H15   S    
C28   O18   A    
Cr5   O8    S    
C80   C82   T    
C48   C49   A    
C48   H11   S    
C52   O17   A    
Cr6   O11   S    
C95   H40   S    
Cr2   O14   S    
C74   C79   A    
C45   C88   A    
C94   H37   S    
C41   C44   A    
C4    O15   A    
C28   C71   S    
C42   C43   A    
C26   H42   S    
C70   C86   S    
C9    H34   S    
C41   C50   A    
C88   H2    S    
C9    C10   A    
Cr5   O7    S    
C15   C17   A    
C21   C25   A    
C54   C55   A    
C11   C17   A    
C51   H10   S    
Cr2   O27   S    
C92   H31   S    
C14   C15   A    
C1    O13   A    
C6    H24   S    
C12   C45   A    
C73   C79   A    
C10   C13   A    
C34   C67   S    
C60   C65   A    
C48   C58   A    
C91   H28   S    
C87   O8    A    
C14   H12   S    
C22   C36   A    
Cr4   O5    S    
C5    H22   S    
C3    C7    A    
C50   C55   A    
C82   C90   S    
C16   O1    A    
C32   C33   A    
C90   O10   A    
C86   O7    A    
C62   H14   S    
C18   H25   S    
C30   C32   A    
C39   C58   A    
C5    C6    A    
C27   C37   A    
C42   C55   A    
C65   C69   S    
Cr4   O6    S    
Cr6   O2    S    
C33   C35   A    
C3    C17   A    
C22   C24   A    
C4    O14   A    
C10   C11   A    
C79   C80   S    
Cr3   O23   S    
C78   C84   S    
Cr3   O26   S    
C20   C21   A    
C95   H41   S    
C68   C70   T    
C49   C50   A    
C22   C26   A    
Cr4   O11   S    
C61   H13   S    
C94   H36   S    
C87   O9    A    
Cr1   O18   S    
C37   H44   S    
C13   C14   A    
C52   O26   A    
C34   C76   A    
C71   C81   T    
C54   C57   A    
