data_mof_unit_27210.cif
_audit_creation_date              2012-12-11T16:53:21-0500
_audit_creation_method            fapswitch 2.2
_symmetry_space_group_name_H-M    P1
_symmetry_Int_Tables_number       1
_space_group_crystal_system       triclinic
_cell_length_a                    14.834985
_cell_length_b                    14.800074
_cell_length_c                    17.268624
_cell_angle_alpha                 108.752259
_cell_angle_beta                  105.642162
_cell_angle_gamma                 107.836271
_cell_volume                      3119.71113354

loop_
_atom_site_label
_atom_site_type_symbol
_atom_type_description
_atom_site_fract_x
_atom_site_fract_y
_atom_site_fract_z
_atom_type_partial_charge
C1    C     C_R   0.084766 0.289000 0.082770 0.416631
C2    C     C_R   0.062224 0.541856 0.262732 -0.222765
C3    C     C_R   0.266033 0.792783 0.180328 -0.105532
C4    C     C_R   0.941930 0.516920 0.746427 0.600935
C5    C     C_R   0.698699 0.405805 0.997245 0.002796
C6    C     C_R   0.309935 0.793916 0.261408 0.035078
C7    C     C_R   0.638043 0.435296 0.944398 -0.032913
C8    C     C_R   0.969981 0.519771 0.273048 0.006741
C9    C     C_R   0.996391 0.827845 0.006017 0.141519
C10   C     C_R   0.371915 0.422778 0.853971 0.024302
C11   C     C_R   0.334768 0.396624 0.914125 0.064133
C12   C     C_R   0.035378 0.571401 0.745221 -0.086521
C13   C     C_R   0.377528 0.339815 0.952089 -0.140404
C14   C     C_R   0.472334 0.340686 0.952469 -0.109628
C15   C     C_R   0.525620 0.398496 0.915078 0.040336
C16   C     C_R   0.732610 0.207508 0.820846 0.424947
C17   C     C_R   0.468481 0.430457 0.859903 -0.052101
C18   C     C_3   0.485516 0.509709 0.822489 0.910328
C19   C     C_3   0.374544 0.495991 0.810147 0.070736
C20   C     C_R   0.965963 0.544459 0.359718 -0.061806
C21   C     C_R   0.052219 0.592526 0.673204 0.081553
C22   C     C_R   0.130473 0.560795 0.568878 -0.063434
C23   C     C_R   0.686043 0.205237 0.740501 -0.161779
C24   C     C_R   0.131569 0.574981 0.651921 -0.117983
C25   C     C_R   0.981081 0.612515 0.617606 -0.063819
C26   C     C_R   0.978263 0.597899 0.533126 -0.065345
C27   C     C_R   0.050920 0.566292 0.508108 0.128485
C28   C     C_R   0.249904 0.523845 0.942425 -0.118999
C29   C     C_R   0.041608 0.536497 0.421705 -0.301372
C30   C     C_R   0.897040 0.582770 0.384177 0.444551
C31   C     C_R   0.901928 0.608016 0.471314 0.358160
C32   C     C_R   0.604879 0.117032 0.662036 0.130328
C33   C     C_R   0.387463 0.882215 0.340962 0.096269
C34   C     C_R   0.275660 0.445429 0.954193 0.030482
C35   C     C_R   0.563765 0.009401 0.426688 -0.109831
C36   C     C_R   0.484179 0.937272 0.344281 -0.149610
C37   C     C_R   0.366253 0.901481 0.416752 -0.157966
C38   C     C_R   0.444603 0.972730 0.499548 0.007860
C39   C     C_R   0.544738 0.025435 0.503984 0.124317
C40   C     C_R   0.734320 0.302474 0.744046 0.418780
C41   C     C_R   0.624488 0.094748 0.585656 -0.182339
C42   C     C_R   0.507433 0.066126 0.659691 -0.137113
C43   C     C_R   0.426399 0.992033 0.578068 0.432135
C44   C     C_R   0.036476 0.180719 0.203594 0.152169
C45   C     C_R   0.261782 0.695959 0.256912 -0.097326
C46   C     C_R   0.985269 0.133753 0.109749 -0.114550
C47   C     C_R   0.909572 0.026950 0.066192 0.576058
C48   C     C_R   0.886528 0.972615 0.117939 -0.402716
C49   C     C_R   0.930997 0.025477 0.211602 0.040346
C50   C     C_R   0.009785 0.127519 0.253121 0.087723
C51   C     C_3   0.019452 0.223366 0.324891 0.329358
C52   C     C_R   0.245261 0.429852 0.020021 -0.068866
C53   C     C_3   0.049103 0.282374 0.271552 -0.571607
C54   C     C_R   0.112315 0.598875 0.824414 -0.225487
C55   C     C_R   0.915200 0.205411 0.005633 -0.124392
C56   C     C_R   0.701974 0.495853 0.917522 -0.000901
C57   C     C_R   0.997820 0.198736 0.059913 0.023207
C58   C     C_3   0.762675 0.291047 0.142342 -0.275494
C59   C     C_3   0.574064 0.651705 0.972579 -0.242591
C60   C     C_3   0.818288 0.576828 0.731397 -0.037599
C61   C     C_3   0.514822 0.541172 0.705392 0.128793
C62   C     C_3   0.750777 0.942692 0.947054 -0.038782
C63   C     C_R   0.889929 0.453151 0.188946 0.632047
C64   C     C_R   0.082589 0.808573 0.031677 -0.246245
C65   C     C_R   0.912363 0.728656 0.958433 0.388338
Cl1   Cl    Cl    0.205390 0.339803 0.172401 -0.677064
Cl2   Cl    Cl    0.786810 0.713194 0.906928 -0.736795
Cl3   Cl    Cl    0.279710 0.422532 0.696780 -0.544696
Cl4   Cl    Cl    0.809512 0.605220 0.308776 -0.509552
Cl5   Cl    Cl    0.812714 0.652011 0.501605 -0.537343
Cl6   Cl    Cl    0.676726 0.117523 0.858813 -0.753195
Cl7   Cl    Cl    0.303941 0.929017 0.577363 -0.604698
Cl8   Cl    Cl    0.123696 0.266042 0.428772 -0.507419
Cl9   Cl    Cl    0.666935 0.347493 0.676817 -0.594952
H1    H     H_    0.675719 0.511664 0.861052 0.205502
H2    H     H_    0.188116 0.539714 0.550444 0.165756
H3    H     H_    0.188905 0.563102 0.696309 0.176902
H4    H     H_    0.925010 0.633272 0.638220 0.183773
H5    H     H_    0.701424 0.136098 0.589848 0.149909
H6    H     H_    0.493667 0.086835 0.720154 0.202023
H7    H     H_    0.640162 0.050773 0.430308 0.137885
H8    H     H_    0.498949 0.920475 0.284262 0.126882
H9    H     H_    0.289102 0.857293 0.410266 0.182512
H10   H     H_    0.829241 0.891302 0.085848 0.198856
H11   H     H_    0.944639 0.216569 0.329805 0.071463
H12   H     H_    0.162123 0.867402 0.065748 0.144833
H13   H     H_    0.991169 0.309487 0.244555 0.150550
H14   H     H_    0.258407 0.553734 0.895140 0.117576
H15   H     H_    0.130477 0.344080 0.305882 0.279005
H16   H     H_    0.250849 0.372567 0.044101 0.155356
H17   H     H_    0.192576 0.654272 0.850033 0.135526
H18   H     H_    0.836792 0.162454 0.994790 0.175317
H19   H     H_    0.286340 0.667964 0.305807 0.126720
H20   H     H_    0.812314 0.276298 0.193340 0.126460
H21   H     H_    0.768292 0.257610 0.077302 0.142722
H22   H     H_    0.681116 0.248644 0.131513 0.198575
H23   H     H_    0.139397 0.587371 0.315137 0.155998
H24   H     H_    0.618462 0.619745 0.009644 0.182177
H25   H     H_    0.498867 0.634665 0.978723 0.099482
H26   H     H_    0.619101 0.738893 0.006466 0.186755
H27   H     H_    0.751850 0.574271 0.680663 0.202060
H28   H     H_    0.881801 0.658443 0.764014 0.092952
H29   H     H_    0.792046 0.558449 0.780913 0.176514
H30   H     H_    0.597211 0.600340 0.741057 0.152468
H31   H     H_    0.462937 0.581755 0.707738 0.102555
H32   H     H_    0.499981 0.498619 0.634129 0.163218
H33   H     H_    0.730740 0.003657 0.986251 0.087957
H34   H     H_    0.292739 0.853967 0.159730 0.103316
H35   H     H_    0.715401 0.868605 0.952543 0.170556
H36   H     H_    0.715015 0.925408 0.875611 0.208352
H37   H     H_    0.670461 0.342322 0.014620 0.147972
H38   H     H_    0.346634 0.306476 0.991614 0.141746
H39   H     H_    0.507938 0.306932 0.991396 0.137829
H40   H     H_    0.372878 0.571743 0.845729 0.045748
H41   H     H_    0.094117 0.506060 0.402474 0.170537
N1    N     N_R   0.055640 0.348550 0.045600 -0.091455
N2    N     N_R   0.811290 0.303400 0.871650 -0.111002
N3    N     N_R   0.205180 0.552990 0.997660 -0.046513
N4    N     N_R   0.814810 0.361830 0.823710 -0.123036
N5    N     N_R   0.201660 0.494570 0.045600 -0.035197
N6    N     N_R   0.068420 0.560530 0.871650 -0.066061
N7    N     N_R   0.948050 0.295860 0.997660 -0.074533
N8    N     N_R   0.185190 0.638170 0.176290 -0.032709
N9    N     N_R   0.798340 0.505430 0.954400 -0.061859
N10   N     N_R   0.931580 0.439470 0.128350 -0.127371
N11   N     N_R   0.051950 0.704140 0.002340 -0.064642
N12   N     N_R   0.944360 0.651450 0.954400 -0.103548
N13   N     N_R   0.039170 0.492150 0.176290 -0.070246
N14   N     N_R   0.188710 0.696600 0.128350 -0.040547
N15   N     N_R   0.794820 0.447010 0.002340 -0.060738
N16   N     N_R   0.960830 0.507850 0.823710 -0.108747
Ni1   Ni    Ni4+2 0.119330 0.493420 0.109950 0.274116
Ni2   Ni    Ni4+2 0.880670 0.506580 0.890050 0.244132
Ni3   Ni    Ni4+2 0.872590 0.372590 0.000000 0.227040
Ni4   Ni    Ni4+2 0.127410 0.627410 0.000000 0.209897
O1    O     O_3   0.787431 0.399558 0.172257 -0.588706
O2    O     O_3   0.564626 0.614735 0.882805 -0.639417
O3    O     O_3   0.847236 0.499153 0.688438 -0.603097
O4    O     O_3   0.496363 0.467177 0.741075 -0.594453
O5    O     O_3   0.859042 0.977258 0.973472 -0.589512

loop_
_geom_bond_atom_site_label_1
_geom_bond_atom_site_label_2
_ccdc_geom_bond_type
N10   Ni3   S    
C42   H6    S    
N11   N12   A    
C6    C45   A    
N8    Ni1   S    
C27   C29   A    
C9    C64   A    
C59   H25   S    
C52   H16   S    
C35   C36   A    
C22   H2    S    
C3    C6    A    
C45   H19   S    
C51   H11   S    
C35   H7    S    
C39   C41   A    
C20   C30   A    
C45   N8    A    
C26   C27   A    
N4    Ni2   S    
N1    N7    A    
N9    Ni2   S    
C56   N9    A    
C13   H38   S    
N2    N4    A    
C30   C31   A    
C59   O2    S    
C10   C17   A    
C23   C40   A    
C33   C36   A    
C18   C19   S    
C58   H22   S    
N7    Ni3   S    
N14   Ni4   S    
C44   C53   S    
C31   Cl5   S    
C2    H23   S    
C36   H8    S    
C65   Cl2   S    
N1    Ni1   S    
C47   O5    S    
C28   H14   S    
N10   N13   A    
C32   C41   A    
C1    N1    A    
C4    C12   A    
C60   H29   S    
C61   H31   S    
C7    C15   S    
C29   H41   S    
C55   N7    A    
C28   C34   A    
C26   C31   A    
C56   H1    S    
C3    N14   A    
C13   C14   A    
N8    N14   A    
C59   H26   S    
N15   Ni3   S    
C16   Cl6   S    
C7    C56   A    
N6    N16   A    
C60   H28   S    
N2    Ni3   S    
N13   Ni1   S    
C64   H12   S    
C44   C46   A    
C50   C51   S    
C4    N16   A    
C9    C65   A    
C20   C29   A    
C25   H4    S    
C51   Cl8   S    
C61   H30   S    
C5    C7    A    
C61   O4    S    
C62   H33   S    
C5    H37   S    
C19   H40   S    
C58   O1    S    
C25   C26   A    
C12   C21   S    
C33   C37   A    
C48   H10   S    
C51   C53   S    
C1    Cl1   S    
C18   O2    S    
C35   C39   A    
C58   H21   S    
C37   C38   A    
C1    C57   A    
C47   C48   A    
C62   H36   S    
C10   C19   S    
C17   C18   S    
N9    N15   A    
C19   Cl3   S    
C53   H13   S    
C8    C20   S    
N6    Ni4   S    
C61   H32   S    
C63   N10   A    
C52   N5    A    
C48   C49   A    
C55   H18   S    
N11   Ni4   S    
C16   C23   A    
C64   N11   A    
C22   C27   A    
C55   C57   A    
C46   C57   S    
C53   H15   S    
C22   C24   A    
C42   C43   A    
C60   H27   S    
C65   N12   A    
C30   Cl4   S    
C44   C50   A    
C15   C17   A    
C43   Cl7   S    
C21   C25   A    
C46   C47   A    
C5    N15   A    
N5    Ni1   S    
C54   N6    A    
C11   C34   S    
C2    C8    A    
N12   Ni2   S    
N16   Ni2   S    
C41   H5    S    
C3    H34   S    
C14   H39   S    
C34   C52   A    
C6    C33   S    
C23   C32   S    
C58   H20   S    
C38   C43   A    
C28   N3    A    
C16   N2    A    
C63   O1    S    
C11   C13   A    
C38   C39   A    
C62   H35   S    
C40   Cl9   S    
C18   O4    S    
N3    N5    A    
C10   C11   A    
C8    C63   A    
C4    O3    S    
C24   H3    S    
C54   H17   S    
C40   N4    A    
C49   C50   A    
C21   C24   A    
C59   H24   S    
C32   C42   A    
C14   C15   A    
C37   H9    S    
C62   O5    S    
C12   C54   A    
N3    Ni4   S    
C60   O3    S    
C2    N13   A    
