data_mof_unit_54710.cif
_audit_creation_date              2012-12-10T18:21:18-0500
_audit_creation_method            fapswitch 2.2
_symmetry_space_group_name_H-M    P1
_symmetry_Int_Tables_number       1
_space_group_crystal_system       triclinic
_cell_length_a                    14.987028
_cell_length_b                    14.025674
_cell_length_c                    10.648792
_cell_angle_alpha                 90.302414
_cell_angle_beta                  89.967438
_cell_angle_gamma                 90.34979
_cell_volume                      2238.33660992

loop_
_atom_site_label
_atom_site_type_symbol
_atom_type_description
_atom_site_fract_x
_atom_site_fract_y
_atom_site_fract_z
_atom_type_partial_charge
C1    C     C_R   0.326833 0.499753 0.500380 0.876510
C2    C     C_3   0.596728 0.533790 0.928842 0.190583
C3    C     C_R   0.815693 0.574254 0.427022 -0.059229
C4    C     C_R   0.769192 0.501951 0.491955 -0.128358
C5    C     C_R   0.814069 0.429914 0.554963 -0.272571
C6    C     C_R   0.906113 0.428849 0.556552 0.101554
C7    C     C_R   0.954062 0.501801 0.495486 0.042774
C8    C     C_R   0.909079 0.575337 0.430749 0.074194
C9    C     C_R   0.950459 0.355699 0.618893 -0.257504
C10   C     C_R   0.043145 0.353351 0.621120 -0.000433
C11   C     C_R   0.092263 0.425999 0.560681 0.062807
C12   C     C_R   0.498074 0.499586 0.257773 0.871548
C13   C     C_R   0.047166 0.500737 0.498404 0.053667
C14   C     C_R   0.095286 0.574302 0.438186 0.133994
C15   C     C_R   0.051062 0.647293 0.375718 -0.223740
C16   C     C_R   0.958744 0.647774 0.371431 -0.199305
C17   C     C_R   0.185189 0.426247 0.559931 -0.270545
C18   C     C_R   0.231510 0.499597 0.500192 -0.073481
C19   C     C_R   0.187324 0.573527 0.440433 -0.273759
C20   C     C_R   0.577438 0.797986 0.526029 -0.038478
C21   C     C_R   0.577216 0.203188 0.527190 -0.065411
C22   C     C_R   0.423472 0.798283 0.474802 -0.070270
C23   C     C_R   0.423470 0.200575 0.474800 -0.071220
C24   C     C_R   0.422340 0.898621 0.475566 0.031577
C25   C     C_R   0.422304 0.100228 0.475722 0.034227
C26   C     C_R   0.673301 0.500470 0.496911 0.887880
C27   C     C_R   0.501799 0.949460 0.501656 0.066756
C28   C     C_R   0.501744 0.050588 0.501901 0.070386
C29   C     C_R   0.580956 0.899042 0.526472 -0.059945
C30   C     C_R   0.580707 0.102188 0.527799 -0.059954
C31   C     C_R   0.343650 0.948874 0.450431 -0.208492
C32   C     C_R   0.343632 0.048780 0.450531 -0.207025
C33   C     C_R   0.660495 0.051802 0.552221 -0.039927
C34   C     C_R   0.660834 0.950643 0.550253 -0.044441
C35   C     C_R   0.499553 0.499934 0.742324 0.803616
C36   C     C_3   0.420948 0.561951 0.074007 -0.446383
C37   C     C_3   0.483504 0.395443 0.072883 -0.415523
C38   C     C_3   0.423412 0.567459 0.929722 -0.068135
C39   C     C_3   0.481096 0.393864 0.929424 -0.051614
C40   C     C_3   0.588544 0.538523 0.075642 -0.387545
C41   C     C_3   0.497926 0.498603 0.121666 0.058191
C42   C     C_3   0.499355 0.499099 0.879029 0.015957
H1    H     H_    0.426710 0.635521 0.113169 0.172812
H2    H     H_    0.537794 0.348283 0.106450 0.166791
H3    H     H_    0.222125 0.370576 0.606809 0.155744
H4    H     H_    0.224785 0.629575 0.393771 0.145105
H5    H     H_    0.087958 0.703830 0.329479 0.144390
H6    H     H_    0.926885 0.705479 0.321825 0.163267
H7    H     H_    0.636358 0.757015 0.546724 0.154898
H8    H     H_    0.636096 0.245034 0.548179 0.150715
H9    H     H_    0.363079 0.758653 0.454039 0.134852
H10   H     H_    0.363110 0.239345 0.454080 0.139255
H11   H     H_    0.282087 0.910859 0.430409 0.141891
H12   H     H_    0.282063 0.085851 0.430626 0.147900
H13   H     H_    0.356342 0.532324 0.108374 0.170172
H14   H     H_    0.421017 0.366028 0.114323 0.180605
H15   H     H_    0.441623 0.641352 0.904686 0.159384
H16   H     H_    0.538239 0.349208 0.900145 0.168210
H17   H     H_    0.592082 0.613518 0.109453 0.181439
H18   H     H_    0.643489 0.503091 0.125825 0.145401
H19   H     H_    0.776936 0.374913 0.604247 0.164198
H20   H     H_    0.912740 0.299934 0.665495 0.174670
N1    N     N_R   0.500070 0.750030 0.500050 -0.105347
N2    N     N_R   0.500070 0.249970 0.500050 -0.104265
O1    O     O_R   0.367860 0.580280 0.500020 -0.630462
O2    O     O_R   0.367860 0.419720 0.500020 -0.634084
O3    O     O_R   0.500000 0.580270 0.314790 -0.618314
O4    O     O_R   0.500000 0.419730 0.314790 -0.621969
O5    O     O_R   0.632160 0.580270 0.499960 -0.624374
O6    O     O_R   0.632160 0.419730 0.499960 -0.631405
O7    O     O_R   0.500030 0.580270 0.685200 -0.630932
O8    O     O_R   0.500030 0.419730 0.685200 -0.630593
Zn1   Zn    Zn3+2 0.500020 0.607200 0.499990 0.936872
Zn2   Zn    Zn3+2 0.500020 0.392800 0.499990 0.926114
C43   C     C_1   0.085315 0.275209 0.685517 0.150484
N3    N     N_1   0.118524 0.212334 0.737121 -0.222570
C44   C     C_1   0.742716 0.103347 0.578160 0.150816
N4    N     N_1   0.808348 0.144343 0.598850 -0.224098
C45   C     C_1   0.744107 0.900450 0.569238 0.159271
N5    N     N_1   0.810666 0.860585 0.583758 -0.206603
C46   C     C_3   0.328518 0.553175 0.872181 -0.408733
C47   C     C_3   0.269867 0.641776 0.889623 -0.365623
C48   C     C_3   0.177667 0.626523 0.831625 -0.846296
H21   H     H_    0.183552 0.613955 0.728932 0.272449
H22   H     H_    0.143602 0.564488 0.875453 0.259603
H23   H     H_    0.136387 0.690965 0.847299 0.250649
H24   H     H_    0.261887 0.657859 0.991305 0.222468
H25   H     H_    0.301971 0.704265 0.843859 0.225258
H26   H     H_    0.333019 0.538387 0.770019 0.203931
H27   H     H_    0.293537 0.492328 0.916520 0.206381
C49   C     C_3   0.395776 0.339987 0.879940 -0.380774
C50   C     C_3   0.414920 0.233997 0.854388 -0.373157
C51   C     C_3   0.332680 0.181832 0.804350 -0.826035
H28   H     H_    0.278103 0.184201 0.874844 0.267527
H29   H     H_    0.309825 0.214972 0.715576 0.261979
H30   H     H_    0.349407 0.106149 0.784929 0.251718
H31   H     H_    0.469152 0.227345 0.783622 0.237191
H32   H     H_    0.437030 0.199316 0.942599 0.220985
H33   H     H_    0.339879 0.344251 0.948159 0.192391
H34   H     H_    0.369795 0.371388 0.792190 0.219604
C52   C     C_3   0.624371 0.636785 0.881148 -0.422458
C53   C     C_3   0.710513 0.678192 0.941553 -0.377982
C54   C     C_3   0.754707 0.751941 0.856515 -0.843790
H35   H     H_    0.777260 0.717549 0.767886 0.266826
H36   H     H_    0.707078 0.809860 0.834306 0.263159
H37   H     H_    0.813708 0.783477 0.904589 0.257092
H38   H     H_    0.694133 0.714089 0.031755 0.235111
H39   H     H_    0.759881 0.621868 0.962428 0.235894
H40   H     H_    0.635051 0.633999 0.778025 0.230389
H41   H     H_    0.572052 0.690389 0.898209 0.187719
C55   C     C_3   0.673158 0.464055 0.877056 -0.413625
C56   C     C_3   0.723853 0.401324 0.971120 -0.373144
C57   C     C_3   0.788263 0.334398 0.903650 -0.882996
H42   H     H_    0.751599 0.286944 0.837328 0.260050
H43   H     H_    0.838956 0.376386 0.851286 0.264151
H44   H     H_    0.823140 0.289498 0.973522 0.261664
H45   H     H_    0.764006 0.446987 0.035579 0.225099
H46   H     H_    0.676783 0.357230 0.026355 0.223691
H47   H     H_    0.647235 0.416894 0.801693 0.190143
H48   H     H_    0.725189 0.504490 0.824861 0.209746
C58   C     C_1   0.768024 0.644429 0.353204 0.159092
N6    N     N_1   0.730082 0.700323 0.294511 -0.230516

loop_
_geom_bond_atom_site_label_1
_geom_bond_atom_site_label_2
_ccdc_geom_bond_type
C52   C53   S    
C40   H18   S    
C27   C29   A    
C55   C56   S    
C24   C27   A    
C15   H5    S    
C16   H6    S    
C6    C9    A    
C46   C47   S    
C19   H4    S    
C50   H32   S    
C7    C8    A    
C44   N4    T    
C25   C28   A    
C12   O4    A    
C1    C18   S    
C12   C41   S    
C17   H3    S    
C38   C42   S    
C5    C6    A    
O4    Zn2   S    
C47   H24   S    
O2    Zn2   S    
O1    Zn1   S    
C55   H47   S    
C18   C19   A    
C39   C49   S    
C35   C42   S    
C56   C57   S    
C21   N2    A    
C22   N1    A    
C37   H14   S    
C11   C17   A    
C31   C32   A    
O6    Zn2   S    
C1    O1    A    
C53   H39   S    
O3    Zn1   S    
C49   H34   S    
C9    C10   A    
C57   H44   S    
C46   H26   S    
C25   C32   A    
C35   O7    A    
C8    C16   A    
C40   H17   S    
C13   C14   A    
C36   C41   S    
C32   H12   S    
C21   H8    S    
C50   H31   S    
C33   C34   A    
C39   C42   S    
C20   C29   A    
C12   O3    A    
C2    C55   S    
C15   C16   A    
C9    H20   S    
O8    Zn2   S    
C3    C8    A    
C49   C50   S    
O7    Zn1   S    
N1    Zn1   S    
C2    C52   S    
C52   H41   S    
C39   H16   S    
C29   C34   A    
C55   H48   S    
C1    O2    A    
C43   N3    T    
C20   H7    S    
C34   C45   S    
C38   H15   S    
C10   C43   S    
C48   H21   S    
C2    C42   S    
C17   C18   A    
C5    H19   S    
C53   H38   S    
C54   H36   S    
C51   H28   S    
C31   H11   S    
O5    Zn1   S    
C58   N6    T    
C46   H27   S    
C40   C41   S    
C48   H22   S    
C35   O8    A    
C51   H30   S    
C38   C46   S    
C26   O6    A    
C22   C24   A    
C3    C4    A    
C54   H35   S    
C57   H42   S    
C23   N2    A    
C30   C33   A    
C14   C19   A    
C4    C5    A    
C4    C26   S    
C6    C7    A    
C21   C30   A    
C20   N1    A    
C36   C38   S    
C24   C31   A    
C37   C39   S    
C36   H13   S    
C56   H46   S    
C11   C13   A    
C33   C44   S    
C23   H10   S    
C56   H45   S    
C37   H2    S    
C47   H25   S    
C28   C30   A    
C50   C51   S    
C54   H37   S    
C23   C25   A    
C37   C41   S    
C53   C54   S    
C10   C11   A    
C45   N5    T    
C2    C40   S    
C7    C13   A    
C48   H23   S    
C51   H29   S    
C47   C48   S    
C27   C28   A    
C26   O5    A    
N2    Zn2   S    
C14   C15   A    
C36   H1    S    
C49   H33   S    
C52   H40   S    
C3    C58   S    
C22   H9    S    
C57   H43   S    
