data_mof_unit_41773.cif
_audit_creation_date              2012-10-26T18:33:35-0400
_audit_creation_method            fapswitch 2.2
_symmetry_space_group_name_H-M    P1
_symmetry_Int_Tables_number       1
_space_group_crystal_system       triclinic
_cell_length_a                    15.020336
_cell_length_b                    13.94252
_cell_length_c                    10.798122
_cell_angle_alpha                 89.804205
_cell_angle_beta                  88.51572
_cell_angle_gamma                 89.973557
_cell_volume                      2260.58501451

loop_
_atom_site_label
_atom_site_type_symbol
_atom_type_description
_atom_site_fract_x
_atom_site_fract_y
_atom_site_fract_z
_atom_type_partial_charge
C1    C     C_R   0.329076 0.500686 0.495625 0.568294
C2    C     C_R   0.043320 0.405682 0.684833 0.002962
C3    C     C_R   0.091831 0.451158 0.586474 -0.001949
C4    C     C_R   0.498468 0.499950 0.260278 0.558440
C5    C     C_R   0.045994 0.495543 0.488445 0.018267
C6    C     C_R   0.093291 0.543450 0.390893 -0.010637
C7    C     C_R   0.045835 0.576685 0.286299 0.069320
C8    C     C_R   0.952738 0.577932 0.291748 -0.104567
C9    C     C_R   0.184871 0.451267 0.581466 -0.127783
C10   C     C_R   0.231958 0.502754 0.490602 -0.019531
C11   C     C_R   0.185793 0.558708 0.403210 0.051364
C12   C     C_3   0.602887 0.504538 0.927147 0.065657
C13   C     C_R   0.434444 0.794595 0.564294 0.183871
C14   C     C_R   0.433859 0.204643 0.562963 0.184721
C15   C     C_R   0.565047 0.794987 0.434909 0.186209
C16   C     C_R   0.565756 0.205417 0.436014 0.184789
C17   C     C_R   0.565602 0.897386 0.432784 -0.024466
C18   C     C_R   0.566072 0.102924 0.433483 -0.025830
C19   C     C_R   0.670648 0.499745 0.499277 0.566863
C20   C     C_R   0.500050 0.948441 0.499846 0.026094
C21   C     C_R   0.500282 0.051334 0.500123 0.028080
C22   C     C_R   0.434261 0.896930 0.566681 -0.024287
C23   C     C_R   0.813361 0.541300 0.397681 -0.082945
C24   C     C_R   0.434478 0.102281 0.566732 -0.020939
C25   C     C_R   0.630612 0.950319 0.364921 -0.103095
C26   C     C_R   0.630887 0.050376 0.365368 -0.106819
C27   C     C_R   0.370485 0.049262 0.636463 -0.098606
C28   C     C_R   0.370149 0.949341 0.635993 -0.099003
C29   C     C_R   0.501164 0.499632 0.739871 0.574730
C30   C     C_3   0.446279 0.584798 0.071429 -0.242239
C31   C     C_3   0.457877 0.405492 0.073362 -0.254751
C32   C     C_3   0.449618 0.585427 0.929602 -0.246442
C33   C     C_3   0.455646 0.407483 0.931324 -0.238083
C34   C     C_R   0.766830 0.498277 0.496368 0.052131
C35   C     C_3   0.597234 0.505119 0.072633 -0.215952
C36   C     C_3   0.499823 0.499195 0.122208 -0.001187
C37   C     C_3   0.504003 0.498556 0.878366 -0.018550
C38   C     C_2   0.086675 0.362471 0.794058 0.581020
C39   C     C_2   0.228104 0.644606 0.343781 0.641385
C40   C     C_2   0.090288 0.599642 0.165097 0.617622
C41   C     C_2   0.361455 0.744628 0.631166 0.611784
C42   C     C_2   0.356146 0.252473 0.620962 0.605211
C43   C     C_2   0.637726 0.745801 0.367293 0.598909
C44   C     C_2   0.638551 0.255349 0.368487 0.611322
C45   C     C_R   0.811942 0.449939 0.589206 -0.056607
C46   C     C_2   0.648377 0.596008 0.877815 0.575229
C47   C     C_2   0.662763 0.420204 0.888259 0.547660
C48   C     C_R   0.904823 0.448680 0.587386 0.015319
C49   C     C_R   0.952477 0.494105 0.489466 0.058160
C50   C     C_R   0.906151 0.538946 0.393166 0.002338
C51   C     C_R   0.950287 0.404134 0.682971 -0.124091
Cu1   Cu    Cu3+1 0.499990 0.597420 0.500010 1.087547
Cu2   Cu    Cu3+1 0.499990 0.402580 0.500010 1.082132
H1    H     H_    0.472363 0.654097 0.106182 0.203355
H2    H     H_    0.230915 0.710815 0.637963 0.343076
H3    H     H_    0.221679 0.255114 0.631604 0.337743
H4    H     H_    0.685609 0.699698 0.203136 0.335904
H5    H     H_    0.685090 0.308065 0.206218 0.335816
H6    H     H_    0.682288 0.915211 0.310098 0.160961
H7    H     H_    0.682705 0.085801 0.310893 0.158831
H8    H     H_    0.319953 0.084143 0.693526 0.162135
H9    H     H_    0.319033 0.913918 0.691765 0.162044
H10   H     H_    0.375618 0.577611 0.101963 0.185158
H11   H     H_    0.389005 0.396746 0.112402 0.164904
H12   H     H_    0.497007 0.342058 0.102846 0.198505
H13   H     H_    0.478739 0.654491 0.897018 0.220743
H14   H     H_    0.484975 0.339964 0.894687 0.217153
H15   H     H_    0.629676 0.568726 0.111708 0.176568
H16   H     H_    0.634548 0.444110 0.112176 0.141442
H17   H     H_    0.676112 0.736400 0.901911 0.360316
H18   H     H_    0.782947 0.356877 0.903068 0.339748
H19   H     H_    0.777135 0.574659 0.323383 0.126869
H20   H     H_    0.774608 0.414966 0.663639 0.171137
H21   H     H_    0.913016 0.370376 0.758558 0.128933
H22   H     H_    0.380293 0.582068 0.895778 0.174119
H23   H     H_    0.384874 0.408227 0.903279 0.188938
H24   H     H_    0.020775 0.236658 0.780365 0.305027
H25   H     H_    0.222353 0.415773 0.652159 0.177524
H26   H     H_    0.334387 0.704197 0.256483 0.339264
H27   H     H_    0.189620 0.569863 0.041570 0.357637
H28   H     H_    0.916170 0.605813 0.214093 0.158061
N1    N     N_R   0.499930 0.743810 0.499950 -0.292255
N2    N     N_R   0.499930 0.256190 0.499950 -0.288412
O1    O     O_R   0.370250 0.582280 0.500040 -0.462871
O2    O     O_R   0.063854 0.270537 0.836106 -0.636237
O3    O     O_2   0.187490 0.720707 0.342876 -0.456896
O4    O     O_R   0.313130 0.639846 0.289816 -0.685082
O5    O     O_2   0.059370 0.661421 0.097932 -0.471043
O6    O     O_R   0.165673 0.548025 0.125673 -0.671347
O7    O     O_2   0.373250 0.711672 0.733947 -0.554623
O8    O     O_R   0.276276 0.744870 0.582289 -0.664721
O9    O     O_2   0.363601 0.298363 0.715995 -0.532501
O10   O     O_R   0.272020 0.235141 0.573120 -0.694203
O11   O     O_2   0.710771 0.739844 0.414220 -0.510883
O12   O     O_R   0.370250 0.417720 0.500040 -0.488573
O13   O     O_R   0.627116 0.719937 0.244037 -0.699630
O14   O     O_2   0.711651 0.261270 0.415288 -0.512470
O15   O     O_R   0.627419 0.284131 0.246116 -0.716671
O16   O     O_2   0.686342 0.595800 0.776105 -0.484717
O17   O     O_R   0.644511 0.681267 0.945871 -0.710917
O18   O     O_2   0.637140 0.357249 0.819308 -0.514723
O19   O     O_R   0.749564 0.416196 0.932141 -0.698757
O20   O     O_R   0.499970 0.582270 0.317700 -0.474427
O21   O     O_R   0.499970 0.417730 0.317700 -0.494555
O22   O     O_R   0.629730 0.582260 0.499980 -0.463611
O23   O     O_R   0.629730 0.417740 0.499980 -0.481603
O24   O     O_R   0.500000 0.582270 0.682320 -0.477229
O25   O     O_R   0.500000 0.417730 0.682320 -0.449209
O26   O     O_2   0.141114 0.408680 0.850995 -0.452821

loop_
_geom_bond_atom_site_label_1
_geom_bond_atom_site_label_2
_ccdc_geom_bond_type
C46   O16   D    
C4    C36   S    
Cu1   O20   S    
C47   O18   D    
Cu2   O12   S    
C42   O10   S    
C35   C36   S    
C18   C26   A    
C24   C27   A    
C39   O4    S    
C43   O11   D    
C32   H22   S    
C13   C41   S    
C7    C8    A    
C1    O1    A    
C30   H1    S    
C5    C6    A    
Cu2   O21   S    
C18   C21   A    
C4    O20   A    
C12   C37   S    
C17   C20   A    
C45   H20   S    
C14   C24   A    
H27   O6    S    
Cu1   O1    S    
H2    O8    S    
C27   H8    S    
C44   O15   S    
Cu2   O23   S    
C48   C51   A    
Cu1   O24   S    
H4    O13   S    
H5    O15   S    
C7    C40   S    
C31   C33   S    
C29   O25   A    
C40   O6    S    
C9    C10   A    
C16   C44   S    
C14   C42   S    
C41   O7    D    
H24   O2    S    
C47   O19   S    
C22   C28   A    
C30   H10   S    
C5    C49   A    
C14   N2    A    
C12   C47   S    
C31   H11   S    
H26   O4    S    
H17   O17   S    
C15   N1    A    
H3    O10   S    
C38   O2    S    
C8    H28   S    
C12   C46   S    
C10   C11   A    
C6    C11   A    
C23   C50   A    
C25   C26   A    
C13   N1    A    
C16   N2    A    
C33   C37   S    
C51   H21   S    
C38   O26   D    
Cu1   N1    S    
C3    C9    A    
C44   O14   D    
C2    C38   S    
C33   H23   S    
C1    O12   A    
C23   C34   A    
C43   O13   S    
C34   C45   A    
C32   C37   S    
C12   C35   S    
C11   C39   S    
C19   O22   A    
C48   C49   A    
C41   O8    S    
H18   O19   S    
C20   C22   A    
Cu1   O22   S    
C8    C50   A    
Cu1   Cu2   S    
C33   H14   S    
C32   H13   S    
C45   C48   A    
C31   H12   S    
C46   O17   S    
C23   H19   S    
C1    C10   S    
C3    C5    A    
C19   C34   S    
C15   C17   A    
C6    C7    A    
C30   C36   S    
Cu2   N2    S    
C17   C25   A    
C40   O5    D    
C2    C3    A    
C15   C43   S    
C30   C32   S    
Cu2   O25   S    
C35   H15   S    
C4    O21   A    
C13   C22   A    
C42   O9    D    
C9    H25   S    
C2    C51   A    
C19   O23   A    
C20   C21   A    
C35   H16   S    
C16   C18   A    
C49   C50   A    
C21   C24   A    
C29   C37   S    
C27   C28   A    
C31   C36   S    
C29   O24   A    
C25   H6    S    
C39   O3    D    
C26   H7    S    
C28   H9    S    
