data_mof_unit_63201.cif
_audit_creation_date              2013-03-05T16:08:54-0500
_audit_creation_method            fapswitch 2.2
_symmetry_space_group_name_H-M    P1
_symmetry_Int_Tables_number       1
_space_group_crystal_system       triclinic
_cell_length_a                    18.224444
_cell_length_b                    18.224469
_cell_length_c                    59.903437
_cell_angle_alpha                 89.999975
_cell_angle_beta                  90.0004
_cell_angle_gamma                 89.976012
_cell_volume                      19895.7755912

loop_
_atom_site_label
_atom_site_type_symbol
_atom_site_description
_atom_site_fract_x
_atom_site_fract_y
_atom_site_fract_z
_atom_type_partial_charge
Zn1   Zn    Zn3+2 0.587490 0.999960 0.768710 1.020400
Zn2   Zn    Zn3+2 0.999960 0.412510 0.231290 0.987398
Zn3   Zn    Zn3+2 0.412510 0.000040 0.768710 1.042160
Zn4   Zn    Zn3+2 0.000040 0.587490 0.231290 1.024934
Zn5   Zn    Zn3+2 0.412510 0.999960 0.231290 0.987318
Zn6   Zn    Zn3+2 0.000040 0.412510 0.768710 1.041875
Zn7   Zn    Zn3+2 0.587490 0.000040 0.231290 1.024695
Zn8   Zn    Zn3+2 0.999960 0.587490 0.768710 1.020110
Zn9   Zn    Zn3+2 0.087490 0.499960 0.268710 1.041679
Zn10  Zn    Zn3+2 0.499960 0.912510 0.731290 1.025176
Zn11  Zn    Zn3+2 0.912510 0.500040 0.268710 1.019883
Zn12  Zn    Zn3+2 0.500040 0.087490 0.731290 0.987525
Zn13  Zn    Zn3+2 0.912510 0.499960 0.731290 1.025127
Zn14  Zn    Zn3+2 0.500040 0.912510 0.268710 1.019823
Zn15  Zn    Zn3+2 0.087490 0.500040 0.731290 0.987499
Zn16  Zn    Zn3+2 0.499960 0.087490 0.268710 1.041670
O1    O     O_3   0.500000 0.000000 0.750000 -0.504408
O2    O     O_3   1.000000 0.500000 0.250000 -0.504234
O3    O     O_3   0.500000 0.000000 0.250000 -0.504177
O4    O     O_3   1.000000 0.500000 0.750000 -0.504328
O5    O     O_R   0.499920 0.938710 0.700060 -0.623775
O6    O     O_R   0.938710 0.500080 0.299940 -0.628497
O7    O     O_R   0.500080 0.061290 0.700060 -0.643821
O8    O     O_R   0.061290 0.499920 0.299940 -0.630548
O9    O     O_R   0.500080 0.938710 0.299940 -0.628565
O10   O     O_R   0.061290 0.500080 0.700060 -0.643814
O11   O     O_R   0.499920 0.061290 0.299940 -0.630619
O12   O     O_R   0.938710 0.499920 0.700060 -0.623888
O13   O     O_R   0.999920 0.438710 0.200060 -0.643808
O14   O     O_R   0.438710 0.000080 0.799940 -0.630430
O15   O     O_R   0.000080 0.561290 0.200060 -0.623897
O16   O     O_R   0.561290 0.999920 0.799940 -0.628382
O17   O     O_R   0.000080 0.438710 0.799940 -0.630523
O18   O     O_R   0.561290 0.000080 0.200060 -0.623997
O19   O     O_R   0.999920 0.561290 0.799940 -0.628478
O20   O     O_R   0.438710 0.999920 0.200060 -0.643782
O21   O     O_R   0.586160 0.147460 0.736910 -0.660437
O22   O     O_R   0.147460 0.413840 0.263090 -0.641997
O23   O     O_R   0.413840 0.852540 0.736910 -0.656923
O24   O     O_R   0.852540 0.586160 0.263090 -0.655292
O25   O     O_R   0.413840 0.147460 0.263090 -0.641934
O26   O     O_R   0.852540 0.413840 0.736910 -0.656842
O27   O     O_R   0.586160 0.852540 0.263090 -0.655209
O28   O     O_R   0.147460 0.586160 0.736910 -0.660363
O29   O     O_R   0.086160 0.647460 0.236910 -0.656920
O30   O     O_R   0.647460 0.913840 0.763090 -0.655026
O31   O     O_R   0.913840 0.352540 0.236910 -0.660442
O32   O     O_R   0.352540 0.086160 0.763090 -0.641718
O33   O     O_R   0.913840 0.647460 0.763090 -0.655206
O34   O     O_R   0.352540 0.913840 0.236910 -0.660631
O35   O     O_R   0.086160 0.352540 0.763090 -0.641897
O36   O     O_R   0.647460 0.086160 0.236910 -0.657085
O37   O     O_R   0.352450 0.913760 0.763090 -0.591054
O38   O     O_R   0.913760 0.647550 0.236910 -0.601772
O39   O     O_R   0.647550 0.086240 0.763090 -0.598738
O40   O     O_R   0.086240 0.352450 0.236910 -0.643706
O41   O     O_R   0.647550 0.913760 0.236910 -0.601749
O42   O     O_R   0.086240 0.647550 0.763090 -0.598711
O43   O     O_R   0.352450 0.086240 0.236910 -0.643520
O44   O     O_R   0.913760 0.352450 0.763090 -0.591030
O45   O     O_R   0.852450 0.413760 0.263090 -0.598724
O46   O     O_R   0.413760 0.147550 0.736910 -0.643732
O47   O     O_R   0.147550 0.586240 0.263090 -0.591036
O48   O     O_R   0.586240 0.852450 0.736910 -0.601734
O49   O     O_R   0.147550 0.413760 0.736910 -0.643781
O50   O     O_R   0.586240 0.147550 0.263090 -0.591068
O51   O     O_R   0.852450 0.586240 0.736910 -0.601755
O52   O     O_R   0.413760 0.852450 0.263090 -0.598766
C1    C     C_R   0.500045 0.999993 0.689386 0.830921
C2    C     C_R   1.000000 0.500001 0.310612 0.825614
C3    C     C_R   0.500001 1.000000 0.310613 0.825785
C4    C     C_R   0.999993 0.500047 0.689387 0.831126
C5    C     C_R   0.999954 0.500007 0.189386 0.830946
C6    C     C_R   0.500001 0.999998 0.810613 0.826104
C7    C     C_R   0.999999 0.500000 0.810613 0.825846
C8    C     C_R   0.500006 0.999954 0.189386 0.830776
C9    C     C_R   0.641192 0.141353 0.750016 0.795380
C10   C     C_R   0.141269 0.358744 0.249975 0.820466
C11   C     C_R   0.358809 0.858656 0.750014 0.804777
C12   C     C_R   0.858640 0.641168 0.249979 0.788891
C13   C     C_R   0.358745 0.141269 0.249975 0.820584
C14   C     C_R   0.858656 0.358809 0.750014 0.804772
C15   C     C_R   0.641168 0.858640 0.249978 0.788888
C16   C     C_R   0.141352 0.641192 0.750016 0.795367
C17   C     C_R   0.141190 0.641344 0.250015 0.804578
C18   C     C_R   0.641359 0.858831 0.749979 0.789250
C19   C     C_R   0.858809 0.358646 0.250017 0.795141
C20   C     C_R   0.358731 0.141256 0.749975 0.820697
C21   C     C_R   0.858831 0.641359 0.749979 0.789114
C22   C     C_R   0.358647 0.858809 0.250017 0.794972
C23   C     C_R   0.141255 0.358731 0.749975 0.820563
C24   C     C_R   0.641344 0.141191 0.250015 0.804469
C25   C     C_3   0.664902 0.724673 0.753506 -0.366643
C26   C     C_3   0.724609 0.335125 0.246445 -0.370423
C27   C     C_3   0.319550 0.260146 0.732695 -0.350762
C28   C     C_3   0.275364 0.664851 0.246426 -0.331214
C29   C     C_3   0.335124 0.724609 0.246445 -0.370508
C30   C     C_3   0.260145 0.319550 0.732695 -0.350799
C31   C     C_3   0.664851 0.275364 0.246425 -0.331294
C32   C     C_3   0.724673 0.664902 0.753506 -0.366722
C33   C     C_3   0.180446 0.239852 0.232695 -0.350654
C34   C     C_3   0.224634 0.835152 0.746428 -0.331106
C35   C     C_3   0.835096 0.775325 0.253509 -0.366829
C36   C     C_3   0.775393 0.164873 0.746447 -0.370307
C37   C     C_3   0.835152 0.224633 0.746428 -0.331094
C38   C     C_3   0.775325 0.835096 0.253508 -0.366801
C39   C     C_3   0.164873 0.775394 0.746448 -0.370295
C40   C     C_3   0.239851 0.180447 0.232696 -0.350467
H1    H     H_    0.622666 0.711599 0.740803 0.232197
H2    H     H_    0.711452 0.377387 0.259135 0.236513
H3    H     H_    0.327123 0.238533 0.715555 0.235751
H4    H     H_    0.288507 0.622487 0.259086 0.243174
H5    H     H_    0.377389 0.711451 0.259134 0.236531
H6    H     H_    0.238531 0.327122 0.715554 0.235685
H7    H     H_    0.622484 0.288507 0.259086 0.243196
H8    H     H_    0.711600 0.622664 0.740804 0.232214
H9    H     H_    0.172871 0.261462 0.215555 0.235941
H10   H     H_    0.211496 0.877515 0.759089 0.243232
H11   H     H_    0.877338 0.788402 0.240808 0.232173
H12   H     H_    0.788547 0.122613 0.759138 0.236577
H13   H     H_    0.877512 0.211495 0.759091 0.243207
H14   H     H_    0.788402 0.877336 0.240807 0.232148
H15   H     H_    0.122616 0.788548 0.759139 0.236554
H16   H     H_    0.261461 0.172870 0.215555 0.236183
H17   H     H_    0.635936 0.723924 0.769871 0.160528
H18   H     H_    0.723925 0.364063 0.230076 0.168014
H19   H     H_    0.372867 0.285798 0.737355 0.172525
H20   H     H_    0.276043 0.636008 0.230040 0.187455
H21   H     H_    0.364059 0.723925 0.230074 0.167811
H22   H     H_    0.285796 0.372867 0.737355 0.172521
H23   H     H_    0.636010 0.276045 0.230039 0.187314
H24   H     H_    0.723925 0.635938 0.769872 0.160345
H25   H     H_    0.127130 0.214201 0.237357 0.172460
H26   H     H_    0.223949 0.863996 0.730042 0.187716
H27   H     H_    0.864055 0.776070 0.269875 0.160024
H28   H     H_    0.776082 0.135932 0.730078 0.168302
H29   H     H_    0.863999 0.223948 0.730043 0.187738
H30   H     H_    0.776069 0.864058 0.269874 0.160065
H31   H     H_    0.135929 0.776083 0.730079 0.168321
H32   H     H_    0.214200 0.127131 0.237357 0.172444
C41   C     C_3   0.743806 0.804427 0.727296 0.094483
C42   C     C_3   0.804281 0.256299 0.272715 0.096016
C43   C     C_3   0.224040 0.163426 0.744335 0.091226
C44   C     C_3   0.195736 0.743646 0.272720 0.090767
C45   C     C_3   0.256302 0.804279 0.272715 0.096265
C46   C     C_3   0.163426 0.224040 0.744336 0.091298
C47   C     C_3   0.743644 0.195736 0.272720 0.091015
C48   C     C_3   0.804426 0.743804 0.727296 0.094696
C49   C     C_3   0.275959 0.336573 0.244334 0.091160
C50   C     C_3   0.304270 0.756349 0.772718 0.091623
C51   C     C_3   0.756200 0.695579 0.227294 0.094555
C52   C     C_3   0.695715 0.243706 0.772713 0.096860
C53   C     C_3   0.756349 0.304271 0.772717 0.090915
C54   C     C_3   0.695577 0.756200 0.227294 0.093831
C55   C     C_3   0.243707 0.695713 0.772713 0.096154
C56   C     C_3   0.336572 0.275959 0.244333 0.090982
C57   C     C_3   0.754906 0.814588 0.769129 -0.445165
C58   C     C_3   0.814630 0.245023 0.230893 -0.451925
C59   C     C_3   0.295294 0.235197 0.773080 -0.467212
C60   C     C_3   0.185337 0.754985 0.230899 -0.447277
C61   C     C_3   0.245022 0.814631 0.230893 -0.452232
C62   C     C_3   0.235197 0.295294 0.773080 -0.467880
C63   C     C_3   0.754985 0.185337 0.230899 -0.447587
C64   C     C_3   0.814589 0.754907 0.769129 -0.445479
C65   C     C_3   0.204710 0.264807 0.273081 -0.468331
C66   C     C_3   0.314655 0.745021 0.730896 -0.447202
C67   C     C_3   0.745087 0.685405 0.269126 -0.445726
C68   C     C_3   0.685376 0.254970 0.730890 -0.451867
C69   C     C_3   0.745022 0.314655 0.730896 -0.447039
C70   C     C_3   0.685406 0.745087 0.269126 -0.445563
C71   C     C_3   0.254968 0.685377 0.730890 -0.451705
C72   C     C_3   0.264808 0.204710 0.273081 -0.468184
C73   C     C_3   0.699485 0.801587 0.749709 0.027269
C74   C     C_3   0.801539 0.300538 0.250285 0.025431
C75   C     C_3   0.300517 0.198415 0.749703 0.024156
C76   C     C_3   0.198452 0.699444 0.250282 0.007289
C77   C     C_3   0.300538 0.801539 0.250285 0.025609
C78   C     C_3   0.198415 0.300517 0.749703 0.024465
C79   C     C_3   0.699443 0.198452 0.250282 0.007437
C80   C     C_3   0.801587 0.699484 0.749709 0.027440
C81   C     C_3   0.199483 0.301585 0.249703 0.024815
C82   C     C_3   0.301547 0.800557 0.750281 0.006922
C83   C     C_3   0.800515 0.698412 0.249709 0.027831
C84   C     C_3   0.698462 0.199461 0.750284 0.025048
C85   C     C_3   0.800557 0.301547 0.750281 0.006928
C86   C     C_3   0.698411 0.800514 0.249708 0.027837
C87   C     C_3   0.199461 0.698462 0.750284 0.025056
C88   C     C_3   0.301585 0.199483 0.249702 0.024632
H33   H     H_    0.781403 0.869353 0.767438 0.201307
H34   H     H_    0.869409 0.218529 0.232610 0.192294
H35   H     H_    0.282255 0.193555 0.786079 0.199487
H36   H     H_    0.130579 0.781510 0.232635 0.196536
H37   H     H_    0.218528 0.869409 0.232611 0.192333
H38   H     H_    0.193557 0.282255 0.786079 0.199130
H39   H     H_    0.781511 0.130580 0.232635 0.196563
H40   H     H_    0.869353 0.781405 0.767437 0.201332
H41   H     H_    0.217752 0.306450 0.286078 0.198683
H42   H     H_    0.369413 0.718494 0.732630 0.196556
H43   H     H_    0.718590 0.630641 0.267432 0.201307
H44   H     H_    0.630597 0.281465 0.732605 0.192309
H45   H     H_    0.718496 0.369413 0.732629 0.196550
H46   H     H_    0.630641 0.718591 0.267433 0.201294
H47   H     H_    0.281463 0.630598 0.732604 0.192305
H48   H     H_    0.306451 0.217752 0.286078 0.198771
H49   H     H_    0.725781 0.813957 0.785471 0.212240
H50   H     H_    0.814029 0.274079 0.214539 0.212160
H51   H     H_    0.349008 0.260074 0.777656 0.195042
H52   H     H_    0.185867 0.725948 0.214541 0.214511
H53   H     H_    0.274077 0.814033 0.214539 0.211757
H54   H     H_    0.260076 0.349008 0.777656 0.194901
H55   H     H_    0.725948 0.185865 0.214541 0.214135
H56   H     H_    0.813961 0.725781 0.785471 0.211841
H57   H     H_    0.150998 0.239929 0.277657 0.194673
H58   H     H_    0.314122 0.774063 0.714540 0.214980
H59   H     H_    0.774208 0.686029 0.285469 0.211286
H60   H     H_    0.685980 0.225908 0.714537 0.212633
H61   H     H_    0.774064 0.314120 0.714539 0.215049
H62   H     H_    0.686032 0.774208 0.285469 0.211366
H63   H     H_    0.225907 0.685983 0.714537 0.212699
H64   H     H_    0.239931 0.150997 0.277658 0.194696
H65   H     H_    0.773192 0.858154 0.727266 0.077287
H66   H     H_    0.858001 0.226856 0.272773 0.071072
H67   H     H_    0.210871 0.126305 0.758606 0.108345
H68   H     H_    0.141981 0.773024 0.272800 0.072691
H69   H     H_    0.226862 0.858001 0.272774 0.071096
H70   H     H_    0.126306 0.210870 0.758607 0.108313
H71   H     H_    0.773020 0.141979 0.272801 0.072717
H72   H     H_    0.858155 0.773189 0.727265 0.077299
H73   H     H_    0.289131 0.373696 0.258604 0.108281
H74   H     H_    0.358027 0.726973 0.772797 0.072828
H75   H     H_    0.726816 0.641851 0.227261 0.077242
H76   H     H_    0.641994 0.273147 0.772769 0.071209
H77   H     H_    0.726971 0.358027 0.772796 0.072740
H78   H     H_    0.641850 0.726813 0.227262 0.077149
H79   H     H_    0.273149 0.641993 0.772768 0.071122
H80   H     H_    0.373697 0.289131 0.258604 0.108320
C89   C     C_R   0.523365 0.938735 0.917247 0.514581
C90   C     C_R   0.938051 0.477955 0.082733 0.513775
C91   C     C_R   0.476728 0.060951 0.917265 0.514593
C92   C     C_R   0.061015 0.522476 0.082748 0.511354
C93   C     C_R   0.528300 0.940594 0.082682 0.511334
C94   C     C_R   0.059326 0.527177 0.917315 0.512002
C95   C     C_R   0.471977 0.058662 0.082696 0.509977
C96   C     C_R   0.940335 0.472930 0.917299 0.511946
C97   C     C_R   0.971940 0.441083 0.417316 0.511691
C98   C     C_R   0.438463 0.978981 0.582751 0.511226
C99   C     C_R   0.027966 0.559247 0.417300 0.511638
C100  C     C_R   0.562436 0.020611 0.582736 0.513777
C101  C     C_R   0.976587 0.439335 0.582746 0.511322
C102  C     C_R   0.560265 0.025698 0.417299 0.511764
C103  C     C_R   0.022979 0.561606 0.582732 0.513750
C104  C     C_R   0.440055 0.974209 0.417314 0.511820
O53   O     O_2   0.545426 0.879038 0.905719 -0.544923
O54   O     O_2   0.877973 0.456913 0.094245 -0.543606
O55   O     O_2   0.454649 0.120678 0.905754 -0.544736
O56   O     O_2   0.121068 0.543510 0.094274 -0.545572
O57   O     O_2   0.554979 0.882735 0.094175 -0.537293
O58   O     O_2   0.117632 0.552818 0.905823 -0.538255
O59   O     O_2   0.445306 0.116496 0.094203 -0.543487
O60   O     O_2   0.882077 0.447255 0.905791 -0.538338
O61   O     O_2   0.945448 0.383155 0.405825 -0.537736
O62   O     O_2   0.377947 0.959333 0.594280 -0.544337
O63   O     O_2   0.054492 0.617126 0.405794 -0.537815
O64   O     O_2   0.622977 0.040265 0.594252 -0.542193
O65   O     O_2   0.954660 0.379599 0.594270 -0.544940
O66   O     O_2   0.619088 0.050042 0.405789 -0.537859
O67   O     O_2   0.044912 0.621368 0.594242 -0.543006
O68   O     O_2   0.381187 0.949896 0.405819 -0.537776
N1    N     N_R   0.500036 0.999857 0.906052 -0.354902
N2    N     N_R   0.999521 0.500208 0.093945 -0.355499
N3    N     N_R   0.500131 0.999609 0.093909 -0.355632
N4    N     N_R   0.999853 0.500038 0.906087 -0.355417
N5    N     N_R   0.999967 0.500142 0.406087 -0.355509
N6    N     N_R   0.500462 0.999802 0.593946 -0.355825
N7    N     N_R   0.999789 0.500483 0.593944 -0.355563
N8    N     N_R   0.500139 0.999967 0.406088 -0.355590
C105  C     C_R   0.566502 0.999399 0.870369 -0.093828
C106  C     C_R   0.001157 0.566595 0.129638 -0.093145
C107  C     C_R   0.433538 0.000432 0.870373 -0.093533
C108  C     C_R   0.997960 0.433670 0.129612 -0.096159
C109  C     C_R   0.566555 0.001031 0.129635 -0.093472
C110  C     C_R   0.000255 0.433539 0.870373 -0.093074
C111  C     C_R   0.433627 0.998175 0.129619 -0.094529
C112  C     C_R   0.999580 0.566500 0.870367 -0.093412
C113  C     C_R   0.066458 0.499052 0.370370 -0.093098
C114  C     C_R   0.502916 0.066307 0.629610 -0.096322
C115  C     C_R   0.933511 0.501105 0.370365 -0.093429
C116  C     C_R   0.497943 0.933437 0.629634 -0.093162
C117  C     C_R   0.066342 0.501439 0.629614 -0.095959
C118  C     C_R   0.499307 0.933507 0.370372 -0.093816
C119  C     C_R   0.933392 0.499451 0.629641 -0.092896
C120  C     C_R   0.500846 0.066460 0.370376 -0.093488
C121  C     C_R   0.566573 0.999501 0.847085 -0.170336
C122  C     C_R   0.001216 0.566623 0.152923 -0.167380
C123  C     C_R   0.433448 0.000411 0.847089 -0.170417
C124  C     C_R   0.998150 0.433534 0.152897 -0.192925
C125  C     C_R   0.566597 0.001070 0.152919 -0.167989
C126  C     C_R   0.000237 0.433454 0.847088 -0.171123
C127  C     C_R   0.433517 0.998339 0.152902 -0.193772
C128  C     C_R   0.999679 0.566565 0.847084 -0.171021
C129  C     C_R   0.066541 0.499088 0.347086 -0.171439
C130  C     C_R   0.502708 0.066442 0.652896 -0.192670
C131  C     C_R   0.933443 0.500992 0.347082 -0.171348
C132  C     C_R   0.497909 0.933405 0.652919 -0.166995
C133  C     C_R   0.066476 0.501262 0.652899 -0.192842
C134  C     C_R   0.499234 0.933440 0.347087 -0.171049
C135  C     C_R   0.933366 0.499377 0.652925 -0.167238
C136  C     C_R   0.500843 0.066543 0.347091 -0.171157
C137  C     C_R   0.500025 0.999893 0.882095 0.298821
C138  C     C_R   0.999519 0.500159 0.117901 0.303414
C139  C     C_R   0.500106 0.999579 0.117884 0.298793
C140  C     C_R   0.999896 0.500024 0.882112 0.293591
C141  C     C_R   0.999980 0.500100 0.382111 0.293352
C142  C     C_R   0.500467 0.999847 0.617900 0.303737
C143  C     C_R   0.999840 0.500484 0.617902 0.302736
C144  C     C_R   0.500098 0.999979 0.382114 0.293749
C145  C     C_R   0.500078 0.999799 0.952615 -0.048488
C146  C     C_R   0.999580 0.500216 0.047381 -0.048590
C147  C     C_R   0.500136 0.999677 0.047329 -0.048471
C148  C     C_R   0.999757 0.500108 0.952667 -0.048294
C149  C     C_R   0.999899 0.500240 0.452667 -0.048234
C150  C     C_R   0.500402 0.999799 0.547383 -0.048443
C151  C     C_R   0.999785 0.500422 0.547380 -0.048502
C152  C     C_R   0.500230 0.999903 0.452667 -0.048214
C153  C     C_R   0.523947 0.937630 0.940691 -0.026087
C154  C     C_R   0.936995 0.477418 0.059288 -0.026733
C155  C     C_R   0.476188 0.061998 0.940709 -0.026086
C156  C     C_R   0.062130 0.523022 0.059304 -0.025612
C157  C     C_R   0.528970 0.939622 0.059236 -0.027464
C158  C     C_R   0.060293 0.527864 0.940760 -0.027111
C159  C     C_R   0.471308 0.059700 0.059251 -0.025927
C160  C     C_R   0.939270 0.472315 0.940744 -0.027090
C161  C     C_R   0.971222 0.440135 0.440760 -0.026732
C162  C     C_R   0.437328 0.978477 0.559306 -0.025508
C163  C     C_R   0.028613 0.560294 0.440745 -0.026714
C164  C     C_R   0.563511 0.021111 0.559291 -0.026681
C165  C     C_R   0.976011 0.438234 0.559302 -0.025316
C166  C     C_R   0.561352 0.026276 0.440745 -0.026783
C167  C     C_R   0.023549 0.562646 0.559287 -0.026437
C168  C     C_R   0.439061 0.973565 0.440760 -0.026800
C169  C     C_R   0.547336 0.875599 0.952346 -0.127485
C170  C     C_R   0.874618 0.455117 0.047616 -0.127973
C171  C     C_R   0.452825 0.124002 0.952381 -0.127513
C172  C     C_R   0.124539 0.545323 0.047648 -0.128320
C173  C     C_R   0.557972 0.880041 0.047563 -0.126892
C174  C     C_R   0.120342 0.555837 0.952432 -0.126882
C175  C     C_R   0.442305 0.119316 0.047595 -0.128467
C176  C     C_R   0.879170 0.444383 0.952401 -0.126849
C177  C     C_R   0.942319 0.380527 0.452431 -0.127043
C178  C     C_R   0.374405 0.957670 0.547650 -0.128155
C179  C     C_R   0.057477 0.619953 0.452402 -0.126997
C180  C     C_R   0.626401 0.041920 0.547619 -0.127705
C181  C     C_R   0.952730 0.376183 0.547647 -0.128124
C182  C     C_R   0.622092 0.052786 0.452402 -0.127052
C183  C     C_R   0.046831 0.624663 0.547615 -0.127752
C184  C     C_R   0.378368 0.947019 0.452432 -0.127099
C185  C     C_R   0.500007 0.999974 0.835219 -0.023646
C186  C     C_R   0.999784 0.500049 0.164779 -0.018353
C187  C     C_R   0.500037 0.999796 0.164779 -0.018510
C188  C     C_R   0.999976 0.500005 0.835219 -0.023838
C189  C     C_R   0.999996 0.500022 0.335218 -0.023263
C190  C     C_R   0.500211 0.999952 0.664777 -0.017941
C191  C     C_R   0.999950 0.500218 0.664780 -0.018695
C192  C     C_R   0.500022 0.999996 0.335221 -0.024589
H81   H     H_    0.381327 0.000718 0.838408 0.188253
H82   H     H_    0.997011 0.381412 0.161570 0.172257
H83   H     H_    0.618689 0.999221 0.838400 0.188250
H84   H     H_    0.002422 0.618710 0.161615 0.185554
H85   H     H_    0.381400 0.997232 0.161579 0.172398
H86   H     H_    0.999444 0.618680 0.838399 0.188362
H87   H     H_    0.618691 0.002227 0.161608 0.185676
H88   H     H_    0.000498 0.381333 0.838407 0.188366
H89   H     H_    0.881333 0.501769 0.338397 0.187868
H90   H     H_    0.496007 0.881337 0.661611 0.185035
H91   H     H_    0.118657 0.498286 0.338404 0.187872
H92   H     H_    0.504547 0.118543 0.661569 0.172065
H93   H     H_    0.881269 0.498648 0.661617 0.186012
H94   H     H_    0.501457 0.118660 0.338409 0.188970
H95   H     H_    0.118608 0.501925 0.661571 0.172426
H96   H     H_    0.498596 0.881329 0.338402 0.188970
H97   H     H_    0.381944 0.000619 0.879339 0.154724
H98   H     H_    0.996870 0.382103 0.120638 0.148937
H99   H     H_    0.618104 0.999183 0.879331 0.154674
H100  H     H_    0.002168 0.618203 0.120685 0.153050
H101  H     H_    0.382031 0.996771 0.120664 0.150972
H102  H     H_    0.999046 0.618128 0.879314 0.156423
H103  H     H_    0.618176 0.002374 0.120692 0.154753
H104  H     H_    0.000757 0.381918 0.879323 0.156484
H105  H     H_    0.881888 0.502183 0.379310 0.156427
H106  H     H_    0.496226 0.881854 0.620677 0.152639
H107  H     H_    0.118074 0.498005 0.379319 0.156485
H108  H     H_    0.504709 0.117851 0.620634 0.148573
H109  H     H_    0.881773 0.498920 0.620689 0.153462
H110  H     H_    0.501221 0.118079 0.379328 0.156353
H111  H     H_    0.117919 0.502049 0.620641 0.149248
H112  H     H_    0.498963 0.881882 0.379320 0.156300
H113  H     H_    0.565149 0.826743 0.943574 0.194094
H114  H     H_    0.825452 0.438148 0.056375 0.194385
H115  H     H_    0.434999 0.172880 0.943623 0.194096
H116  H     H_    0.173678 0.562303 0.056420 0.194366
H117  H     H_    0.581256 0.833512 0.056321 0.195727
H118  H     H_    0.167260 0.578285 0.943673 0.195470
H119  H     H_    0.419027 0.165822 0.056366 0.194821
H120  H     H_    0.832287 0.421910 0.943631 0.195472
H121  H     H_    0.919153 0.333960 0.443673 0.195029
H122  H     H_    0.324875 0.941867 0.556422 0.194207
H123  H     H_    0.080669 0.666483 0.443632 0.195033
H124  H     H_    0.675959 0.057712 0.556378 0.194234
H125  H     H_    0.934981 0.327317 0.556419 0.194142
H126  H     H_    0.669491 0.074150 0.443632 0.194978
H127  H     H_    0.064567 0.673558 0.556374 0.194154
H128  H     H_    0.330936 0.925678 0.443673 0.194974
C193  C     C_R   0.974173 0.437586 0.511902 0.044780
C194  C     C_R   0.437426 0.974460 0.488164 0.044699
C195  C     C_R   0.025452 0.563135 0.511885 0.044712
C196  C     C_R   0.563173 0.025245 0.488148 0.044661
C197  C     C_R   0.972005 0.438485 0.488162 0.044719
C198  C     C_R   0.564079 0.022971 0.511888 0.044657
C199  C     C_R   0.027681 0.562144 0.488147 0.044680
C200  C     C_R   0.436607 0.976678 0.511904 0.044731
C201  C     C_R   0.528077 0.937926 0.011832 0.043953
C202  C     C_R   0.937428 0.473292 0.988147 0.043976
C203  C     C_R   0.472169 0.061524 0.011850 0.044179
C204  C     C_R   0.061939 0.527034 0.988163 0.044016
C205  C     C_R   0.525854 0.937004 0.988093 0.044253
C206  C     C_R   0.062807 0.524844 0.011902 0.044247
C207  C     C_R   0.474363 0.062507 0.988111 0.044253
C208  C     C_R   0.936471 0.475539 0.011886 0.044181
C209  C     C_R   0.999801 0.500382 0.523620 0.074087
C210  C     C_R   0.500277 0.999869 0.476429 0.074089
C211  C     C_R   0.999861 0.500290 0.476428 0.074047
C212  C     C_R   0.500363 0.999814 0.523623 0.074128
C213  C     C_R   0.500128 0.999710 0.023568 0.073958
C214  C     C_R   0.999707 0.500145 0.976428 0.074159
C215  C     C_R   0.500099 0.999770 0.976375 0.074376
C216  C     C_R   0.999619 0.500201 0.023621 0.074156
C217  C     C_R   0.951925 0.375638 0.524469 -0.208085
C218  C     C_R   0.377483 0.947201 0.475611 -0.207953
C219  C     C_R   0.047668 0.625131 0.524437 -0.207713
C220  C     C_R   0.623069 0.052535 0.475581 -0.207913
C221  C     C_R   0.942435 0.379648 0.475610 -0.207897
C222  C     C_R   0.626906 0.042721 0.524439 -0.207790
C223  C     C_R   0.057287 0.620929 0.475580 -0.207869
C224  C     C_R   0.373825 0.956899 0.524471 -0.208180
C225  C     C_R   0.557797 0.879138 0.024384 -0.207925
C226  C     C_R   0.878191 0.444600 0.975580 -0.207982
C227  C     C_R   0.442463 0.120281 0.024417 -0.208247
C228  C     C_R   0.121225 0.555693 0.975610 -0.207991
C229  C     C_R   0.548172 0.875063 0.975525 -0.207726
C230  C     C_R   0.125099 0.546113 0.024470 -0.208255
C231  C     C_R   0.452029 0.124481 0.975560 -0.207889
C232  C     C_R   0.874133 0.454299 0.024437 -0.207923
H129  H     H_    0.934411 0.324933 0.516981 0.144694
H130  H     H_    0.328949 0.924399 0.483112 0.144444
H131  H     H_    0.065187 0.675811 0.516934 0.144723
H132  H     H_    0.671633 0.075313 0.483072 0.144438
H133  H     H_    0.917745 0.332047 0.483110 0.144464
H134  H     H_    0.678242 0.058209 0.516936 0.144790
H135  H     H_    0.081951 0.668563 0.483069 0.144457
H136  H     H_    0.322465 0.941417 0.516982 0.144758
H137  H     H_    0.582567 0.831562 0.016882 0.146133
H138  H     H_    0.830180 0.420682 0.983069 0.146037
H139  H     H_    0.417687 0.167878 0.016928 0.145855
H140  H     H_    0.169204 0.579638 0.983111 0.146041
H141  H     H_    0.565767 0.824375 0.983015 0.145757
H142  H     H_    0.176073 0.562820 0.016981 0.145812
H143  H     H_    0.434453 0.175154 0.983063 0.145668
H144  H     H_    0.823182 0.437588 0.016934 0.145835
N9    N     N_R   0.697357 0.803737 0.707169 0.253456
O69   O     O_R   0.649318 0.752301 0.703606 -0.328402
O70   O     O_R   0.701887 0.857662 0.692999 -0.370266
N10   N     N_R   0.803532 0.302823 0.292826 0.253324
O71   O     O_R   0.752105 0.350943 0.296353 -0.321810
O72   O     O_R   0.857397 0.298274 0.307018 -0.371337
N11   N     N_R   0.224282 0.117214 0.724171 0.238222
O73   O     O_R   0.246116 0.142127 0.704948 -0.338602
O74   O     O_R   0.205546 0.048512 0.725738 -0.386470
N12   N     N_R   0.196618 0.697083 0.292822 0.252482
O75   O     O_R   0.248128 0.649032 0.296324 -0.320207
O76   O     O_R   0.142793 0.701524 0.307031 -0.372117
N13   N     N_R   0.302829 0.803525 0.292825 0.253229
O77   O     O_R   0.350944 0.752093 0.296352 -0.322129
O78   O     O_R   0.298290 0.857392 0.307017 -0.371793
N14   N     N_R   0.117212 0.224281 0.724172 0.238217
O79   O     O_R   0.142122 0.246120 0.704949 -0.338790
O80   O     O_R   0.048511 0.205540 0.725739 -0.386461
N15   N     N_R   0.697079 0.196621 0.292821 0.252384
O81   O     O_R   0.649034 0.248137 0.296324 -0.320523
O82   O     O_R   0.701513 0.142795 0.307030 -0.372575
N16   N     N_R   0.803732 0.697355 0.707169 0.253392
O83   O     O_R   0.752293 0.649319 0.703606 -0.328619
O84   O     O_R   0.857658 0.701879 0.692999 -0.370771
N17   N     N_R   0.275713 0.382783 0.224169 0.238110
O85   O     O_R   0.253873 0.357869 0.204947 -0.337939
O86   O     O_R   0.294451 0.451485 0.225735 -0.386723
N18   N     N_R   0.303391 0.802908 0.792820 0.252056
O87   O     O_R   0.251878 0.850953 0.796326 -0.321300
O88   O     O_R   0.357223 0.798470 0.807027 -0.375362
N19   N     N_R   0.802655 0.696280 0.207168 0.253662
O89   O     O_R   0.850691 0.747721 0.203608 -0.328102
O90   O     O_R   0.798133 0.642359 0.192996 -0.369881
N20   N     N_R   0.696461 0.197187 0.792824 0.252895
O91   O     O_R   0.747891 0.149072 0.796354 -0.322909
O92   O     O_R   0.642590 0.201733 0.807014 -0.374574
N21   N     N_R   0.802907 0.303395 0.792820 0.252198
O93   O     O_R   0.850955 0.251885 0.796326 -0.320727
O94   O     O_R   0.798465 0.357227 0.807027 -0.373023
N22   N     N_R   0.696273 0.802653 0.207168 0.253815
O95   O     O_R   0.747708 0.850694 0.203607 -0.327484
O96   O     O_R   0.642352 0.798126 0.192996 -0.367648
N23   N     N_R   0.197189 0.696456 0.792825 0.253036
O97   O     O_R   0.149071 0.747883 0.796355 -0.322331
O98   O     O_R   0.201739 0.642584 0.807015 -0.372248
N24   N     N_R   0.382781 0.275714 0.224169 0.238085
O99   O     O_R   0.357864 0.253874 0.204947 -0.336874
O100  O     O_R   0.451482 0.294453 0.225734 -0.386842

loop_
_geom_bond_atom_site_label_1
_geom_bond_atom_site_label_2
_geom_bond_distance
_ccdc_geom_bond_type
C108  H98   1.082864 S    
C202  C208  1.422744 A    
C103  O67   1.349736 S    
C176  H120  1.083536 S    
C60   C76   1.558747 S    
C177  H121  1.083541 S    
C43   C75   1.566282 S    
C115  H105  1.082874 S    
C150  C212  1.423348 A    
C104  O68   1.349761 S    
C179  C223  1.388572 A    
C133  C191  1.406005 A    
N9    O69   1.300546 A    
Zn12  O7    1.930757 S    
C20   C75   1.486617 S    
C90   O54   1.349734 S    
Zn2   O13   1.930756 S    
C35   C83   1.553871 S    
Zn15  O28   1.942305 S    
C146  C216  1.423324 A    
C7    C188  1.474002 S    
C197  C211  1.421623 A    
Zn1   O30   1.941568 S    
C30   H6    1.108310 S    
C198  C212  1.421634 A    
Zn7   O41   1.944846 S    
C117  C133  1.394827 A    
Zn5   O20   1.930760 S    
C51   C54   1.562094 S    
Zn3   O32   1.941565 S    
C119  C143  1.400480 A    
C12   C83   1.486549 S    
C90   N2    1.367806 A    
C27   C75   1.557024 S    
N13   O78   1.301246 A    
O34   C22   1.278504 A    
C28   C76   1.553953 S    
C225  H137  1.075738 S    
N19   O90   1.301248 A    
O52   C22   1.278840 A    
C1    C190  1.474155 S    
C101  N7    1.367855 A    
C202  C214  1.421618 A    
C102  N8    1.368238 A    
C164  C180  1.395243 A    
C184  C218  1.388600 A    
C107  H97   1.082862 S    
Zn4   O2    1.948970 S    
C184  H128  1.083537 S    
C22   C77   1.487277 S    
C42   N10   1.473222 S    
O47   C17   1.278797 A    
C134  C192  1.405944 A    
C94   O58   1.349757 S    
C193  C217  1.416383 A    
C40   H16   1.108315 S    
Zn13  O26   1.942307 S    
C156  C172  1.395229 A    
C176  C226  1.388592 A    
C123  C185  1.406051 A    
C48   N16   1.473215 S    
Zn10  O5    1.930756 S    
Zn15  O4    1.948975 S    
N20   O92   1.301248 A    
C118  C134  1.394823 A    
C91   N1    1.367802 A    
C14   C85   1.487051 S    
C43   N11   1.472520 S    
C34   C82   1.553953 S    
C172  C230  1.388584 A    
C98   N6    1.367743 A    
C57   H49   1.113655 S    
C38   C86   1.553871 S    
C106  C138  1.400433 A    
O41   C15   1.278889 A    
C198  C222  1.416404 A    
C132  H90   1.082930 S    
C62   H54   1.113246 S    
O28   C16   1.278505 A    
C45   H69   1.116233 S    
C125  C187  1.405957 A    
C206  C216  1.421626 A    
Zn8   O19   1.930756 S    
C66   H42   1.113538 S    
C231  H143  1.075735 S    
C180  C222  1.388633 A    
N11   O74   1.301305 A    
Zn12  O46   1.944849 S    
C229  H141  1.075739 S    
C54   H78   1.116246 S    
C194  C210  1.421628 A    
C148  C160  1.407928 A    
C146  C156  1.408079 A    
N15   O82   1.301247 A    
C181  C217  1.388561 A    
C25   C32   1.540164 S    
C68   C69   1.538100 S    
N2    C138  1.435083 S    
Zn7   O3    1.948975 S    
N17   O86   1.301305 A    
C91   O55   1.349736 S    
C195  C199  1.422719 A    
C179  H123  1.083540 S    
N16   O83   1.300546 A    
C61   C77   1.558751 S    
C193  C197  1.422702 A    
O11   C3    1.287033 A    
C170  H114  1.083532 S    
C206  C230  1.416380 A    
O49   C23   1.277315 A    
C19   C74   1.487282 S    
C203  C207  1.422717 A    
C152  C210  1.423390 A    
Zn13  O4    1.948964 S    
C96   N4    1.368282 A    
C55   N23   1.473218 S    
Zn14  O3    1.948968 S    
C40   C88   1.557023 S    
C51   N19   1.473211 S    
C44   C45   1.562179 S    
C126  C188  1.405912 A    
O50   C24   1.278797 A    
C32   H24   1.113497 S    
C59   H51   1.113244 S    
C33   H25   1.114009 S    
Zn2   O31   1.942307 S    
C52   N20   1.473218 S    
C50   H74   1.116237 S    
Zn6   O17   1.930757 S    
C122  C186  1.406100 A    
C55   C87   1.567751 S    
C105  C137  1.400441 A    
C165  C181  1.395233 A    
C151  C209  1.423306 A    
C107  C123  1.394835 A    
C114  C142  1.400377 A    
C161  C177  1.395291 A    
Zn3   O1    1.948973 S    
C56   N24   1.472518 S    
C127  C187  1.405876 A    
C70   H46   1.113549 S    
C111  C127  1.394790 A    
C131  H89   1.082928 S    
C174  H118  1.083537 S    
C195  C209  1.421624 A    
C113  C129  1.394775 A    
C16   C87   1.487279 S    
C195  C219  1.416394 A    
C120  H110  1.082866 S    
C150  C164  1.408137 A    
C92   C156  1.404559 A    
C99   O63   1.349759 S    
N5    C141  1.436245 S    
Zn14  O27   1.941568 S    
C100  O64   1.349744 S    
C180  H124  1.083551 S    
C116  H106  1.082876 S    
Zn11  O2    1.948973 S    
O27   C15   1.278407 A    
C89   C153  1.404585 A    
C96   O60   1.349754 S    
C67   H59   1.113658 S    
C97   O61   1.349763 S    
N4    C140  1.436185 S    
C128  C188  1.405909 A    
O8    C2    1.286997 A    
C54   C86   1.567745 S    
C5    C186  1.474095 S    
C98   C162  1.404594 A    
C64   H56   1.113660 S    
Zn7   O36   1.942305 S    
C50   N18   1.473209 S    
C58   H34   1.113525 S    
O16   C6    1.286996 A    
O14   C6    1.287015 A    
C204  C214  1.421613 A    
C106  C122  1.394822 A    
O40   C10   1.277309 A    
C222  H134  1.075751 S    
C199  C223  1.416356 A    
C101  O65   1.349744 S    
O45   C19   1.278849 A    
O17   C7    1.287014 A    
C51   H75   1.116243 S    
C131  C189  1.405883 A    
C102  C166  1.404657 A    
C200  C212  1.421639 A    
O9    C3    1.287022 A    
C30   C78   1.557023 S    
C72   H64   1.113243 S    
C194  C200  1.422760 A    
Zn8   O42   1.945590 S    
Zn16  O11   1.930756 S    
C149  C211  1.423342 A    
C182  C220  1.388611 A    
C166  C182  1.395311 A    
C44   C76   1.567787 S    
C157  C173  1.395298 A    
N14   O79   1.300242 A    
C58   C74   1.558751 S    
C25   H17   1.113496 S    
Zn4   O29   1.942304 S    
N21   O94   1.301248 A    
C149  C161  1.407917 A    
N10   O71   1.300546 A    
C207  C231  1.416383 A    
C47   H71   1.116235 S    
C205  C229  1.416382 A    
C175  C227  1.388562 A    
C219  H131  1.075736 S    
O5    C1    1.286944 A    
C202  C226  1.416351 A    
O31   C19   1.278506 A    
C47   C79   1.567788 S    
C60   H52   1.113658 S    
C104  N8    1.368233 A    
C201  C225  1.416356 A    
C38   H14   1.108363 S    
N18   O88   1.301248 A    
N13   O77   1.300547 A    
C61   H37   1.113525 S    
C34   C39   1.540517 S    
Zn13  O12   1.930760 S    
C194  C218  1.416357 A    
C57   C64   1.537882 S    
C58   C63   1.538096 S    
C160  C176  1.395298 A    
C65   H57   1.113245 S    
C113  H107  1.082873 S    
C26   C74   1.554065 S    
C114  H108  1.082870 S    
C50   C55   1.562175 S    
C63   C79   1.558743 S    
C111  H101  1.082871 S    
C155  C171  1.395230 A    
C105  H99   1.082862 S    
C41   N9    1.473208 S    
N23   O97   1.300548 A    
C154  C170  1.395236 A    
C109  H103  1.082869 S    
C33   C81   1.557028 S    
C217  H129  1.075734 S    
C145  C153  1.408084 A    
C36   H28   1.113479 S    
C91   C155  1.404570 A    
Zn9   O47   1.945590 S    
C47   N15   1.473213 S    
C42   C47   1.562180 S    
Zn10  O48   1.944845 S    
Zn11  O45   1.945587 S    
C64   C80   1.558769 S    
C49   N17   1.472521 S    
C64   H40   1.113546 S    
C51   C83   1.567750 S    
C158  C174  1.395287 A    
C45   C77   1.567753 S    
C203  C227  1.416339 A    
Zn1   O1    1.948958 S    
C204  C228  1.416353 A    
O29   C17   1.278431 A    
C49   H73   1.116353 S    
C68   H60   1.113647 S    
C8    C187  1.474095 S    
N24   O99   1.300248 A    
Zn1   O39   1.945590 S    
C171  C231  1.388587 A    
Zn2   O40   1.944845 S    
C127  H85   1.082902 S    
Zn3   O37   1.945587 S    
C169  C229  1.388608 A    
C56   H80   1.116353 S    
Zn9   O22   1.941568 S    
C108  C124  1.394858 A    
C196  C220  1.416360 A    
C39   H31   1.113481 S    
N12   O75   1.300548 A    
C121  H83   1.082926 S    
C37   H29   1.113527 S    
C232  H144  1.075739 S    
Zn9   O2    1.948958 S    
C123  H81   1.082924 S    
C52   C53   1.562175 S    
C136  C192  1.405945 A    
C117  C143  1.400491 A    
C41   H65   1.116245 S    
N15   O81   1.300548 A    
C67   H43   1.113547 S    
C104  C168  1.404644 A    
C53   N21   1.473215 S    
Zn16  O25   1.941564 S    
O6    C2    1.286984 A    
C71   H63   1.113651 S    
O18   C8    1.286936 A    
N22   O95   1.300546 A    
C52   H76   1.116233 S    
C32   C80   1.553869 S    
C43   C46   1.561890 S    
C69   H61   1.113661 S    
C182  H126  1.083538 S    
C149  C163  1.407914 A    
O10   C4    1.287130 A    
C32   H8    1.108362 S    
C4    C191  1.474041 S    
C39   H15   1.108341 S    
C175  H119  1.083539 S    
C110  H104  1.082866 S    
C50   C82   1.567785 S    
C174  C228  1.388567 A    
C173  H117  1.083535 S    
C46   N14   1.472520 S    
C89   O53   1.349736 S    
C31   H7    1.108377 S    
C111  C139  1.400958 A    
C99   C163  1.404603 A    
C108  C138  1.400449 A    
Zn15  O49   1.944846 S    
C23   C78   1.486618 S    
C17   C76   1.487056 S    
C28   H20   1.113534 S    
C21   C80   1.486543 S    
Zn12  O21   1.942304 S    
C72   H48   1.113041 S    
C36   C37   1.540518 S    
O35   C23   1.279938 A    
C136  H94   1.082929 S    
N6    C142  1.434963 S    
C220  H132  1.075774 S    
C2    C189  1.473942 S    
C66   C82   1.558744 S    
Zn12  O1    1.948970 S    
C152  C168  1.407958 A    
C94   C158  1.404608 A    
C15   C86   1.486545 S    
C116  C142  1.400364 A    
C52   C84   1.567746 S    
C13   C88   1.486618 S    
C183  C219  1.388588 A    
C98   O62   1.349753 S    
C145  C155  1.408091 A    
C33   C40   1.530743 S    
C56   C88   1.566282 S    
C128  H86   1.082928 S    
C48   C80   1.567743 S    
N17   O85   1.300243 A    
C49   C81   1.566283 S    
C207  C215  1.421614 A    
O12   C4    1.286908 A    
N16   O84   1.301249 A    
C125  H87   1.082931 S    
O48   C18   1.278888 A    
C107  C137  1.400459 A    
O38   C12   1.278892 A    
N9    O70   1.301247 A    
C201  C205  1.422742 A    
C58   H50   1.113650 S    
C171  H115  1.083535 S    
C102  O66   1.349763 S    
C109  C125  1.394816 A    
C46   H70   1.116355 S    
C120  C144  1.400923 A    
C129  H91   1.082931 S    
C61   H53   1.113652 S    
C26   H2    1.108342 S    
C93   N3    1.368280 A    
C95   C159  1.404580 A    
Zn10  O23   1.942307 S    
O23   C11   1.278433 A    
C31   C79   1.553953 S    
C24   C79   1.487053 S    
C59   H35   1.113043 S    
C230  H142  1.075733 S    
C29   C77   1.554067 S    
C63   H39   1.113536 S    
O19   C7    1.286999 A    
C30   H22   1.114006 S    
C59   C62   1.548573 S    
C130  H92   1.082903 S    
C95   O59   1.349760 S    
C60   H36   1.113536 S    
C147  C213  1.423360 A    
C126  H88   1.082930 S    
C36   C84   1.554064 S    
C145  C215  1.423318 A    
C119  C135  1.394792 A    
C135  H93   1.082929 S    
Zn7   O18   1.930753 S    
Zn5   O34   1.942307 S    
O36   C24   1.278439 A    
Zn16  O50   1.945590 S    
C122  H84   1.082928 S    
C93   C157  1.404649 A    
C57   C73   1.558767 S    
N20   O91   1.300547 A    
C68   H44   1.113527 S    
C44   N12   1.473213 S    
C114  C130  1.394901 A    
O43   C13   1.277311 A    
N10   O72   1.301247 A    
C200  C224  1.416395 A    
C110  C140  1.400969 A    
C148  C214  1.423360 A    
C115  C131  1.394746 A    
Zn5   O3    1.948964 S    
C31   H23   1.113531 S    
C218  H130  1.075768 S    
C178  H122  1.083552 S    
Zn6   O4    1.948968 S    
C97   C161  1.404580 A    
C18   C73   1.486546 S    
C33   H9    1.108308 S    
C69   C85   1.558746 S    
C152  C166  1.407957 A    
C11   C82   1.487055 S    
C3    C192  1.474080 S    
C119  H109  1.082865 S    
C121  C185  1.406057 A    
C115  C141  1.401000 A    
C147  C159  1.407912 A    
C172  H116  1.083535 S    
C117  H111  1.082865 S    
Zn16  O3    1.948967 S    
C130  C190  1.406063 A    
C118  H112  1.082866 S    
C112  C128  1.394775 A    
C112  H102  1.082870 S    
Zn14  O9    1.930757 S    
C71   H47   1.113525 S    
C95   N3    1.368291 A    
Zn4   O15   1.930757 S    
O15   C5    1.286920 A    
C69   H45   1.113535 S    
C100  C164  1.404632 A    
C27   H19   1.114009 S    
C135  C191  1.406079 A    
Zn14  O52   1.945586 S    
C89   N1    1.367812 A    
C45   N13   1.473223 S    
Zn8   O33   1.941564 S    
C205  C215  1.421629 A    
C72   C88   1.555457 S    
C196  C198  1.422771 A    
C36   H12   1.108341 S    
O32   C20   1.279938 A    
N23   O98   1.301248 A    
C151  C167  1.408081 A    
C223  H135  1.075737 S    
C90   C154  1.404602 A    
C201  C213  1.421609 A    
O7    C1    1.287162 A    
C103  C167  1.404585 A    
O26   C14   1.278432 A    
C94   N4    1.368275 A    
C199  C211  1.421628 A    
N14   O80   1.301307 A    
C112  C140  1.400958 A    
C27   C30   1.530741 S    
C42   C74   1.567754 S    
C100  N6    1.367735 A    
C28   H4    1.108374 S    
C46   C78   1.566283 S    
N21   O93   1.300548 A    
Zn8   O4    1.948967 S    
C93   O57   1.349750 S    
C6    C185  1.474002 S    
O37   C11   1.278803 A    
C49   C56   1.561892 S    
C103  N7    1.367844 A    
C65   H41   1.113037 S    
C43   H67   1.116357 S    
O39   C9    1.278849 A    
C38   H30   1.113496 S    
O13   C5    1.287144 A    
Zn10  O1    1.948972 S    
C37   C85   1.553957 S    
N19   O89   1.300545 A    
C133  H95   1.082900 S    
C39   C87   1.554068 S    
O51   C21   1.278890 A    
C9    C84   1.487279 S    
C97   N5    1.368317 A    
C92   O56   1.349740 S    
C92   N2    1.367814 A    
C124  H82   1.082897 S    
C35   H27   1.113499 S    
C193  C209  1.421633 A    
O20   C8    1.287126 A    
C41   C48   1.562090 S    
C170  C232  1.388610 A    
O44   C14   1.278795 A    
C67   C83   1.558767 S    
C68   C84   1.558756 S    
C146  C154  1.408094 A    
C183  H127  1.083539 S    
C197  C221  1.416357 A    
O24   C12   1.278405 A    
C101  C165  1.404541 A    
Zn6   O35   1.941568 S    
N8    C144  1.436101 S    
C120  C136  1.394852 A    
C159  C175  1.395293 A    
C65   C72   1.548571 S    
C204  C206  1.422725 A    
O25   C13   1.279933 A    
C66   C71   1.538101 S    
C167  C183  1.395240 A    
C41   C73   1.567745 S    
C116  C132  1.394864 A    
C70   C86   1.558770 S    
Zn11  O24   1.941565 S    
C54   N22   1.473219 S    
C25   C73   1.553875 S    
C129  C189  1.405885 A    
C67   C70   1.537878 S    
N1    C137  1.435077 S    
C26   H18   1.113478 S    
C150  C162  1.408119 A    
C132  C190  1.406132 A    
C62   C78   1.555458 S    
Zn5   O43   1.944849 S    
C53   H77   1.116237 S    
C48   H72   1.116247 S    
Zn6   O44   1.945586 S    
C178  C224  1.388601 A    
C134  H96   1.082932 S    
N22   O96   1.301248 A    
C169  H113  1.083537 S    
N11   O73   1.300244 A    
C40   H32   1.114005 S    
C63   H55   1.113660 S    
Zn15  O10   1.930753 S    
C147  C157  1.407932 A    
N7    C143  1.435167 S    
C221  H133  1.075736 S    
C224  H136  1.075749 S    
Zn1   O16   1.930760 S    
Zn3   O14   1.930753 S    
N24   O100  1.301306 A    
C34   H26   1.113533 S    
C163  C179  1.395301 A    
O42   C16   1.278848 A    
N3    C139  1.436191 S    
C228  H140  1.075736 S    
C106  H100  1.082862 S    
C55   H79   1.116232 S    
C28   C29   1.540516 S    
C62   H38   1.113041 S    
C168  C184  1.395304 A    
C37   H13   1.108376 S    
C227  H139  1.075737 S    
C162  C178  1.395234 A    
N12   O76   1.301244 A    
C66   H58   1.113653 S    
C177  C221  1.388554 A    
C203  C213  1.421620 A    
C113  C141  1.401009 A    
C151  C165  1.408067 A    
C181  H125  1.083537 S    
C99   N5    1.368322 A    
O46   C20   1.277315 A    
C29   H5    1.108339 S    
C153  C169  1.395245 A    
C110  C126  1.394804 A    
C109  C139  1.400958 A    
Zn13  O51   1.944849 S    
O21   C9    1.278498 A    
C148  C158  1.407927 A    
Zn4   O38   1.944849 S    
C196  C210  1.421635 A    
C35   H11   1.108359 S    
O33   C21   1.278398 A    
Zn2   O2    1.948972 S    
C34   H10   1.108376 S    
Zn9   O8    1.930760 S    
O22   C10   1.279936 A    
Zn11  O6    1.930753 S    
C71   C87   1.558753 S    
C10   C81   1.486617 S    
C65   C81   1.555454 S    
C60   C61   1.538097 S    
C29   H21   1.113482 S    
C27   H3    1.108311 S    
C53   C85   1.567779 S    
C26   C31   1.540517 S    
C118  C144  1.400912 A    
N18   O87   1.300549 A    
C96   C160  1.404621 A    
C35   C38   1.540162 S    
C57   H33   1.113548 S    
C44   H68   1.116237 S    
C208  C232  1.416391 A    
C124  C186  1.406026 A    
C105  C121  1.394817 A    
C226  H138  1.075738 S    
C25   H1    1.108360 S    
C173  C225  1.388603 A    
C59   C75   1.555456 S    
O30   C18   1.278403 A    
C208  C216  1.421619 A    
C42   H66   1.116234 S    
C70   H62   1.113657 S    
