data_mof_unit_15620.cif
_audit_creation_date              2012-12-11T14:17:45-0500
_audit_creation_method            fapswitch 2.2
_symmetry_space_group_name_H-M    P1
_symmetry_Int_Tables_number       1
_space_group_crystal_system       triclinic
_cell_length_a                    11.147577
_cell_length_b                    11.13276
_cell_length_c                    18.768907
_cell_angle_alpha                 89.948646
_cell_angle_beta                  90.056924
_cell_angle_gamma                 119.97695
_cell_volume                      2017.68565543

loop_
_atom_site_label
_atom_site_type_symbol
_atom_type_description
_atom_site_fract_x
_atom_site_fract_y
_atom_site_fract_z
_atom_type_partial_charge
C1    C     C_R   0.520603 0.453244 0.145870 0.579692
C2    C     C_R   0.547164 0.068192 0.145692 0.582864
C3    C     C_R   0.932787 0.479419 0.146073 0.584829
C4    C     C_R   0.458475 0.521890 0.852820 0.555240
C5    C     C_R   0.065319 0.542426 0.853271 0.613831
C6    C     C_R   0.477924 0.936461 0.852776 0.600893
C7    C     C_R   0.395288 0.006788 0.462708 -0.126149
C8    C     C_R   0.993438 0.388863 0.462903 -0.140106
C9    C     C_R   0.611111 0.604852 0.462774 -0.149939
C10   C     C_R   0.007224 0.395829 0.537097 -0.141902
C11   C     C_R   0.388317 0.992599 0.536892 -0.138062
C12   C     C_R   0.604178 0.611669 0.537007 -0.147944
C13   C     C_R   0.746593 0.065347 0.566041 0.266721
C14   C     C_R   0.933952 0.681522 0.566459 0.265636
C15   C     C_R   0.319126 0.252737 0.566692 0.266161
C16   C     C_R   0.066644 0.747676 0.432840 0.266938
C17   C     C_R   0.679932 0.931225 0.432833 0.261848
C18   C     C_R   0.252952 0.319552 0.432989 0.265239
C19   C     C_R   0.839482 0.037438 0.530716 -0.199919
C20   C     C_R   0.962819 0.803099 0.531398 -0.186333
C21   C     C_R   0.197311 0.160537 0.531882 -0.184484
C22   C     C_R   0.036203 0.839727 0.467216 -0.176390
C23   C     C_R   0.802697 0.964084 0.466486 -0.127490
C24   C     C_R   0.160798 0.197462 0.467614 -0.180386
C25   C     C_R   0.518489 0.458408 0.353509 0.586985
C26   C     C_R   0.541795 0.060375 0.353587 0.549815
C27   C     C_R   0.939996 0.481592 0.353520 0.585924
C28   C     C_R   0.458240 0.518488 0.646414 0.598605
C29   C     C_R   0.060146 0.541721 0.646430 0.604063
C30   C     C_R   0.481397 0.939647 0.646366 0.599255
C31   C     C_R   0.490576 0.998140 0.923099 0.037184
C32   C     C_R   0.007420 0.495891 0.924285 0.000294
C33   C     C_R   0.508052 0.508397 0.922971 -0.047259
C34   C     C_R   0.972765 0.495113 0.071304 0.036881
C35   C     C_R   0.523624 0.029806 0.070492 0.036041
C36   C     C_R   0.504574 0.476748 0.070735 0.024306
C37   C     C_R   0.372381 0.958007 0.967505 -0.016097
C38   C     C_R   0.048401 0.418277 0.968898 -0.053223
C39   C     C_R   0.584805 0.627347 0.967504 -0.036879
C40   C     C_R   0.044377 0.431610 0.043449 -0.020409
C41   C     C_R   0.388933 0.959222 0.042078 -0.026658
C42   C     C_R   0.569583 0.611275 0.042088 -0.019676
C43   C     C_R   0.640124 0.093547 0.024617 0.225090
C44   C     C_R   0.909280 0.547790 0.025141 0.224204
C45   C     C_R   0.450216 0.359650 0.025176 0.274584
C46   C     C_R   0.927171 0.547664 0.951565 0.203239
C47   C     C_R   0.622546 0.076925 0.950792 0.217892
C48   C     C_R   0.453674 0.375544 0.951528 0.212156
C49   C     C_R   0.240329 0.925829 0.940916 -0.047617
C50   C     C_R   0.081115 0.318459 0.942579 -0.076573
C51   C     C_R   0.684861 0.759572 0.940929 -0.070432
C52   C     C_R   0.100764 0.369989 0.088195 -0.079238
C53   C     C_R   0.270499 0.900870 0.086347 -0.086488
C54   C     C_R   0.630164 0.729976 0.086275 -0.079909
C55   C     C_R   0.127594 0.883352 0.986391 -0.137504
C56   C     C_R   0.120298 0.245772 0.988436 -0.134154
C57   C     C_R   0.755219 0.872640 0.986294 -0.137014
C58   C     C_R   0.134721 0.274921 0.060855 -0.125491
C59   C     C_R   0.141615 0.866514 0.058677 -0.131444
C60   C     C_R   0.724665 0.858874 0.058555 -0.128618
C61   C     C_R   0.501330 0.000815 0.574588 0.054230
C62   C     C_R   0.998502 0.500397 0.574779 0.051064
C63   C     C_R   0.499831 0.498306 0.574789 0.053006
C64   C     C_R   0.002177 0.502089 0.425063 0.046724
C65   C     C_R   0.499397 0.997583 0.424940 -0.000517
C66   C     C_R   0.498137 0.500193 0.425030 0.035216
C67   C     C_R   0.615956 0.018869 0.535326 0.041350
C68   C     C_R   0.979641 0.596811 0.535560 0.025013
C69   C     C_R   0.403812 0.383003 0.535632 0.028578
C70   C     C_R   0.021464 0.617592 0.464098 0.023435
C71   C     C_R   0.594282 0.976293 0.463950 -0.026634
C72   C     C_R   0.382964 0.404058 0.464140 0.024676
Cr1   Cr    Cr6+3 0.768550 0.541320 0.250660 1.069367
Cr2   Cr    Cr6+3 0.458680 0.227230 0.250660 1.046894
Cr3   Cr    Cr6+3 0.772770 0.231450 0.250660 1.056805
Cr4   Cr    Cr6+3 0.541320 0.768550 0.749340 1.041381
Cr5   Cr    Cr6+3 0.227230 0.458680 0.749340 1.031474
Cr6   Cr    Cr6+3 0.231450 0.772770 0.749340 1.037807
H1    H     H_    0.223762 0.945077 0.886508 0.175372
H2    H     H_    0.063779 0.283452 0.888103 0.175475
H3    H     H_    0.721070 0.775918 0.886633 0.174476
H4    H     H_    0.112288 0.388957 0.144971 0.128061
H5    H     H_    0.277388 0.887592 0.143011 0.128901
H6    H     H_    0.610175 0.723258 0.142937 0.130297
H7    H     H_    0.029390 0.864574 0.965273 0.134211
H8    H     H_    0.138494 0.165823 0.967468 0.139644
H9    H     H_    0.834699 0.970842 0.965129 0.134437
H10   H     H_    0.167400 0.220203 0.096409 0.158013
H11   H     H_    0.053778 0.831763 0.093965 0.159337
H12   H     H_    0.777979 0.946888 0.093798 0.159888
H13   H     H_    0.321003 0.025638 0.435368 0.149040
H14   H     H_    0.975391 0.296001 0.435569 0.149238
H15   H     H_    0.703407 0.680167 0.435216 0.180390
H16   H     H_    0.025219 0.321027 0.564551 0.145835
H17   H     H_    0.295868 0.975097 0.564321 0.143568
H18   H     H_    0.678722 0.704563 0.564389 0.145036
H19   H     H_    0.937486 0.069597 0.555093 0.093352
H20   H     H_    0.931347 0.869465 0.555913 0.092811
H21   H     H_    0.130681 0.063048 0.556689 0.096148
H22   H     H_    0.066648 0.936932 0.442178 0.096402
H23   H     H_    0.869044 0.933937 0.440729 0.134074
H24   H     H_    0.063504 0.131167 0.442717 0.094874
O1    O     O_R   0.910960 0.572410 0.171010 -0.473301
O2    O     O_R   0.427590 0.338550 0.171010 -0.475762
O3    O     O_R   0.661450 0.089040 0.171010 -0.472612
O4    O     O_R   0.572410 0.910960 0.828990 -0.458788
O5    O     O_R   0.338550 0.427590 0.828990 -0.495219
O6    O     O_R   0.089040 0.661450 0.828990 -0.458668
O7    O     O_R   0.639750 0.528530 0.175600 -0.476621
O8    O     O_R   0.471470 0.111220 0.175600 -0.481102
O9    O     O_R   0.888780 0.360250 0.175600 -0.479939
O10   O     O_R   0.528530 0.639750 0.824400 -0.522053
O11   O     O_R   0.111220 0.471470 0.824400 -0.532734
O12   O     O_R   0.360250 0.888780 0.824400 -0.541755
O13   O     O_R   0.909330 0.572400 0.331540 -0.479003
O14   O     O_R   0.427600 0.336930 0.331540 -0.483101
O15   O     O_R   0.663070 0.090670 0.331540 -0.482614
O16   O     O_R   0.572400 0.909330 0.668460 -0.476083
O17   O     O_R   0.336930 0.427600 0.668460 -0.478923
O18   O     O_R   0.090670 0.663070 0.668460 -0.476237
O19   O     O_R   0.638240 0.528520 0.324410 -0.512574
O20   O     O_R   0.471480 0.109720 0.324410 -0.520911
O21   O     O_R   0.890280 0.361760 0.324410 -0.526397
O22   O     O_R   0.528520 0.638240 0.675590 -0.521190
O23   O     O_R   0.109720 0.471480 0.675590 -0.520107
O24   O     O_R   0.361760 0.890280 0.675590 -0.523244
O25   O     O_3   0.666667 0.333333 0.250630 -0.278371
O26   O     O_3   0.333333 0.666667 0.749370 -0.288396
O27   O     O_3   0.770724 0.171836 0.053117 -0.686627
H25   H     H_    0.836836 0.160620 0.022828 0.326149
O28   O     O_3   0.829318 0.598684 0.053067 -0.685572
H26   H     H_    0.840536 0.676177 0.022772 0.328578
O29   O     O_3   0.398432 0.229169 0.053937 -0.667974
H27   H     H_    0.326676 0.161391 0.021694 0.354690
O30   O     O_3   0.864056 0.594260 0.904744 -0.700897
H28   H     H_    0.768861 0.559471 0.922109 0.330882
O31   O     O_3   0.732512 0.138799 0.904169 -0.699612
H29   H     H_    0.795845 0.232866 0.922313 0.332110
O32   O     O_3   0.405725 0.259204 0.908841 -0.724310
H30   H     H_    0.450191 0.287292 0.861380 0.347904
O33   O     O_3   0.781306 0.139401 0.629163 -0.660481
H31   H     H_    0.871665 0.153506 0.646225 0.317108
O34   O     O_3   0.860248 0.642252 0.629652 -0.660847
H32   H     H_    0.846225 0.718629 0.646701 0.316479
O35   O     O_3   0.358435 0.218123 0.629908 -0.668262
H33   H     H_    0.282072 0.127888 0.647093 0.314595
O36   O     O_3   0.140565 0.782053 0.369713 -0.687642
H34   H     H_    0.154395 0.872286 0.352397 0.314027
O37   O     O_3   0.647169 0.855620 0.370380 -0.696326
H35   H     H_    0.547108 0.816716 0.360561 0.331420
O38   O     O_3   0.218602 0.359267 0.369814 -0.685805
H36   H     H_    0.128419 0.283014 0.352556 0.314746

loop_
_geom_bond_atom_site_label_1
_geom_bond_atom_site_label_2
_ccdc_geom_bond_type
C2    C35   S    
C39   C51   A    
C30   O24   A    
C29   O23   A    
C19   C23   A    
O36   H34   S    
Cr3   O15   S    
C26   O15   A    
Cr6   O26   S    
C54   H6    S    
O35   H33   S    
C53   C59   A    
O30   H28   S    
C54   C60   A    
C44   O28   S    
C7    C11   A    
C17   C23   A    
C16   O36   S    
Cr3   O21   S    
C55   C59   A    
C21   H21   S    
C10   H16   S    
C3    O1    A    
O34   H32   S    
Cr6   O6    S    
C59   H11   S    
C9    C66   A    
C6    O12   A    
C1    O7    A    
C46   O30   S    
C29   C62   S    
C36   C42   A    
C66   C72   A    
C63   C69   A    
C65   C71   A    
Cr1   O1    S    
C16   C22   A    
O38   H36   S    
C51   C57   A    
C64   C70   A    
C35   C43   A    
C51   H3    S    
C24   H24   S    
C5    C32   S    
C6    C31   S    
C4    O10   A    
Cr2   O14   S    
C31   C47   A    
C18   C72   A    
Cr3   O9    S    
C10   C62   A    
Cr5   O11   S    
C29   O18   A    
C44   C46   A    
C39   C42   A    
C12   H18   S    
C31   C37   A    
C19   H19   S    
C15   C69   A    
C4    O5    A    
C22   H22   S    
C13   C19   A    
Cr4   O22   S    
C14   C20   A    
Cr5   O5    S    
C16   C70   A    
C25   O14   A    
C3    O9    A    
C15   O35   S    
C12   C63   A    
C27   O21   A    
C57   C60   A    
C30   O16   A    
C3    C34   S    
C11   C61   A    
Cr1   O25   S    
Cr4   O16   S    
C57   H9    S    
C50   H2    S    
C55   H7    S    
C69   C72   A    
Cr6   O18   S    
C7    C65   A    
C37   C49   A    
C61   C67   A    
C56   H8    S    
Cr2   O25   S    
C43   O27   S    
Cr4   O10   S    
C7    H13   S    
C47   O31   S    
C6    O4    A    
C34   C44   A    
C36   C45   A    
C33   C39   A    
C52   H4    S    
C1    O2    A    
C41   C53   A    
Cr5   O26   S    
C52   C58   A    
C8    C64   A    
C8    H14   S    
C68   C70   A    
Cr2   O20   S    
C20   C22   A    
C17   C71   A    
C32   C38   A    
O29   H27   S    
Cr4   O26   S    
C18   C24   A    
C21   C24   A    
O28   H26   S    
Cr6   O24   S    
C9    H15   S    
Cr5   O23   S    
Cr2   O2    S    
O27   H25   S    
C13   C67   A    
C45   C48   A    
C11   H17   S    
C4    C33   S    
C14   O34   S    
Cr6   O12   S    
Cr4   O4    S    
C48   O32   S    
C5    O11   A    
C26   C65   S    
C32   C46   A    
C13   O33   S    
C17   O37   S    
C25   C66   S    
Cr5   O17   S    
C28   O17   A    
C58   H10   S    
Cr2   O8    S    
O32   H30   S    
C28   O22   A    
Cr1   O7    S    
C38   C50   A    
C60   H12   S    
C45   O29   S    
O31   H29   S    
C2    O3    A    
Cr1   O19   S    
Cr1   O13   S    
C62   C68   A    
C53   H5    S    
C40   C52   A    
O37   H35   S    
C42   C54   A    
C38   C40   A    
Cr3   O25   S    
C23   H23   S    
C43   C47   A    
C56   C58   A    
C67   C71   A    
C49   C55   A    
C37   C41   A    
C35   C41   A    
C9    C12   A    
C50   C56   A    
C27   C64   S    
C28   C63   S    
C49   H1    S    
C15   C21   A    
C20   H20   S    
C8    C10   A    
C30   C61   S    
C33   C48   A    
C14   C68   A    
C34   C40   A    
C26   O20   A    
Cr3   O3    S    
O33   H31   S    
C25   O19   A    
C18   O38   S    
C1    C36   S    
C27   O13   A    
C5    O6    A    
C2    O8    A    
