data_mof_unit_52080.cif
_audit_creation_date              2012-12-11T17:25:03-0500
_audit_creation_method            fapswitch 2.2
_symmetry_space_group_name_H-M    P1
_symmetry_Int_Tables_number       1
_space_group_crystal_system       triclinic
_cell_length_a                    6.954801
_cell_length_b                    20.549305
_cell_length_c                    24.483213
_cell_angle_alpha                 90.064126
_cell_angle_beta                  90.519454
_cell_angle_gamma                 89.423424
_cell_volume                      3498.72806245

loop_
_atom_site_label
_atom_site_type_symbol
_atom_type_description
_atom_site_fract_x
_atom_site_fract_y
_atom_site_fract_z
_atom_type_partial_charge
O1    O     O_R   0.507280 0.423750 0.460310 -0.536697
O2    O     O_R   0.171030 0.555650 0.437630 -0.535216
O3    O     O_R   0.004080 0.576250 0.539690 -0.536911
C1    C     C_R   0.338910 0.575655 0.421791 0.718337
O4    O     O_R   0.177330 0.422980 0.453960 -0.538120
O5    O     O_R   0.010420 0.442640 0.556140 -0.535107
C2    C     C_R   0.346207 0.399100 0.443295 0.694319
O6    O     O_R   0.500930 0.557360 0.443860 -0.535413
O7    O     O_3   0.340310 0.506600 0.533500 -0.365452
V1    V     V_3+5 0.064140 0.498780 0.493780 1.434300
O8    O     O_R   0.680890 0.444350 0.562370 -0.536619
C3    C     C_R   0.850691 0.424420 0.578149 0.727193
O9    O     O_R   0.674590 0.577020 0.546040 -0.537309
C4    C     C_R   0.842642 0.600990 0.556592 0.694782
V2    V     V_3+5 0.564550 0.501220 0.506220 1.434884
O10   O     O_3   0.838250 0.493400 0.466500 -0.366536
C5    C     C_R   0.976378 0.838308 0.911081 -0.042706
C6    C     C_R   0.847295 0.661521 0.588915 -0.043613
C7    C     C_R   0.043452 0.722965 0.906139 -0.099860
C8    C     C_R   0.032699 0.780328 0.936148 -0.179220
C9    C     C_R   0.930999 0.838695 0.855048 -0.190392
C10   C     C_R   0.943796 0.780839 0.822872 0.048500
C11   C     C_R   0.001255 0.722237 0.849729 0.063853
C12   C     C_R   0.904055 0.779390 0.765111 0.058632
C13   C     C_R   0.922455 0.719544 0.735219 0.003833
C14   C     C_R   0.979378 0.663135 0.764001 -0.202436
C15   C     C_R   0.017665 0.664036 0.819814 0.254756
C16   C     C_R   0.846824 0.835857 0.736162 -0.168206
C17   C     C_R   0.808491 0.834234 0.680448 -0.202943
C18   C     C_R   0.824493 0.776466 0.650924 0.141814
C19   C     C_R   0.882384 0.718005 0.677454 0.105508
C20   C     C_R   0.780173 0.776887 0.594855 -0.162562
C21   C     C_R   0.789458 0.719806 0.564343 -0.174601
C22   C     C_R   0.894741 0.660512 0.644875 -0.206082
H1    H     H_    0.935704 0.613905 0.661594 0.102955
H2    H     H_    0.749996 0.720957 0.521435 0.100692
H3    H     H_    0.764279 0.878939 0.660235 0.121615
H4    H     H_    0.087920 0.679419 0.927714 0.174447
H5    H     H_    0.070064 0.779567 0.979215 0.113442
H6    H     H_    0.891118 0.885180 0.837911 0.090440
H7    H     H_    0.996285 0.616703 0.744228 0.161196
H8    H     H_    0.829169 0.882640 0.755326 0.119965
H9    H     H_    0.735142 0.821484 0.574650 0.115391
H10   H     H_    0.618846 0.205458 0.792545 0.112574
C23   C     C_R   0.729980 0.269344 0.730971 -0.144352
H11   H     H_    0.588060 0.283767 0.716633 0.113012
C24   C     C_R   0.894442 0.295067 0.706489 0.136648
C25   C     C_R   0.076679 0.275454 0.725873 -0.142905
H12   H     H_    0.205377 0.294669 0.707535 0.113976
C26   C     C_R   0.094242 0.230787 0.769113 -0.146843
H13   H     H_    0.236164 0.216359 0.783447 0.112003
C27   C     C_R   0.929781 0.205050 0.793586 0.135155
C28   C     C_R   0.747543 0.224678 0.774211 -0.148719
C29   C     C_1   0.876648 0.341099 0.661470 -0.047397
C30   C     C_1   0.947575 0.158958 0.838562 -0.054297
C31   C     C_1   0.960769 0.120714 0.876316 -0.188676
C32   C     C_1   0.863457 0.379284 0.623675 -0.182146
C33   C     C_R   0.595562 0.777705 0.240774 -0.220260
H14   H     H_    0.736660 0.797277 0.232811 0.124772
C34   C     C_R   0.438327 0.796119 0.207596 0.076639
C35   C     C_R   0.257446 0.769392 0.218278 -0.155975
H15   H     H_    0.134175 0.782727 0.193181 0.130831
C36   C     C_R   0.233968 0.724766 0.261117 -0.232304
H16   H     H_    0.093360 0.704342 0.268009 0.183949
C37   C     C_R   0.390378 0.706430 0.294567 0.023337
C38   C     C_R   0.572411 0.733996 0.284596 0.430157
C39   C     C_1   0.461608 0.841767 0.162392 -0.030353
C40   C     C_1   0.364382 0.659587 0.338806 -0.008916
C41   C     C_1   0.348481 0.621081 0.376281 -0.185384
C42   C     C_1   0.476093 0.879628 0.124351 -0.194718
C43   C     C_R   0.472732 0.161544 0.089063 -0.045401
C44   C     C_R   0.352260 0.338520 0.411031 -0.043051
C45   C     C_R   0.535451 0.276805 0.094875 -0.150920
C46   C     C_R   0.526262 0.219715 0.064419 -0.161752
C47   C     C_R   0.428971 0.160707 0.145041 -0.214147
C48   C     C_R   0.440785 0.218261 0.177487 0.087042
C49   C     C_R   0.494723 0.276577 0.150918 0.132638
C50   C     C_R   0.403841 0.219999 0.235170 0.059031
C51   C     C_R   0.421472 0.280031 0.264948 0.056219
C52   C     C_R   0.474905 0.336285 0.236024 -0.183990
C53   C     C_R   0.510209 0.334410 0.180348 -0.192389
C54   C     C_R   0.350538 0.163736 0.264102 -0.186856
C55   C     C_R   0.315283 0.165609 0.319782 -0.201727
C56   C     C_R   0.330641 0.223453 0.349204 0.140022
C57   C     C_R   0.384456 0.281777 0.322626 0.086556
C58   C     C_R   0.289906 0.223231 0.405246 -0.161736
C59   C     C_R   0.298918 0.280336 0.435689 -0.168434
C60   C     C_R   0.396047 0.339350 0.355056 -0.212923
H17   H     H_    0.551475 0.378966 0.160077 0.132215
H18   H     H_    0.433578 0.385827 0.338130 0.097005
H19   H     H_    0.262761 0.279263 0.478635 0.106682
H20   H     H_    0.274137 0.121044 0.340061 0.122405
H21   H     H_    0.577417 0.321278 0.074635 0.126538
H22   H     H_    0.562401 0.220790 0.021472 0.114213
H23   H     H_    0.391230 0.114244 0.161953 0.093911
H24   H     H_    0.491560 0.383030 0.255252 0.127537
H25   H     H_    0.334018 0.116981 0.244881 0.122938
H26   H     H_    0.248054 0.178750 0.425495 0.113044
O11   O     O_R   0.323320 0.942780 0.056240 -0.534932
O12   O     O_R   0.647300 0.077050 0.046060 -0.538044
O13   O     O_R   0.813840 0.057330 0.943840 -0.535183
C61   C     C_R   0.478521 0.100980 0.056776 0.695457
O14   O     O_R   0.653250 0.944380 0.062400 -0.536581
O15   O     O_R   0.819830 0.923720 0.960300 -0.535630
C62   C     C_R   0.485359 0.924538 0.078391 0.723999
O16   O     O_R   0.317330 0.076390 0.039790 -0.535997
O17   O     O_3   0.483830 0.993470 0.966560 -0.366858
V3    V     V_3+5 0.760140 0.001210 0.006210 1.428573
O18   O     O_R   0.149290 0.922840 0.953850 -0.537889
C63   C     C_R   0.981073 0.899096 0.943111 0.693708
O19   O     O_R   0.143340 0.055500 0.937510 -0.537587
C64   C     C_R   0.973549 0.075517 0.921800 0.725657
V4    V     V_3+5 0.259690 0.998600 0.993650 1.429509
O20   O     O_3   0.986130 0.006520 0.033440 -0.367038
Br1   Br    Br    0.094330 0.582550 0.852608 -0.529497
O21   O     O_3   0.732554 0.714880 0.314682 -0.579090
C65   C     C_3   0.734265 0.746436 0.366170 0.071984
H27   H     H_    0.761459 0.708788 0.397950 0.142758
H28   H     H_    0.596018 0.771321 0.377010 0.098559
C66   C     C_3   0.897512 0.795711 0.368137 -0.308118
H29   H     H_    0.035861 0.770676 0.359022 0.206205
H30   H     H_    0.871293 0.833783 0.336657 0.190639
C67   C     C_3   0.913197 0.827872 0.424189 -0.848110
H31   H     H_    0.946796 0.790822 0.455952 0.230294
H32   H     H_    0.776463 0.853251 0.434490 0.230715
H33   H     H_    0.030594 0.864085 0.423902 0.233167

loop_
_geom_bond_atom_site_label_1
_geom_bond_atom_site_label_2
_ccdc_geom_bond_type
C13   C19   A    
O15   C63   A    
C30   C31   T    
C36   C37   A    
C59   H19   S    
C45   C46   A    
C4    C6    S    
O2    C1    A    
C7    C8    A    
C45   H21   S    
C1    O6    A    
C5    C63   S    
C21   H2    S    
C47   H23   S    
C67   H31   S    
C43   C47   A    
C23   H11   S    
C27   C28   A    
O13   C64   A    
C55   H20   S    
C14   C15   A    
C38   O21   S    
C20   H9    S    
C9    C10   A    
C16   C17   A    
C56   C58   A    
C65   H28   S    
O5    C3    A    
C18   C19   A    
C67   H32   S    
C33   C34   A    
V2    O10   S    
C5    C8    A    
O21   C65   S    
C22   H1    S    
V3    O20   S    
C35   C36   A    
C46   H22   S    
O17   V4    S    
O8    V2    S    
H10   C28   S    
C33   C38   A    
C24   C25   A    
C34   C39   S    
C40   C41   T    
C26   C27   A    
O17   V3    S    
O14   V3    S    
O1    V2    S    
C11   C15   A    
C52   H24   S    
O7    V1    S    
C66   C67   S    
O18   V4    S    
C53   H17   S    
O13   V3    S    
C25   C26   A    
C23   C28   A    
O1    C2    A    
O9    C4    A    
C1    C41   S    
C44   C60   A    
C66   H30   S    
C23   C24   A    
O11   C62   A    
O12   V3    S    
O16   V4    S    
C56   C57   A    
C12   C13   A    
O14   C62   A    
C65   C66   S    
C2    C44   S    
O4    C2    A    
C8    H5    S    
C50   C51   A    
C67   H33   S    
C33   H14   S    
C5    C9    A    
C51   C52   A    
C34   C35   A    
C7    C11   A    
C47   C48   A    
O5    V1    S    
C17   C18   A    
C7    H4    S    
C50   C54   A    
C55   C56   A    
C49   C53   A    
C37   C40   S    
O12   C61   A    
C26   H13   S    
C19   C22   A    
O19   V4    S    
C48   C49   A    
C6    C22   A    
O3    C4    A    
C24   C29   S    
C3    C32   S    
C25   H12   S    
C43   C61   S    
C60   H18   S    
C54   C55   A    
O6    V2    S    
O9    V2    S    
C54   H25   S    
C10   C12   A    
O2    V1    S    
O15   V3    S    
C44   C59   A    
C66   H29   S    
V4    O20   S    
C57   C60   A    
O19   C64   A    
C58   C59   A    
C12   C16   A    
C48   C50   A    
C52   C53   A    
C42   C62   S    
O11   V4    S    
C43   C46   A    
O8    C3    A    
C27   C30   S    
C39   C42   T    
C20   C21   A    
C13   C14   A    
O4    V1    S    
O3    V1    S    
V1    O10   S    
O18   C63   A    
C18   C20   A    
C9    H6    S    
C16   H8    S    
C51   C57   A    
C61   O16   A    
O7    V2    S    
C35   H15   S    
C58   H26   S    
C6    C21   A    
C36   H16   S    
C37   C38   A    
C17   H3    S    
C45   C49   A    
C10   C11   A    
C65   H27   S    
C31   C64   S    
C14   H7    S    
C29   C32   T    
C15   Br1   S    
