data_mof_unit_33805.cif
_audit_creation_date              2012-12-10T16:38:00-0500
_audit_creation_method            fapswitch 2.2
_symmetry_space_group_name_H-M    P1
_symmetry_Int_Tables_number       1
_space_group_crystal_system       triclinic
_cell_length_a                    28.112697
_cell_length_b                    18.426359
_cell_length_c                    16.977085
_cell_angle_alpha                 90.378841
_cell_angle_beta                  60.864883
_cell_angle_gamma                 90.377423
_cell_volume                      7681.43594491

loop_
_atom_site_label
_atom_site_type_symbol
_atom_type_description
_atom_site_fract_x
_atom_site_fract_y
_atom_site_fract_z
_atom_type_partial_charge
C1    C     C_R   0.705283 0.276197 0.673958 0.902407
C2    C     C_R   0.099671 0.500776 0.496173 0.065895
C3    C     C_R   0.185930 0.226470 0.912975 0.069922
C4    C     C_R   0.609935 0.311977 0.049512 -0.282405
C5    C     C_R   0.388225 0.685636 0.951399 -0.284289
C6    C     C_R   0.384558 0.324840 0.951132 -0.279585
C7    C     C_R   0.612879 0.678894 0.050286 -0.282888
C8    C     C_R   0.110788 0.812918 0.049147 -0.282186
C9    C     C_R   0.886626 0.182664 0.952158 -0.268423
C10   C     C_R   0.884202 0.825477 0.951308 -0.281153
C11   C     C_R   0.113109 0.178604 0.050179 -0.281495
C12   C     C_R   0.636047 0.291022 0.098570 0.521457
C13   C     C_R   0.421796 0.001156 0.430509 0.069358
C14   C     C_R   0.361308 0.704889 0.903038 0.517390
C15   C     C_R   0.354776 0.313503 0.905283 0.514613
C16   C     C_R   0.641897 0.692737 0.097049 0.520436
C17   C     C_R   0.137335 0.792684 0.097783 0.520584
C18   C     C_R   0.858371 0.197969 0.905554 0.509663
C19   C     C_R   0.854292 0.814585 0.905635 0.517266
C20   C     C_R   0.142178 0.192289 0.096888 0.520411
C21   C     C_R   0.773532 0.278440 0.767381 -0.218813
C22   C     C_R   0.225371 0.718034 0.234626 -0.215487
C23   C     C_R   0.251727 0.199253 0.209480 -0.224269
C24   C     C_R   0.599524 0.000747 0.496695 0.064753
C25   C     C_R   0.745143 0.805336 0.792219 -0.210912
C26   C     C_R   0.273993 0.780939 0.766397 -0.214626
C27   C     C_R   0.724523 0.217326 0.236050 -0.217274
C28   C     C_R   0.751489 0.699650 0.209551 -0.223756
C29   C     C_R   0.245575 0.304734 0.791982 -0.208141
C30   C     C_R   0.802171 0.263693 0.812851 -0.163436
C31   C     C_R   0.196079 0.730994 0.189738 -0.148707
C32   C     C_R   0.220565 0.187277 0.167251 -0.156599
C33   C     C_R   0.775563 0.819137 0.835411 -0.147967
C34   C     C_R   0.303053 0.767654 0.811551 -0.147410
C35   C     C_R   0.119726 0.376734 0.440514 -0.235776
C36   C     C_R   0.694960 0.230345 0.191554 -0.153359
C37   C     C_R   0.720291 0.687780 0.167365 -0.155882
C38   C     C_R   0.276111 0.318255 0.835029 -0.142274
C39   C     C_R   0.072137 0.102659 0.936399 0.913107
C40   C     C_R   0.927575 0.897619 0.063803 0.908812
C41   C     C_R   0.929227 0.104149 0.062541 0.902751
C42   C     C_R   0.070373 0.895483 0.937806 0.903104
C43   C     C_R   0.572109 0.602683 0.936415 0.909913
C44   C     C_R   0.427611 0.397577 0.063779 0.908537
C45   C     C_R   0.429433 0.604351 0.062361 0.901004
C46   C     C_R   0.924172 0.632649 0.430110 -0.246738
C47   C     C_R   0.570306 0.395445 0.937847 0.902437
C48   C     C_R   0.542287 0.129695 0.513239 0.101371
C49   C     C_R   0.480038 0.872217 0.408215 0.094177
C50   C     C_R   0.464325 0.132722 0.455691 0.104364
C51   C     C_R   0.574211 0.875021 0.427697 0.083747
C52   C     C_R   0.042558 0.629779 0.512333 0.101442
C53   C     C_R   0.980162 0.372227 0.407753 0.094789
C54   C     C_R   0.964586 0.632779 0.454793 0.105488
C55   C     C_R   0.074357 0.375027 0.427217 0.085902
C56   C     C_R   0.517539 0.195406 0.512606 -0.188022
C57   C     C_R   0.930880 0.370988 0.405157 -0.246656
C58   C     C_R   0.512146 0.809746 0.390112 -0.179942
C59   C     C_R   0.480354 0.197363 0.480430 -0.216502
C60   C     C_R   0.559597 0.811612 0.397787 -0.166722
C61   C     C_R   0.017899 0.695514 0.511478 -0.188527
C62   C     C_R   0.012267 0.309750 0.389667 -0.174801
C63   C     C_R   0.980724 0.697454 0.479274 -0.216053
C64   C     C_R   0.059727 0.311614 0.397333 -0.157653
C65   C     C_R   0.487591 0.066748 0.458939 0.031385
C66   C     C_R   0.542663 0.937631 0.445069 0.030635
C67   C     C_R   0.529088 0.065916 0.482281 0.027109
C68   C     C_R   0.080611 0.627093 0.542487 -0.239416
C69   C     C_R   0.497103 0.937001 0.431275 0.030353
C70   C     C_R   0.987837 0.566804 0.458115 0.031784
C71   C     C_R   0.042849 0.437665 0.444454 0.032287
C72   C     C_R   0.029343 0.565983 0.481446 0.027733
C73   C     C_R   0.997277 0.437032 0.430675 0.031705
C74   C     C_R   0.969461 0.501677 0.438289 -0.050366
C75   C     C_R   0.057070 0.501319 0.474686 -0.047849
C76   C     C_R   0.469278 0.001643 0.438932 -0.051174
C77   C     C_R   0.556866 0.001272 0.475360 -0.049634
C78   C     C_R   0.898781 0.434524 0.423908 0.055778
C79   C     C_R   0.619631 0.876765 0.440827 -0.241369
C80   C     C_R   0.112906 0.564576 0.528275 0.056718
C81   C     C_R   0.130062 0.437102 0.483085 0.051049
C82   C     C_R   0.896489 0.567373 0.432069 0.057085
C83   C     C_R   0.398718 0.934528 0.424181 0.055072
C84   C     C_R   0.612788 0.064542 0.528763 0.056193
C85   C     C_R   0.629969 0.937107 0.483424 0.049569
C86   C     C_R   0.396400 0.067364 0.432468 0.056902
C87   C     C_R   0.844544 0.434769 0.437132 -0.115636
C88   C     C_R   0.159630 0.564077 0.540867 -0.113818
C89   C     C_R   0.169576 0.436873 0.513197 -0.102878
C90   C     C_R   0.424037 0.132629 0.430733 -0.247156
C91   C     C_R   0.843621 0.565532 0.440107 -0.118593
C92   C     C_R   0.344527 0.934775 0.437215 -0.115687
C93   C     C_R   0.659593 0.064074 0.541114 -0.113940
C94   C     C_R   0.669542 0.936879 0.513386 -0.103182
C95   C     C_R   0.343597 0.065529 0.440245 -0.118514
C96   C     C_R   0.819660 0.499922 0.439510 -0.298402
C97   C     C_R   0.183412 0.499655 0.541552 -0.308362
C98   C     C_R   0.319668 0.999928 0.439509 -0.299315
C99   C     C_R   0.683415 0.999657 0.541698 -0.311409
C100  C     C_3   0.560218 0.270907 0.236811 -0.397486
C101  C     C_R   0.430814 0.870998 0.405451 -0.249052
C102  C     C_3   0.437463 0.717961 0.762577 -0.386127
C103  C     C_3   0.411374 0.379022 0.776995 -0.356119
C104  C     C_3   0.582694 0.631891 0.228373 -0.388187
C105  C     C_3   0.061477 0.775194 0.237100 -0.397012
C106  C     C_3   0.870887 0.107882 0.805953 -0.344611
C107  C     C_3   0.909804 0.881702 0.778416 -0.375394
C108  C     C_3   0.082993 0.131425 0.228189 -0.389096
C109  C     C_R   0.294537 0.723477 0.326254 0.896119
C110  C     C_R   0.580444 0.127028 0.543178 -0.241615
C111  C     C_R   0.718802 0.266139 0.956239 -0.052127
C112  C     C_R   0.278951 0.730081 0.045915 -0.055529
C113  C     C_R   0.280825 0.263672 0.043524 -0.056066
C114  C     C_R   0.716011 0.742078 0.958779 -0.057734
C115  C     C_R   0.219971 0.768160 0.955106 -0.056239
C116  C     C_R   0.777377 0.227432 0.047436 -0.050403
C117  C     C_R   0.780487 0.764325 0.043739 -0.056224
C118  C     C_R   0.216359 0.241446 0.958547 -0.057970
C119  C     C_R   0.775401 0.249840 0.906429 0.085584
C120  C     C_R   0.298784 0.266715 0.322956 0.878187
C121  C     C_R   0.222054 0.745041 0.096139 0.097765
C122  C     C_R   0.231198 0.224510 0.088207 0.107116
C123  C     C_R   0.765244 0.782060 0.914459 0.104943
C124  C     C_R   0.276833 0.753147 0.905011 0.098446
C125  C     C_R   0.720660 0.243301 0.097704 0.097365
C126  C     C_R   0.730885 0.725102 0.088394 0.107540
C127  C     C_R   0.265692 0.281214 0.914135 0.103111
C128  C     C_R   0.804203 0.226159 0.951730 -0.085300
C129  C     C_R   0.192582 0.767723 0.051082 -0.072435
C130  C     C_R   0.196882 0.217469 0.048307 -0.065397
C131  C     C_R   0.700929 0.733806 0.677105 0.919311
C132  C     C_R   0.799642 0.789162 0.954269 -0.071163
C133  C     C_R   0.306201 0.730209 0.949997 -0.071085
C134  C     C_R   0.691261 0.265901 0.052335 -0.073202
C135  C     C_R   0.696566 0.718049 0.048506 -0.065504
C136  C     C_R   0.300075 0.288280 0.953965 -0.066860
C137  C     C_R   0.636395 0.311309 0.955184 0.003381
C138  C     C_R   0.362292 0.686948 0.045688 0.006520
C139  C     C_R   0.361087 0.315729 0.044915 0.000444
C140  C     C_R   0.636945 0.687174 0.956260 0.001036
C141  C     C_R   0.136955 0.812013 0.954842 0.005130
C142  C     C_R   0.205330 0.776311 0.673888 0.902260
C143  C     C_R   0.861233 0.185061 0.046428 -0.004399
C144  C     C_R   0.860853 0.816126 0.045035 -0.001393
C145  C     C_R   0.137146 0.186893 0.956158 0.000893
C146  C     C_R   0.611735 0.338691 0.904613 -0.109690
C147  C     C_R   0.387659 0.660690 0.095720 -0.109832
C148  C     C_R   0.386503 0.340367 0.095694 -0.106155
C149  C     C_R   0.612576 0.660696 0.904701 -0.105952
C150  C     C_R   0.111908 0.838829 0.904569 -0.110458
C151  C     C_R   0.887140 0.160010 0.096057 -0.107359
C152  C     C_R   0.886394 0.840514 0.095727 -0.105360
C153  C     C_R   0.794385 0.223243 0.326424 0.897515
C154  C     C_R   0.112681 0.160582 0.904665 -0.107319
C155  C     C_R   0.633422 0.321415 0.814981 -0.301491
C156  C     C_R   0.366294 0.678441 0.185122 -0.303698
C157  C     C_R   0.367253 0.318366 0.183341 -0.314979
C158  C     C_R   0.632248 0.681940 0.816605 -0.309283
C159  C     C_R   0.133399 0.821247 0.815062 -0.300517
C160  C     C_R   0.865928 0.178078 0.185314 -0.301860
C161  C     C_R   0.867199 0.818408 0.183317 -0.314874
C162  C     C_R   0.132328 0.181878 0.816604 -0.302513
C163  C     C_R   0.685214 0.293935 0.768625 -0.119951
C164  C     C_R   0.798758 0.766765 0.322954 0.879702
C165  C     C_R   0.314283 0.705139 0.231917 -0.115839
C166  C     C_R   0.321545 0.275331 0.225293 -0.115049
C167  C     C_R   0.677397 0.726071 0.775072 -0.128387
C168  C     C_R   0.185347 0.794303 0.768436 -0.119225
C169  C     C_R   0.813807 0.204415 0.232380 -0.115115
C170  C     C_R   0.821442 0.775480 0.225307 -0.115213
C171  C     C_R   0.177536 0.225893 0.775026 -0.128427
C172  C     C_R   0.716595 0.284143 0.813655 0.092478
C173  C     C_R   0.282341 0.713582 0.187658 0.091801
C174  C     C_R   0.294274 0.250981 0.176450 0.099380
C175  C     C_R   0.200969 0.233736 0.677096 0.920030
C176  C     C_R   0.703506 0.752387 0.824813 0.099375
C177  C     C_R   0.217035 0.785394 0.813049 0.092037
C178  C     C_R   0.781494 0.212249 0.188655 0.092430
C179  C     C_R   0.794069 0.751326 0.176532 0.099832
C180  C     C_R   0.203783 0.251985 0.824664 0.097573
C181  C     C_R   0.691490 0.129069 0.532876 0.898837
C182  C     C_R   0.309302 0.870257 0.462778 0.898753
C183  C     C_R   0.308691 0.129367 0.464635 0.908982
C184  C     C_R   0.696652 0.872027 0.516965 0.914329
C185  C     C_R   0.191503 0.629059 0.532803 0.899379
C186  C     C_R   0.921911 0.501169 0.430055 0.069917
C187  C     C_R   0.809308 0.370253 0.462757 0.900907
C188  C     C_R   0.808701 0.629372 0.464591 0.910899
C189  C     C_R   0.196671 0.372026 0.516889 0.915373
C190  C     C_R   0.690263 0.285756 0.908766 0.069010
C191  C     C_R   0.308166 0.711619 0.092681 0.068292
C192  C     C_R   0.311836 0.277220 0.088514 0.068574
C193  C     C_R   0.685650 0.726919 0.913142 0.069974
C194  C     C_R   0.190988 0.787041 0.908083 0.068886
C195  C     C_R   0.806941 0.209440 0.093820 0.068830
C196  C     C_R   0.811570 0.777700 0.088662 0.068719
H1    H     H_    0.083874 0.262771 0.383018 0.159763
H2    H     H_    0.215827 0.499292 0.558872 0.192934
H3    H     H_    0.278757 0.999571 0.448508 0.197946
H4    H     H_    0.715889 0.999298 0.558876 0.191880
H5    H     H_    0.146512 0.330609 0.415533 0.185144
H6    H     H_    0.914820 0.684341 0.411762 0.175177
H7    H     H_    0.918819 0.320702 0.386658 0.172548
H8    H     H_    0.083799 0.674258 0.577755 0.178662
H9    H     H_    0.646471 0.830704 0.415646 0.186583
H10   H     H_    0.414780 0.184341 0.412288 0.175362
H11   H     H_    0.418809 0.820739 0.386799 0.172956
H12   H     H_    0.962685 0.748832 0.477666 0.139414
H13   H     H_    0.583711 0.174188 0.578380 0.178352
H14   H     H_    0.611501 0.335104 0.779320 0.187873
H15   H     H_    0.388679 0.665701 0.220296 0.186311
H16   H     H_    0.386629 0.338286 0.221116 0.188133
H17   H     H_    0.613727 0.660547 0.778175 0.189198
H18   H     H_    0.111218 0.834390 0.779668 0.187803
H19   H     H_    0.888612 0.165982 0.220168 0.185508
H20   H     H_    0.886666 0.838162 0.221021 0.187763
H21   H     H_    0.113726 0.160622 0.778234 0.192739
H22   H     H_    0.568124 0.329298 0.086859 0.174235
H23   H     H_    0.000597 0.259496 0.370072 0.148277
H24   H     H_    0.430172 0.669057 0.913651 0.174018
H25   H     H_    0.427532 0.336048 0.911344 0.176867
H26   H     H_    0.570055 0.666421 0.089153 0.174993
H27   H     H_    0.068914 0.829908 0.086738 0.173993
H28   H     H_    0.928993 0.167864 0.912233 0.188492
H29   H     H_    0.927179 0.836586 0.911322 0.178777
H30   H     H_    0.070264 0.166269 0.089101 0.175419
H31   H     H_    0.797283 0.290065 0.696213 0.180400
H32   H     H_    0.202189 0.706576 0.305950 0.176616
H33   H     H_    0.242991 0.164219 0.265537 0.178080
H34   H     H_    0.028346 0.745516 0.533528 0.142467
H35   H     H_    0.753720 0.839556 0.735519 0.172658
H36   H     H_    0.297344 0.792732 0.695198 0.176241
H37   H     H_    0.701491 0.206574 0.307562 0.177477
H38   H     H_    0.742769 0.664536 0.265531 0.178208
H39   H     H_    0.254206 0.339040 0.735334 0.175078
H40   H     H_    0.845795 0.267309 0.773024 0.212437
H41   H     H_    0.152754 0.725450 0.230259 0.197866
H42   H     H_    0.189990 0.145207 0.195069 0.183295
H43   H     H_    0.805343 0.862143 0.808098 0.177781
H44   H     H_    0.346431 0.773311 0.771503 0.194643
H45   H     H_    0.583768 0.762786 0.383412 0.159857
H46   H     H_    0.651652 0.225712 0.232783 0.200080
H47   H     H_    0.689721 0.645703 0.195150 0.183208
H48   H     H_    0.306075 0.361051 0.807581 0.182025
H49   H     H_    0.561764 0.214466 0.211595 0.161515
H50   H     H_    0.527209 0.302165 0.234797 0.176394
H51   H     H_    0.549663 0.266865 0.308626 0.203782
H52   H     H_    0.469153 0.682429 0.762751 0.179919
H53   H     H_    0.439748 0.773557 0.786898 0.158722
H54   H     H_    0.446794 0.723107 0.691389 0.198178
H55   H     H_    0.452669 0.374220 0.769739 0.171321
H56   H     H_    0.462267 0.248733 0.478938 0.140443
H57   H     H_    0.389939 0.427509 0.818507 0.165019
H58   H     H_    0.416786 0.387929 0.708544 0.189801
H59   H     H_    0.602463 0.581774 0.189186 0.172342
H60   H     H_    0.541612 0.638860 0.235361 0.173386
H61   H     H_    0.576978 0.624439 0.297243 0.186109
H62   H     H_    0.061545 0.718996 0.212276 0.161802
H63   H     H_    0.028843 0.808047 0.236025 0.176537
H64   H     H_    0.051559 0.770793 0.308598 0.203010
H65   H     H_    0.826204 0.100713 0.833654 0.170769
H66   H     H_    0.886193 0.069538 0.838844 0.165154
H67   H     H_    0.500499 0.759505 0.370450 0.149245
H68   H     H_    0.890926 0.093897 0.733175 0.188277
H69   H     H_    0.951076 0.878153 0.771501 0.175685
H70   H     H_    0.887476 0.929513 0.820482 0.143804
H71   H     H_    0.915279 0.890799 0.709958 0.187720
H72   H     H_    0.102751 0.081314 0.188973 0.172211
H73   H     H_    0.041906 0.138411 0.235200 0.173333
H74   H     H_    0.077287 0.123942 0.297048 0.186718
H75   H     H_    0.527945 0.245387 0.534761 0.142617
H76   H     H_    0.778711 0.499565 0.448679 0.197831
O1    O     O_R   0.746490 0.236330 0.638080 -0.635754
O2    O     O_R   0.325830 0.813840 0.483730 -0.644880
O3    O     O_R   0.325830 0.186160 0.483730 -0.635777
O4    O     O_R   0.674170 0.813840 0.516270 -0.645734
O5    O     O_R   0.174170 0.686160 0.516270 -0.650359
O6    O     O_R   0.825830 0.313840 0.483730 -0.643630
O7    O     O_R   0.825830 0.686160 0.483730 -0.635163
O8    O     O_R   0.174170 0.313840 0.516270 -0.641701
O9    O     O_R   0.739960 0.127620 0.525000 -0.621613
O10   O     O_R   0.260040 0.872380 0.475000 -0.623574
O11   O     O_R   0.260040 0.127620 0.475000 -0.630157
O12   O     O_R   0.253510 0.763670 0.361920 -0.633285
O13   O     O_R   0.739960 0.872380 0.525000 -0.634683
O14   O     O_R   0.239960 0.627620 0.525000 -0.619704
O15   O     O_R   0.760040 0.372380 0.475000 -0.623339
O16   O     O_R   0.760040 0.627620 0.475000 -0.629650
O17   O     O_R   0.239960 0.372380 0.525000 -0.634137
O18   O     O_R   0.680700 0.294870 0.629350 -0.627865
O19   O     O_R   0.319300 0.705130 0.370650 -0.632962
O20   O     O_R   0.319300 0.294870 0.370650 -0.633432
O21   O     O_R   0.680700 0.705130 0.629350 -0.618298
O22   O     O_R   0.180700 0.794870 0.629350 -0.628274
O23   O     O_R   0.253510 0.236330 0.361920 -0.655058
O24   O     O_R   0.819300 0.205130 0.370650 -0.633239
O25   O     O_R   0.819300 0.794870 0.370650 -0.633282
O26   O     O_R   0.180700 0.205130 0.629350 -0.614671
O27   O     O_R   0.062020 0.072840 0.007170 -0.624266
O28   O     O_R   0.937980 0.927160 0.992830 -0.628829
O29   O     O_R   0.937980 0.072840 0.992830 -0.623142
O30   O     O_R   0.062020 0.927160 0.007170 -0.613906
O31   O     O_R   0.562020 0.572840 0.007170 -0.623337
O32   O     O_R   0.437980 0.427160 0.992830 -0.625092
O33   O     O_R   0.437980 0.572840 0.992830 -0.614973
O34   O     O_R   0.746490 0.763670 0.638080 -0.632061
O35   O     O_R   0.562020 0.427160 0.007170 -0.613159
O36   O     O_R   0.947860 0.073950 0.109290 -0.619293
O37   O     O_R   0.052140 0.926050 0.890710 -0.618401
O38   O     O_R   0.052140 0.073950 0.890710 -0.618109
O39   O     O_R   0.947860 0.926050 0.109290 -0.622821
O40   O     O_R   0.447860 0.573950 0.109290 -0.619915
O41   O     O_R   0.552140 0.426050 0.890710 -0.619192
O42   O     O_R   0.552140 0.573950 0.890710 -0.622911
O43   O     O_R   0.447860 0.426050 0.109290 -0.623059
O44   O     O_3   0.610672 0.307789 0.189808 -0.611164
O45   O     O_R   0.246490 0.736330 0.638080 -0.631790
O46   O     O_3   0.385286 0.685900 0.812407 -0.611940
O47   O     O_3   0.381477 0.314026 0.811497 -0.606622
O48   O     O_3   0.614742 0.694810 0.190898 -0.614688
O49   O     O_3   0.112587 0.810311 0.188803 -0.610931
O50   O     O_3   0.884177 0.180306 0.814973 -0.626352
O51   O     O_3   0.880923 0.815862 0.811889 -0.600333
O52   O     O_3   0.115046 0.194345 0.190734 -0.614658
O53   O     O_R   0.753510 0.263670 0.361920 -0.633014
O54   O     O_R   0.753510 0.736330 0.361920 -0.654635
O55   O     O_R   0.246490 0.263670 0.638080 -0.633298
O56   O     O_R   0.674170 0.186160 0.516270 -0.650097
Zn1   Zn    Zn3+2 0.792340 0.208750 0.507670 0.935591
Zn2   Zn    Zn3+2 0.494040 0.500000 0.919480 0.926013
Zn3   Zn    Zn3+2 0.005960 1.000000 0.080520 0.926488
Zn4   Zn    Zn3+2 0.994040 1.000000 0.919480 0.920081
Zn5   Zn    Zn3+2 0.207660 0.791250 0.492330 0.941170
Zn6   Zn    Zn3+2 0.207660 0.208750 0.492330 0.937880
Zn7   Zn    Zn3+2 0.792340 0.791250 0.507670 0.934490
Zn8   Zn    Zn3+2 0.292340 0.708750 0.507670 0.942339
Zn9   Zn    Zn3+2 0.707660 0.291250 0.492330 0.941115
Zn10  Zn    Zn3+2 0.707660 0.708750 0.492330 0.929008
Zn11  Zn    Zn3+2 0.292340 0.291250 0.507670 0.937288
Zn12  Zn    Zn3+2 0.505960 0.500000 0.080520 0.927843

loop_
_geom_bond_atom_site_label_1
_geom_bond_atom_site_label_2
_ccdc_geom_bond_type
C91   C188  S    
C58   H67   S    
C108  O52   S    
C45   O33   A    
O11   Zn6   S    
C9    C143  A    
C120  C166  S    
C158  H17   S    
C60   H45   S    
C124  C133  A    
O29   Zn4   S    
C50   C59   A    
C108  H73   S    
C52   C61   A    
C47   O41   A    
C54   C63   A    
O20   Zn11  S    
C58   C60   A    
C131  O21   A    
C61   C63   A    
C117  C132  A    
C62   C64   A    
C100  H49   S    
C101  H11   S    
C91   C96   A    
C116  C195  A    
C93   C181  S    
C50   C90   A    
C113  C122  A    
C70   C74   A    
C78   C186  A    
C4    C12   A    
C34   H44   S    
C24   C85   A    
C88   C97   A    
O14   Zn8   S    
C119  C128  A    
C143  C151  A    
C162  H21   S    
C106  O50   S    
C159  H18   S    
C49   C69   A    
C158  C167  A    
C21   H31   S    
C11   C20   A    
C166  C174  A    
C150  C159  A    
C39   C154  S    
C137  C146  A    
C40   O28   A    
C127  C136  A    
C31   C121  A    
C139  C192  A    
C86   C90   A    
C71   C73   A    
C35   H5    S    
C172  C190  A    
C160  H19   S    
C35   C55   A    
C173  C191  A    
C82   C91   A    
C51   C66   A    
O41   Zn2   S    
O25   Zn7   S    
C52   C72   A    
C3    C118  A    
C54   C70   A    
C106  H68   S    
C61   H34   S    
C163  C172  A    
C65   C76   A    
C8    H27   S    
O38   Zn4   S    
O8    Zn6   S    
C131  O34   A    
C164  O54   A    
C63   H12   S    
O37   Zn4   S    
C79   C85   A    
C38   H48   S    
C109  O12   A    
C66   C77   A    
C34   C124  A    
C57   C78   A    
C185  O5    A    
C182  O10   A    
C41   C151  S    
C142  O22   A    
C21   C172  A    
C8    C17   A    
O15   Zn9   S    
C56   C59   A    
C103  H55   S    
C62   H23   S    
C107  O51   S    
C80   C88   A    
C100  H51   S    
C92   C182  S    
C112  C191  A    
C175  O55   A    
C11   H30   S    
C84   C93   A    
C48   C67   A    
O53   Zn9   S    
C86   C95   A    
C142  C168  S    
C24   C77   A    
O5    Zn5   S    
C103  H58   S    
C2    C81   A    
C47   O35   A    
O6    Zn1   S    
O7    Zn7   S    
O35   Zn12  S    
C55   C71   A    
C2    C75   A    
C28   H38   S    
C78   C87   A    
C48   C110  A    
C105  H62   S    
C123  C132  A    
C68   H8    S    
C164  C170  S    
C138  C191  A    
C67   C77   A    
C27   C178  A    
C3    C180  A    
C95   C183  S    
C23   C174  A    
C183  O11   A    
C98   H3    S    
C22   H32   S    
C106  H66   S    
C40   C152  S    
C69   C76   A    
C111  C119  A    
C85   C94   A    
C6    C139  A    
C108  H72   S    
C29   H39   S    
C18   C128  A    
C4    C137  A    
C46   C82   A    
C29   C38   A    
C8    C141  A    
C176  C193  A    
C149  C158  A    
C17   O49   S    
C152  C161  A    
C131  C167  S    
C12   C134  A    
C55   C64   A    
C156  H15   S    
C72   C75   A    
C141  C150  A    
C139  C148  A    
O10   Zn5   S    
C162  C171  A    
O32   Zn2   S    
C153  O53   A    
C87   C187  S    
C15   C136  A    
C16   O48   S    
C155  C163  A    
C79   H9    S    
C140  C193  A    
C185  O14   A    
C107  H69   S    
C10   C144  A    
C164  O25   A    
C23   H33   S    
C189  O17   A    
C145  C154  A    
C88   C185  S    
C115  C194  A    
O26   Zn6   S    
C105  H64   S    
C4    H22   S    
C116  C125  A    
C118  C127  A    
C114  C123  A    
C22   C173  A    
C37   C126  A    
C117  C126  A    
C26   C177  A    
C19   C132  A    
C113  C192  A    
C83   C101  A    
C43   O42   A    
C45   C147  S    
C154  C162  A    
C45   O40   A    
C111  C134  A    
C3    C145  A    
C144  C196  A    
C14   C133  A    
C41   O36   A    
C170  C179  A    
C36   H46   S    
C108  H74   S    
O39   Zn3   S    
C112  C121  A    
C144  C152  A    
C9    H28   S    
C28   C37   A    
C148  C157  A    
C171  C180  A    
C50   C65   A    
C51   C79   A    
C47   C146  S    
C100  H50   S    
C137  C190  A    
C9    C18   A    
O2    Zn8   S    
C39   O27   A    
C51   C60   A    
C30   H40   S    
C140  C149  A    
C25   C33   A    
C125  C134  A    
C184  O4    A    
C37   H47   S    
O4    Zn10  S    
C102  H53   S    
C73   C74   A    
O36   Zn3   S    
O34   Zn7   S    
C184  O13   A    
C104  H59   S    
C82   C186  A    
C49   C101  A    
C7    C140  A    
O45   Zn8   S    
C168  C177  A    
O19   Zn8   S    
C90   H10   S    
C181  O56   A    
C146  C155  A    
C188  O16   A    
C65   C67   A    
C10   H29   S    
C160  C169  A    
O18   Zn9   S    
C93   C99   A    
C182  O2    A    
C81   C89   A    
C64   H1    S    
C105  O49   S    
C94   C184  S    
O30   Zn3   S    
C100  O44   S    
O55   Zn11  S    
C179  C196  A    
C153  O24   A    
O27   Zn3   S    
C189  O8    A    
C103  O47   S    
C177  C194  A    
C12   O44   S    
O23   Zn6   S    
C32   C122  A    
O43   Zn12  S    
C15   O47   S    
C43   O31   A    
C44   O32   A    
C42   O30   A    
C118  C130  A    
C10   C19   A    
C143  C195  A    
C57   H7    S    
C107  H70   S    
C147  C156  A    
O17   Zn11  S    
C5    C14   A    
C109  C165  S    
C7    C16   A    
C161  H20   S    
C126  C135  A    
C42   O37   A    
C103  H57   S    
C120  O20   A    
C44   O43   A    
C109  O19   A    
C25   H35   S    
C53   C57   A    
C115  C124  A    
C155  H14   S    
C121  C129  A    
C27   C36   A    
O16   Zn10  S    
C21   C30   A    
C13   C83   A    
C23   C32   A    
C32   H42   S    
C156  C165  A    
C1    O18   A    
O54   Zn10  S    
C28   C179  A    
C5    H24   S    
C46   H6    S    
C1    C163  S    
C111  C190  A    
C153  C169  S    
C89   C189  S    
C56   H75   S    
C74   C186  A    
C188  O7    A    
C68   C80   A    
C114  C193  A    
C36   C125  A    
C112  C133  A    
C40   O39   A    
C38   C127  A    
C35   C81   A    
C95   C98   A    
C92   C98   A    
C5    C138  A    
C159  C168  A    
C83   C92   A    
C66   C69   A    
C30   C119  A    
C165  C173  A    
C175  O26   A    
O24   Zn1   S    
O28   Zn4   S    
C6    C15   A    
C187  O15   A    
C26   C34   A    
C113  C136  A    
C13   C86   A    
C114  C135  A    
C18   O50   S    
C1    O1    A    
O56   Zn9   S    
C52   C68   A    
C104  H61   S    
C6    H25   S    
C31   H41   S    
C105  H63   S    
O1    Zn1   S    
C46   C54   A    
O3    Zn11  S    
C20   O52   S    
O40   Zn12  S    
C22   C31   A    
C17   C129  A    
C104  O48   S    
C102  H52   S    
C7    H26   S    
C41   O29   A    
C11   C145  A    
C26   H36   S    
C171  C175  S    
C29   C180  A    
C106  H65   S    
C84   C110  A    
C49   C58   A    
C89   C97   A    
C99   H4    S    
C181  O9    A    
C33   H43   S    
C53   C62   A    
C183  O3    A    
O13   Zn7   S    
C13   C76   A    
C138  C147  A    
C87   C96   A    
O31   Zn12  S    
O12   Zn5   S    
C161  C170  A    
C102  O46   S    
C107  H71   S    
O21   Zn10  S    
C39   O38   A    
C14   O46   S    
C169  C178  A    
O42   Zn2   S    
C115  C129  A    
C187  O6    A    
C48   C56   A    
C102  H54   S    
C142  O45   A    
C97   H2    S    
C53   C73   A    
C120  O23   A    
C20   C130  A    
C43   C149  S    
C157  C166  A    
C19   O51   S    
O22   Zn5   S    
C96   H76   S    
C178  C195  A    
C104  H60   S    
C151  C160  A    
C24   C84   A    
C117  C196  A    
C71   C75   A    
C25   C176  A    
C94   C99   A    
C44   C148  S    
O9    Zn1   S    
C141  C194  A    
C42   C150  S    
C2    C80   A    
C27   H37   S    
C110  H13   S    
C157  H16   S    
C116  C128  A    
C174  C192  A    
C59   H56   S    
C33   C123  A    
O33   Zn2   S    
C70   C72   A    
C16   C135  A    
C122  C130  A    
C167  C176  A    
