data_mof_unit_59687.cif
_audit_creation_date              2012-10-26T20:03:21-0400
_audit_creation_method            fapswitch 2.2
_symmetry_space_group_name_H-M    P1
_symmetry_Int_Tables_number       1
_space_group_crystal_system       triclinic
_cell_length_a                    10.736834
_cell_length_b                    12.342309
_cell_length_c                    13.207639
_cell_angle_alpha                 117.314245
_cell_angle_beta                  75.35556
_cell_angle_gamma                 100.592438
_cell_volume                      1499.88654484

loop_
_atom_site_label
_atom_site_type_symbol
_atom_type_description
_atom_site_fract_x
_atom_site_fract_y
_atom_site_fract_z
_atom_type_partial_charge
C1    C     C_R   0.504836 0.855594 0.287004 0.617470
C2    C     C_R   0.471873 0.569993 0.007982 0.021950
C3    C     C_R   0.434497 0.656324 0.124806 0.092658
C4    C     C_R   0.741054 0.995198 0.493301 0.633834
C5    C     C_R   0.431529 0.444683 0.976553 0.017732
C6    C     C_R   0.336912 0.409709 0.054828 -0.060925
C7    C     C_R   0.283444 0.499177 0.162309 -0.042425
C8    C     C_R   0.331710 0.621079 0.197570 0.446827
C9    C     C_R   0.485764 0.352898 0.870420 -0.121086
C10   C     C_R   0.347316 0.196111 0.915361 0.431378
C11   C     C_R   0.500431 0.774912 0.163059 0.054215
C12   C     C_3   0.009931 0.041139 0.607756 0.226573
C13   C     C_R   0.749560 0.385242 0.406765 -0.090018
C14   C     C_R   0.307442 0.754999 0.629903 0.128673
C15   C     C_R   0.261049 0.661675 0.664245 0.375547
C16   C     C_R   0.477335 0.145532 0.714204 0.578471
C17   C     C_R   0.335890 0.565239 0.629084 -0.034850
C18   C     C_R   0.459735 0.561631 0.559997 -0.087935
C19   C     C_R   0.505053 0.660665 0.527085 0.123804
C20   C     C_R   0.540951 0.462530 0.517385 -0.030285
C21   C     C_R   0.672472 0.483173 0.473644 -0.104917
C22   C     C_R   0.719637 0.597789 0.477914 -0.028778
C23   C     C_3   0.930702 0.924578 0.540293 0.302760
C24   C     C_R   0.634277 0.659693 0.463868 0.284799
C25   C     C_R   0.500247 0.342903 0.510184 0.519825
C26   C     C_R   0.694437 0.265937 0.378438 0.377618
C27   C     C_R   0.259458 0.003725 0.504334 0.605756
C28   C     C_3   0.994528 0.957117 0.384001 0.159303
C29   C     C_3   0.045187 0.887546 0.436343 -0.159938
C30   C     C_3   0.123656 0.006186 0.504362 -0.122744
C31   C     C_3   0.071950 0.075140 0.453634 0.224012
C32   C     C_3   0.957310 0.109107 0.557156 0.337833
C33   C     C_3   0.878570 0.991707 0.488132 -0.051538
C34   C     C_R   0.296362 0.285671 0.024066 -0.041771
C35   C     C_R   0.440788 0.230248 0.837068 0.039425
C36   C     C_R   0.573647 0.813499 0.079558 -0.095678
C37   C     C_R   0.593755 0.734016 0.962391 -0.086375
C38   C     C_R   0.547166 0.612344 0.926657 -0.077927
Cu1   Cu    Cu3+1 0.529830 0.098270 0.475420 1.217070
Cu2   Cu    Cu3+1 0.470170 0.901730 0.524580 1.163887
F1    F     F_    0.275577 0.703671 0.302299 -0.637902
F2    F     F_    0.392143 0.323034 0.579892 -0.589947
F3    F     F_    0.143043 0.665623 0.733455 -0.554229
F4    F     F_    0.911374 0.224046 0.620591 -0.526718
F5    F     F_    0.858892 0.847405 0.586828 -0.584913
F6    F     F_    0.301030 0.077666 0.885324 -0.571123
H1    H     H_    0.075350 0.793106 0.389028 0.247637
H2    H     H_    0.206947 0.474293 0.221089 0.141572
H3    H     H_    0.223428 0.258298 0.083317 0.172759
H4    H     H_    0.804865 0.964736 0.172884 0.378564
H5    H     H_    0.071524 0.952747 0.093295 0.392842
H6    H     H_    0.508298 0.484101 0.270521 0.343747
H7    H     H_    0.096401 0.291519 0.330122 0.353777
H8    H     H_    0.886096 0.166317 0.920284 0.395160
H9    H     H_    0.563843 0.374702 0.811312 0.158173
H10   H     H_    0.617699 0.904925 0.104519 0.198181
H11   H     H_    0.567191 0.554557 0.834470 0.134130
H12   H     H_    0.649935 0.765861 0.899267 0.179461
H13   H     H_    0.821621 0.611186 0.444149 0.192084
H14   H     H_    0.846212 0.400930 0.362943 0.174971
H15   H     H_    0.248428 0.829997 0.660445 0.212116
H16   H     H_    0.296687 0.498157 0.661671 0.252677
N1    N     N_R   0.575030 0.246270 0.438190 -0.237596
N2    N     N_R   0.425760 0.754330 0.561190 -0.286706
O1    O     O_R   0.537510 0.972500 0.318130 -0.481735
O2    O     O_2   0.890036 0.198732 0.193824 -0.252548
O3    O     O_3   0.782484 0.026519 0.254224 -0.453259
O4    O     O_2   0.147857 0.826364 0.183266 -0.246277
O5    O     O_2   0.918017 0.797995 0.179981 -0.202042
O6    O     O_3   0.046131 0.997263 0.178781 -0.407164
O7    O     O_2   0.711339 0.738745 0.297611 -0.220382
O8    O     O_2   0.763696 0.534888 0.244287 -0.256427
O9    O     O_3   0.526273 0.562845 0.264561 -0.522658
O10   O     O_2   0.183479 0.302755 0.510833 -0.196749
O11   O     O_2   0.269560 0.145684 0.317509 -0.231655
O12   O     O_R   0.487140 0.806530 0.359650 -0.390464
O13   O     O_3   0.047571 0.227056 0.352650 -0.418291
O14   O     O_2   0.064715 0.002051 0.774978 -0.206545
O15   O     O_2   0.115096 0.209703 0.787464 -0.237488
O16   O     O_3   0.873976 0.137439 0.839705 -0.433664
O17   O     O_R   0.708330 0.082950 0.479220 -0.444526
O18   O     O_R   0.657960 0.916980 0.520740 -0.470339
O19   O     O_R   0.512860 0.193470 0.640350 -0.490294
O20   O     O_R   0.462490 0.027500 0.681870 -0.462470
O21   O     O_R   0.342040 0.083020 0.479260 -0.411691
O22   O     O_R   0.291670 0.917050 0.520780 -0.494898
O23   O     O_2   0.670648 0.120053 0.162744 -0.291883
S1    S     S_3+6 0.761867 0.151747 0.243544 0.082623
S2    S     S_3+6 0.025294 0.890060 0.227670 0.114725
S3    S     S_3+6 0.663045 0.625637 0.314627 0.054351
S4    S     S_3+6 0.149743 0.190399 0.407535 0.147654
S5    S     S_3+6 0.020297 0.098929 0.756342 0.141152

loop_
_geom_bond_atom_site_label_1
_geom_bond_atom_site_label_2
_ccdc_geom_bond_type
O23   S1    D    
C23   F5    S    
Cu2   O20   S    
C1    C11   S    
C7    C8    A    
C13   H14   S    
C12   C23   S    
O3    S1    S    
C37   C38   A    
C29   H1    S    
C23   C29   S    
C28   C29   S    
O9    S3    S    
C16   C35   S    
O2    S1    D    
C5    C6    A    
C20   C25   A    
C16   O20   A    
C18   C19   A    
C25   N1    A    
Cu2   O22   S    
C27   O21   A    
O13   S4    S    
C4    O17   A    
C23   C33   S    
C10   F6    S    
C36   C37   A    
C1    O1    A    
C10   C35   A    
C9    H9    S    
H5    O6    S    
H4    O3    S    
C37   H12   S    
O11   S4    D    
C21   C22   A    
C12   C32   S    
C27   C30   S    
Cu1   O1    S    
O5    S2    D    
C17   C18   A    
H8    O16   S    
Cu2   O18   S    
C8    F1    S    
Cu1   O17   S    
H6    O9    S    
Cu1   Cu2   S    
O14   S5    D    
C14   H15   S    
C16   O19   A    
C6    C34   A    
O10   S4    D    
O16   S5    S    
C27   O22   A    
H7    O13   S    
C26   N1    A    
C5    C9    A    
C29   C30   S    
C36   H10   S    
C17   H16   S    
C38   H11   S    
O8    S3    D    
C2    C38   A    
C31   C32   S    
C19   N2    A    
C14   N2    A    
O4    S2    D    
C32   F4    S    
C13   C21   A    
C10   C34   A    
O15   S5    D    
C28   S2    S    
C28   C33   S    
C3    C8    A    
C31   S4    S    
C22   C24   A    
C13   C26   A    
O6    S2    S    
Cu1   O21   S    
C22   H13   S    
C15   C17   A    
C4    C33   S    
C11   C36   A    
C34   H3    S    
C12   C30   S    
C1    O12   A    
C12   S5    S    
C28   C31   S    
C24   S3    S    
C25   F2    S    
C6    C7    A    
Cu1   N1    S    
Cu2   N2    S    
C7    H2    S    
C2    C3    A    
Cu1   O19   S    
C32   C33   S    
C30   C31   S    
O7    S3    D    
C19   C24   A    
C18   C20   A    
C3    C11   A    
C15   F3    S    
C2    C5    A    
Cu2   O12   S    
C4    O18   A    
C20   C21   A    
C26   S1    S    
C9    C35   A    
C14   C15   A    
