data_mof_unit_17285.cif
_audit_creation_date              2012-12-10T17:26:23-0500
_audit_creation_method            fapswitch 2.2
_symmetry_space_group_name_H-M    P1
_symmetry_Int_Tables_number       1
_space_group_crystal_system       triclinic
_cell_length_a                    10.09945
_cell_length_b                    10.760029
_cell_length_c                    27.711251
_cell_angle_alpha                 89.617152
_cell_angle_beta                  82.27015
_cell_angle_gamma                 95.159671
_cell_volume                      2971.39883541

loop_
_atom_site_label
_atom_site_type_symbol
_atom_type_description
_atom_site_fract_x
_atom_site_fract_y
_atom_site_fract_z
_atom_type_partial_charge
C1    C     C_R   0.556164 0.732842 0.498408 0.951559
C2    C     C_R   0.521335 0.627281 0.125154 -0.072592
C3    C     C_R   0.506136 0.495791 0.646414 -0.040148
C4    C     C_R   0.493857 0.504173 0.353583 -0.044110
C5    C     C_R   0.536628 0.614620 0.022121 0.004351
C6    C     C_R   0.463377 0.385270 0.977869 0.004351
C7    C     C_R   0.446544 0.394198 0.029398 0.060544
C8    C     C_R   0.553470 0.605690 0.970593 0.060548
C9    C     C_R   0.487621 0.508030 0.051229 0.071830
C10   C     C_R   0.512387 0.491861 0.948761 0.071823
C11   C     C_R   0.562210 0.728857 0.045319 -0.216195
C12   C     C_R   0.444068 0.267117 0.504910 0.950133
C13   C     C_R   0.437782 0.271037 0.954669 -0.216205
C14   C     C_R   0.557551 0.738034 0.096004 0.107456
C15   C     C_R   0.442437 0.261866 0.903984 0.107471
C16   C     C_R   0.501648 0.499315 0.593922 0.868374
C17   C     C_R   0.498351 0.500680 0.406079 0.877127
C18   C     C_R   0.614509 0.706071 0.939892 -0.228110
C19   C     C_R   0.385521 0.293812 0.060099 -0.228108
C20   C     C_2   0.588392 0.864935 0.503030 -0.370779
C21   C     C_2   0.412742 0.134875 0.513220 -0.367905
C22   C     C_2   0.489631 0.933328 0.520259 -0.142617
C23   C     C_R   0.520894 0.484957 0.897365 -0.068140
C24   C     C_2   0.513078 0.066230 0.518892 -0.140777
C25   C     C_2   0.927290 0.509911 0.503985 -0.131402
C26   C     C_2   0.072696 0.490057 0.496030 -0.128642
C27   C     C_R   0.571239 0.588619 0.818254 0.498644
C28   C     C_R   0.428770 0.411279 0.181737 0.498707
C29   C     C_R   0.476721 0.376831 0.823725 0.492839
C30   C     C_R   0.523251 0.623079 0.176265 0.492903
C31   C     C_R   0.632873 0.476765 0.713869 -0.105022
C32   C     C_R   0.367055 0.522890 0.286126 -0.104341
C33   C     C_R   0.628140 0.481601 0.664069 -0.214394
C34   C     C_R   0.479109 0.514939 0.102625 -0.068130
C35   C     C_R   0.371793 0.518075 0.335927 -0.213484
C36   C     C_R   0.389032 0.504944 0.679298 -0.212810
C37   C     C_R   0.611013 0.495275 0.320697 -0.212124
C38   C     C_R   0.394133 0.499901 0.729155 -0.106633
C39   C     C_R   0.605906 0.500294 0.270839 -0.106064
C40   C     C_R   0.516011 0.485888 0.746337 0.336111
C41   C     C_R   0.483970 0.514028 0.253657 0.335679
C42   C     C_3   0.588336 0.865277 0.118725 -0.320015
C43   C     C_3   0.609008 0.981105 0.084625 -0.454196
C44   C     C_3   0.635210 0.100244 0.112838 -0.811817
C45   C     C_R   0.571473 0.591610 0.868426 -0.009045
C46   C     C_3   0.411654 0.134626 0.881260 -0.320087
C47   C     C_3   0.391014 0.018791 0.915355 -0.454108
C48   C     C_3   0.364835 0.899654 0.887139 -0.811996
C49   C     C_R   0.428540 0.408285 0.131565 -0.009055
C50   C     C_R   0.621796 0.699365 0.889897 -0.159530
C51   C     C_R   0.378234 0.300522 0.110094 -0.159477
C52   C     C_R   0.478653 0.372620 0.874835 -0.072601
H1    H     H_    0.293832 0.515706 0.666576 0.163895
H2    H     H_    0.696227 0.492960 0.245502 0.136374
H3    H     H_    0.666677 0.780109 0.868071 0.189588
H4    H     H_    0.333363 0.219776 0.131920 0.189629
H5    H     H_    0.279959 0.525111 0.360499 0.162458
H6    H     H_    0.719930 0.474353 0.639497 0.162091
H7    H     H_    0.272744 0.533210 0.272662 0.135925
H8    H     H_    0.727139 0.466229 0.727334 0.135787
H9    H     H_    0.582566 0.813211 0.024008 0.136453
H10   H     H_    0.417413 0.186681 0.975978 0.136449
H11   H     H_    0.660299 0.791187 0.953053 0.139764
H12   H     H_    0.706262 0.484741 0.333418 0.164250
H13   H     H_    0.339745 0.208689 0.046940 0.139770
H14   H     H_    0.615947 0.107111 0.518079 0.189069
H15   H     H_    0.387461 0.892338 0.531351 0.188098
H16   H     H_    0.549758 0.111404 0.141701 0.278804
H17   H     H_    0.728356 0.097272 0.129881 0.263662
H18   H     H_    0.647570 0.182299 0.087580 0.255521
H19   H     H_    0.697113 0.973681 0.056408 0.229542
H20   H     H_    0.517886 0.989031 0.066712 0.227131
H21   H     H_    0.503016 0.880605 0.147194 0.240619
H22   H     H_    0.681486 0.862055 0.135788 0.244723
H23   H     H_    0.310208 0.093498 0.513879 0.152533
H24   H     H_    0.271688 0.902615 0.870095 0.263616
H25   H     H_    0.450292 0.888511 0.858276 0.278784
H26   H     H_    0.352488 0.817594 0.912395 0.255551
H27   H     H_    0.482143 0.010879 0.933267 0.227129
H28   H     H_    0.302910 0.026193 0.943575 0.229536
H29   H     H_    0.318493 0.137842 0.864203 0.244701
H30   H     H_    0.496965 0.119313 0.852785 0.240568
H31   H     H_    0.690207 0.906424 0.491823 0.153283
H32   H     H_    0.108806 0.422805 0.469540 0.163401
H33   H     H_    0.891170 0.577144 0.530482 0.163878
H34   H     H_    0.120056 0.614308 0.544895 0.162644
H35   H     H_    0.879958 0.385716 0.455098 0.164560
H36   H     H_    0.303856 0.507437 0.754494 0.136299
N1    N     N_R   0.521687 0.483547 0.797416 -0.349497
N2    N     N_R   0.478300 0.516360 0.202577 -0.349518
N3    N     N_2   0.842700 0.448890 0.480020 -0.196223
N4    N     N_2   0.157300 0.551110 0.519980 -0.195622
O1    O     O_R   0.431060 0.692470 0.504020 -0.609134
O2    O     O_2   0.382275 0.309142 0.209652 -0.568838
O3    O     O_2   0.570830 0.722773 0.199981 -0.586838
O4    O     O_2   0.429105 0.277152 0.800010 -0.586924
O5    O     O_R   0.568940 0.307530 0.495980 -0.609713
O6    O     O_R   0.651120 0.659650 0.491200 -0.610082
O7    O     O_R   0.348880 0.340350 0.508800 -0.610464
O8    O     O_R   0.389980 0.516390 0.577660 -0.616286
O9    O     O_R   0.610020 0.483610 0.422340 -0.612173
O10   O     O_R   0.610040 0.483570 0.564830 -0.622348
O11   O     O_R   0.389960 0.516430 0.435170 -0.618196
O12   O     O_2   0.617758 0.690749 0.790338 -0.568987
Zn1   Zn    Zn3+2 0.353060 0.521910 0.508560 0.947499
Zn2   Zn    Zn3+2 0.646940 0.478090 0.491440 0.947466

loop_
_geom_bond_atom_site_label_1
_geom_bond_atom_site_label_2
_ccdc_geom_bond_type
C48   H25   S    
C43   H20   S    
C23   C45   A    
H35   N3    S    
C34   C49   A    
C48   H24   S    
C47   H27   S    
C30   N2    A    
C29   N1    A    
C39   C41   A    
O8    Zn1   S    
C33   H6    S    
C3    C36   A    
C5    C11   A    
C11   C14   A    
C18   H11   S    
C39   H2    S    
C3    C33   A    
C26   N4    D    
C27   O12   S    
C31   C40   A    
C28   O2    S    
C51   H4    S    
C48   H26   S    
C17   O9    A    
C12   O7    A    
C36   H1    S    
O1    Zn1   S    
C46   H30   S    
C13   H10   S    
C49   C51   A    
C43   H19   S    
C32   C41   A    
C31   C33   A    
C44   H18   S    
C40   N1    S    
C24   H14   S    
C14   C42   S    
C2    C34   A    
C41   N2    S    
C4    C35   A    
N3    Zn2   S    
C47   H28   S    
O7    Zn1   S    
C42   H22   S    
C25   N3    D    
C32   C35   A    
C16   O8    A    
C25   C26   S    
C12   C21   S    
C8    C18   A    
C38   H36   S    
C31   H8    S    
C43   C44   S    
C5    C9    A    
C30   O3    S    
C5    C8    A    
C46   H29   S    
C28   C49   A    
C47   C48   S    
C25   H33   S    
C44   H17   S    
O11   Zn1   S    
C15   C52   A    
C12   O5    A    
C4    C17   S    
C16   O10   A    
C20   C22   D    
C27   N1    A    
C7    C19   A    
C13   C15   A    
C9    C34   A    
C22   C24   S    
C21   C24   D    
C44   H16   S    
C42   C43   S    
O5    Zn2   S    
C37   H12   S    
C18   C50   A    
O9    Zn2   S    
C7    C9    A    
C46   C47   S    
C1    C20   S    
C26   H32   S    
C8    C10   A    
C11   H9    S    
C1    O6    A    
C6    C10   A    
C29   O4    S    
C6    C7    A    
C10   C23   A    
C21   H23   S    
C19   H13   S    
C50   H3    S    
O6    Zn2   S    
C35   H5    S    
C2    C30   A    
C36   C38   A    
C17   O11   A    
C37   C39   A    
H34   N4    S    
C6    C13   A    
C38   C40   A    
C27   C45   A    
C23   C52   A    
C45   C50   A    
C32   H7    S    
C42   H21   S    
O10   Zn2   S    
C2    C14   A    
C22   H15   S    
C19   C51   A    
N4    Zn1   S    
C4    C37   A    
C1    O1    A    
C20   H31   S    
C28   N2    A    
C15   C46   S    
C3    C16   S    
C29   C52   A    
