data_mof_unit_35765.cif
_audit_creation_date              2012-12-10T17:54:25-0500
_audit_creation_method            fapswitch 2.2
_symmetry_space_group_name_H-M    P1
_symmetry_Int_Tables_number       1
_space_group_crystal_system       triclinic
_cell_length_a                    26.985674
_cell_length_b                    10.70377
_cell_length_c                    9.905354
_cell_angle_alpha                 90.993618
_cell_angle_beta                  91.759298
_cell_angle_gamma                 94.107369
_cell_volume                      2851.90435598

loop_
_atom_site_label
_atom_site_type_symbol
_atom_type_description
_atom_site_fract_x
_atom_site_fract_y
_atom_site_fract_z
_atom_type_partial_charge
C1    C     C_R   0.504823 0.261733 0.499896 0.899351
C2    C     C_R   0.965362 0.362897 0.316581 0.018218
C3    C     C_R   0.966388 0.579883 0.245191 0.016239
C4    C     C_R   0.405202 0.504824 0.497802 0.925470
C5    C     C_R   0.939946 0.469594 0.286871 0.060065
C6    C     C_R   0.939561 0.260346 0.376053 -0.211382
C7    C     C_R   0.888259 0.257804 0.398855 0.168241
C8    C     C_R   0.862110 0.363041 0.358835 -0.061088
C9    C     C_R   0.888243 0.467778 0.302149 -0.146528
C10   C     C_R   0.862186 0.570153 0.257945 -0.135210
C11   C     C_R   0.811687 0.570924 0.287559 0.550839
C12   C     C_R   0.282806 0.552939 0.324825 0.528929
C13   C     C_R   0.811089 0.373129 0.381053 0.507387
C14   C     C_R   0.727675 0.426614 0.551146 0.123050
C15   C     C_R   0.675500 0.414768 0.556865 0.487898
C16   C     C_R   0.497702 0.740041 0.502271 0.866420
C17   C     C_R   0.673128 0.620728 0.460621 -0.315606
C18   C     C_R   0.724862 0.628466 0.451159 0.220354
C19   C     C_R   0.749434 0.515850 0.461810 0.058792
C20   C     C_R   0.017213 0.366141 0.297988 0.072833
C21   C     C_R   0.044128 0.483682 0.292931 -0.020757
C22   C     C_R   0.018679 0.592810 0.267743 -0.107771
C23   C     C_R   0.248532 0.524128 0.424140 0.069382
C24   C     C_R   0.043384 0.256746 0.289274 0.079304
C25   C     C_R   0.097676 0.719051 0.291408 0.456095
C26   C     C_R   0.939503 0.673211 0.184952 -0.268761
C27   C     C_R   0.887711 0.669970 0.191608 0.532533
C28   C     C_R   0.594342 0.501302 0.501769 0.924985
C29   C     C_R   0.045807 0.711190 0.276467 0.399366
C30   C     C_R   0.544950 0.133656 0.738263 -0.138906
C31   C     C_R   0.544582 0.078424 0.864379 -0.123332
C32   C     C_R   0.520759 0.960433 0.878354 -0.161676
C33   C     C_R   0.501332 0.893569 0.764373 -0.172270
C34   C     C_R   0.096121 0.491859 0.317270 -0.169879
C35   C     C_R   0.506285 0.943380 0.632751 0.100618
C36   C     C_R   0.521719 0.070239 0.623504 0.061307
C37   C     C_R   0.511325 0.130296 0.500820 -0.143539
C38   C     C_R   0.498240 0.061977 0.382537 -0.217777
C39   C     C_R   0.492354 0.934457 0.386136 -0.203054
C40   C     C_R   0.172644 0.396451 0.375602 0.569071
C41   C     C_R   0.496350 0.873960 0.509380 -0.125671
C42   C     C_R   0.440256 0.304971 0.122790 0.521830
C43   C     C_R   0.424448 0.199132 0.040858 -0.310895
C44   C     C_R   0.423125 0.206616 0.901536 0.119103
C45   C     C_R   0.120900 0.381872 0.345588 -0.029818
C46   C     C_R   0.443410 0.315462 0.845781 -0.210872
C47   C     C_R   0.472035 0.407469 0.922071 0.071967
C48   C     C_R   0.471347 0.405473 0.066529 -0.059494
C49   C     C_R   0.527995 0.587550 0.076213 0.554557
C50   C     C_R   0.527005 0.588238 0.932136 -0.248062
C51   C     C_R   0.173391 0.618675 0.358282 0.618712
C52   C     C_R   0.264714 0.499776 0.557190 0.482115
C53   C     C_R   0.316131 0.495560 0.588951 0.028432
C54   C     C_R   0.333222 0.555483 0.357184 -0.356397
C55   C     C_3   0.212778 0.578418 0.708646 -0.326609
C56   C     C_R   0.093227 0.262564 0.337949 0.095589
C57   C     C_3   0.131263 0.869486 0.157190 -0.242487
C58   C     C_3   0.870015 0.874011 0.212653 -0.264834
C59   C     C_3   0.752582 0.757118 0.453990 -0.335203
C60   C     C_3   0.742246 0.832353 0.581411 -0.905130
C61   C     C_3   0.011939 0.845907 0.419810 -0.344171
C62   C     C_3   0.272005 0.480136 0.108261 -0.339134
C63   C     C_3   0.605769 0.679005 0.125824 -0.283248
C64   C     C_3   0.376703 0.251701 0.273635 -0.318559
C65   C     C_3   0.397672 0.106263 0.807625 -0.364722
C66   C     C_3   0.379785 0.983936 0.874181 -0.863477
C67   C     C_R   0.122739 0.610753 0.320063 -0.227526
C68   C     C_3   0.112674 0.143323 0.395607 -0.334625
C69   C     C_3   0.119878 0.153085 0.549388 -0.779825
C70   C     C_3   0.645721 0.213328 0.523198 -0.353530
C71   C     C_3   0.758910 0.359273 0.653107 -0.345339
C72   C     C_3   0.749917 0.402784 0.797547 -0.825013
C73   C     C_3   0.862305 0.148592 0.473303 -0.330785
C74   C     C_3   0.895608 0.054082 0.536606 -0.985017
C75   C     C_3   0.022405 0.144039 0.202578 -0.403290
C76   C     C_3   0.001411 0.182756 0.065531 -0.852044
C77   C     C_3   0.332126 0.459627 0.730235 -0.328161
C78   C     C_R   0.350871 0.520125 0.485314 -0.241404
C79   C     C_3   0.353213 0.573167 0.815116 -0.828434
C80   C     C_R   0.648252 0.510514 0.504244 -0.210286
H1    H     H_    0.358634 0.581139 0.278044 0.205059
H2    H     H_    0.408603 0.115474 0.086567 0.169785
H3    H     H_    0.435715 0.325396 0.741324 0.213976
H4    H     H_    0.548038 0.661230 0.879943 0.161571
H5    H     H_    0.960738 0.186726 0.414780 0.158250
H6    H     H_    0.243738 0.647814 0.741028 0.167537
H7    H     H_    0.191486 0.553617 0.799620 0.187993
H8    H     H_    0.187152 0.621717 0.636459 0.183330
H9    H     H_    0.095679 0.880021 0.100146 0.151453
H10   H     H_    0.153320 0.800153 0.105021 0.169491
H11   H     H_    0.153090 0.961278 0.157083 0.180698
H12   H     H_    0.958183 0.748760 0.130895 0.208091
H13   H     H_    0.859177 0.857287 0.318686 0.151333
H14   H     H_    0.846111 0.945229 0.171275 0.201638
H15   H     H_    0.909201 0.913678 0.209968 0.161371
H16   H     H_    0.702642 0.854059 0.582858 0.261989
H17   H     H_    0.751519 0.779064 0.672960 0.274033
H18   H     H_    0.765544 0.922294 0.583754 0.259049
H19   H     H_    0.793348 0.749273 0.454643 0.205757
H20   H     H_    0.741440 0.810246 0.363934 0.239664
H21   H     H_    0.046246 0.850634 0.485697 0.186454
H22   H     H_    0.983891 0.774690 0.457489 0.173626
H23   H     H_    0.652508 0.701892 0.439912 0.166541
H24   H     H_    0.996270 0.938371 0.427767 0.170237
H25   H     H_    0.251968 0.393025 0.144321 0.181530
H26   H     H_    0.311870 0.465062 0.094141 0.164135
H27   H     H_    0.255483 0.500860 0.007937 0.203000
H28   H     H_    0.614409 0.716899 0.024886 0.153367
H29   H     H_    0.618983 0.583253 0.136216 0.174073
H30   H     H_    0.626915 0.740765 0.201666 0.191861
H31   H     H_    0.378999 0.149499 0.287139 0.162280
H32   H     H_    0.349608 0.271483 0.191102 0.155292
H33   H     H_    0.362177 0.287398 0.368978 0.185616
H34   H     H_    0.491386 0.106855 0.287236 0.180609
H35   H     H_    0.411070 0.942689 0.928692 0.257768
H36   H     H_    0.349728 0.000463 0.945074 0.258869
H37   H     H_    0.364635 0.915503 0.795182 0.250971
H38   H     H_    0.365235 0.145416 0.756064 0.192438
H39   H     H_    0.423924 0.083205 0.728369 0.221004
H40   H     H_    0.134572 0.065545 0.587405 0.254060
H41   H     H_    0.146167 0.233012 0.581784 0.298561
H42   H     H_    0.083606 0.165129 0.596325 0.224908
H43   H     H_    0.085787 0.061223 0.377638 0.226030
H44   H     H_    0.146860 0.118027 0.345954 0.265045
H45   H     H_    0.563640 0.226006 0.731740 0.205825
H46   H     H_    0.630240 0.128598 0.574311 0.198820
H47   H     H_    0.681771 0.189852 0.481147 0.204611
H48   H     H_    0.619174 0.234611 0.439984 0.159419
H49   H     H_    0.757405 0.506020 0.807788 0.260829
H50   H     H_    0.711098 0.376901 0.825826 0.289944
H51   H     H_    0.775291 0.357372 0.868821 0.250803
H52   H     H_    0.750363 0.256374 0.643869 0.241857
H53   H     H_    0.799159 0.379760 0.637119 0.195252
H54   H     H_    0.872330 0.983168 0.591537 0.268542
H55   H     H_    0.923003 0.101689 0.609937 0.273098
H56   H     H_    0.561106 0.129167 0.951972 0.140692
H57   H     H_    0.915036 0.004172 0.457358 0.248556
H58   H     H_    0.841503 0.187130 0.557680 0.224802
H59   H     H_    0.835565 0.095912 0.402006 0.239222
H60   H     H_    0.967151 0.232759 0.077447 0.266469
H61   H     H_    0.029463 0.244024 0.013389 0.259100
H62   H     H_    0.991711 0.097908 0.001306 0.249305
H63   H     H_    0.052179 0.081615 0.178615 0.228903
H64   H     H_    0.993564 0.086159 0.254371 0.216024
H65   H     H_    0.380512 0.633130 0.759332 0.272206
H66   H     H_    0.322812 0.631286 0.845073 0.247096
H67   H     H_    0.517424 0.920271 0.977544 0.154658
H68   H     H_    0.371834 0.540750 0.908321 0.238466
H69   H     H_    0.300802 0.413842 0.785440 0.230947
H70   H     H_    0.359005 0.387285 0.723693 0.185816
H71   H     H_    0.480251 0.806810 0.783838 0.173110
H72   H     H_    0.483843 0.883400 0.291830 0.183359
N1    N     N_R   0.196608 0.513020 0.387099 -0.319960
N2    N     N_R   0.791958 0.488512 0.379448 -0.322137
N3    N     N_R   0.499540 0.498800 0.142780 -0.139060
N4    N     N_R   0.499520 0.498720 0.857170 -0.118223
O1    O     O_R   0.500000 0.316780 0.614690 -0.652822
O2    O     O_R   0.571250 0.499990 0.614680 -0.591630
O3    O     O_R   0.571240 0.499970 0.385350 -0.604310
O4    O     O_2   0.199691 0.296220 0.389474 -0.586317
O5    O     O_3   0.229972 0.467902 0.653054 -0.610982
O6    O     O_3   0.122874 0.836240 0.292184 -0.558711
O7    O     O_3   0.862309 0.763787 0.132361 -0.561272
O8    O     O_3   0.022243 0.821615 0.283311 -0.625068
O9    O     O_3   0.266520 0.582811 0.196359 -0.581415
O10   O     O_3   0.554680 0.681272 0.151158 -0.597420
O11   O     O_3   0.424522 0.311316 0.254019 -0.554267
O12   O     O_2   0.780466 0.269686 0.395858 -0.627733
O13   O     O_3   0.651624 0.313362 0.618352 -0.627271
O14   O     O_2   0.199481 0.730951 0.369644 -0.499063
O15   O     O_2   0.782533 0.648092 0.221265 -0.535829
O16   O     O_R   0.500000 0.316750 0.385360 -0.565881
O17   O     O_R   0.428760 0.500030 0.614650 -0.636240
O18   O     O_R   0.428750 0.500010 0.385320 -0.552050
O19   O     O_R   0.500000 0.683250 0.614640 -0.643302
O20   O     O_R   0.500000 0.683220 0.385310 -0.571118
Zn1   Zn    Zn3+2 0.500000 0.500020 0.653130 0.931373
Zn2   Zn    Zn3+2 0.500000 0.499980 0.346870 1.015183

loop_
_geom_bond_atom_site_label_1
_geom_bond_atom_site_label_2
_ccdc_geom_bond_type
C10   C27   A    
C70   H47   S    
C75   C76   S    
C11   O15   S    
C8    C13   A    
C75   H63   S    
C22   C29   A    
C61   O8    S    
C59   H19   S    
C14   C71   S    
C53   C77   S    
C35   C36   A    
C25   C67   A    
C15   C80   A    
C58   H15   S    
C68   H44   S    
C50   H4    S    
C7    C8    A    
C79   H65   S    
C62   H25   S    
C31   C32   A    
C52   C53   A    
C4    C78   S    
C12   C23   A    
C26   C27   A    
C42   C48   A    
C6    H5    S    
C66   H36   S    
C69   H42   S    
C36   C37   A    
C58   H13   S    
C64   O11   S    
C60   H18   S    
C30   C31   A    
C38   H34   S    
C64   H32   S    
C73   H58   S    
C26   H12   S    
C15   O13   S    
C18   C19   A    
C73   C74   S    
C55   H8    S    
C3    C26   A    
C11   N2    A    
C27   O7    S    
C71   H52   S    
C63   O10   S    
C57   O6    S    
C20   C24   A    
C45   C56   A    
C50   N4    A    
C8    C9    A    
C66   H37   S    
C65   H38   S    
C69   H41   S    
C9    C10   A    
O18   Zn2   S    
C75   H64   S    
N3    Zn2   S    
C1    C37   S    
C52   O5    S    
C76   H61   S    
C16   O20   A    
O20   Zn2   S    
C30   H45   S    
C59   C60   S    
C4    O18   A    
C21   C22   A    
C55   H7    S    
C59   H20   S    
C29   O8    S    
C44   C65   S    
C2    C6    A    
C28   C80   S    
C58   O7    S    
C68   H43   S    
C44   C46   A    
C79   H66   S    
C76   H60   S    
C25   C29   A    
C40   C45   A    
C74   H57   S    
C57   H10   S    
C2    C20   A    
C72   H49   S    
C61   H24   S    
C70   O13   S    
C55   O5    S    
O19   Zn1   S    
C60   H17   S    
C66   H35   S    
C77   H69   S    
C12   O9    S    
C32   H67   S    
C40   O4    S    
C68   C69   S    
C64   H31   S    
O1    Zn1   S    
C62   H27   S    
C73   H59   S    
C3    C5    A    
C56   C68   S    
C39   H72   S    
C17   C80   A    
C46   H3    S    
C63   H29   S    
C61   H21   S    
C43   C44   A    
C5    C9    A    
C37   C38   A    
N4    Zn1   S    
C47   C48   A    
O17   Zn1   S    
C25   O6    S    
C70   H48   S    
C74   H55   S    
C7    C73   S    
C28   O2    A    
C17   C18   A    
C65   H39   S    
C77   C79   S    
C34   C45   A    
C51   C67   A    
C6    C7    A    
C57   H9    S    
C62   H26   S    
C60   H16   S    
C16   O19   A    
O2    Zn1   S    
C48   N3    A    
C49   C50   A    
C4    O17   A    
C23   N1    S    
C33   H71   S    
C40   N1    A    
C2    C5    A    
C42   C43   A    
O3    Zn2   S    
C42   O11   S    
C72   H51   S    
O16   Zn2   S    
C19   N2    S    
C46   C47   A    
C51   N1    A    
C64   H33   S    
C57   H11   S    
C14   C19   A    
C49   N3    A    
C51   O14   S    
C31   H56   S    
C13   O12   S    
C77   H70   S    
C71   H53   S    
C24   C75   S    
C72   H50   S    
C79   H68   S    
C21   C34   A    
C24   C56   A    
C1    O16   A    
C30   C36   A    
C32   C33   A    
C63   H30   S    
C1    O1    A    
C53   C78   A    
C58   H14   S    
C49   O10   S    
C70   H46   S    
C23   C52   A    
C38   C39   A    
C69   H40   S    
C55   H6    S    
C74   H54   S    
C33   C35   A    
C61   H22   S    
C28   O3    A    
C17   H23   S    
C35   C41   A    
C13   N2    A    
C10   C11   A    
C34   C67   A    
C18   C59   S    
C71   C72   S    
C62   O9    S    
C20   C21   A    
C39   C41   A    
C65   C66   S    
C47   N4    A    
C43   H2    S    
C14   C15   A    
C3    C22   A    
C63   H28   S    
C16   C41   S    
C54   H1    S    
C12   C54   A    
C54   C78   A    
C76   H62   S    
