data_mof_unit_24513.cif
_audit_creation_date              2012-12-10T18:58:47-0500
_audit_creation_method            fapswitch 2.2
_symmetry_space_group_name_H-M    P1
_symmetry_Int_Tables_number       1
_space_group_crystal_system       triclinic
_cell_length_a                    13.008399
_cell_length_b                    10.823318
_cell_length_c                    9.576296
_cell_angle_alpha                 90.648471
_cell_angle_beta                  96.468434
_cell_angle_gamma                 90.975521
_cell_volume                      1339.38925108

loop_
_atom_site_label
_atom_site_type_symbol
_atom_type_description
_atom_site_fract_x
_atom_site_fract_y
_atom_site_fract_z
_atom_type_partial_charge
C1    C     C_R   0.498448 0.262444 0.499266 0.797218
C2    C     C_R   0.029089 0.521921 0.568858 0.141810
C3    C     C_R   0.972273 0.494991 0.436467 0.143444
C4    C     C_R   0.865120 0.485192 0.425024 -0.261662
C5    C     C_R   0.868085 0.531279 0.673210 -0.298443
C6    C     C_R   0.975731 0.543477 0.688004 -0.004312
C7    C     C_R   0.502364 0.065486 0.624833 0.063323
C8    C     C_R   0.489663 0.129132 0.498312 -0.091496
C9    C     C_R   0.464601 0.062141 0.372182 -0.212062
C10   C     C_R   0.463967 0.933211 0.372798 -0.205903
C11   C     C_R   0.489232 0.870342 0.499491 -0.096330
C12   C     C_R   0.300597 0.500243 0.473499 0.800348
C13   C     C_R   0.503080 0.938063 0.625060 0.043266
C14   C     C_3   0.588479 0.937229 0.744332 0.286079
C15   C     C_3   0.586314 0.078486 0.744971 -0.532359
C16   C     C_R   0.549646 0.592304 0.082558 0.250397
C17   C     C_R   0.441171 0.415833 0.062054 0.063926
C18   C     C_R   0.442456 0.416866 0.913641 -0.037892
C19   C     C_R   0.550147 0.591773 0.935496 0.256448
C20   C     C_3   0.663053 0.621676 0.949056 -0.501950
C21   C     C_3   0.661878 0.624907 0.106924 -0.504876
C22   C     C_R   0.498369 0.737469 0.500208 0.832190
C23   C     C_R   0.699499 0.499739 0.526592 0.808649
C24   C     C_R   0.812585 0.503524 0.542611 -0.060501
C25   C     C_R   0.187743 0.501448 0.458567 -0.076218
C26   C     C_R   0.023156 0.476547 0.316709 -0.191863
C27   C     C_R   0.130468 0.480970 0.327442 -0.175077
C28   C     C_R   0.137047 0.521436 0.578206 -0.205266
Cu1   Cu    Cu3+1 0.499990 0.499980 0.640670 0.960986
Cu2   Cu    Cu3+1 0.500010 0.500020 0.359330 0.932572
H1    H     H_    0.822836 0.461520 0.324226 0.145064
H2    H     H_    0.556298 0.117273 0.840122 0.194652
H3    H     H_    0.656306 0.127740 0.716350 0.181797
H4    H     H_    0.397241 0.349814 0.846901 0.187446
H5    H     H_    0.708343 0.543615 0.913984 0.205176
H6    H     H_    0.680571 0.713009 0.905284 0.239457
H7    H     H_    0.708653 0.550769 0.159603 0.215212
H8    H     H_    0.676141 0.718771 0.154257 0.201819
H9    H     H_    0.827295 0.548940 0.763219 0.151928
H10   H     H_    0.979908 0.457670 0.214981 0.132688
H11   H     H_    0.168490 0.465469 0.233961 0.161160
H12   H     H_    0.182790 0.533378 0.678745 0.207392
H13   H     H_    0.449730 0.108680 0.272834 0.192670
H14   H     H_    0.448202 0.883419 0.273739 0.176546
H15   H     H_    0.560525 0.897899 0.840257 0.113541
N1    N     N_R   0.500660 0.500930 0.148010 -0.230968
N2    N     N_R   0.500660 0.500890 0.852110 -0.213862
O1    O     O_R   0.500000 0.319640 0.618810 -0.575790
O2    O     O_R   0.500010 0.319680 0.381230 -0.612962
O3    O     O_R   0.348990 0.499960 0.599490 -0.584151
O4    O     O_R   0.349000 0.500000 0.361910 -0.612886
O5    O     O_R   0.499990 0.680320 0.618770 -0.562353
O6    O     O_R   0.500000 0.680360 0.381190 -0.589998
O7    O     O_R   0.651000 0.500000 0.638090 -0.577129
O8    O     O_R   0.651010 0.500040 0.400510 -0.589256
O9    O     O_3   0.680943 0.878386 0.713460 -0.607348
C29   C     C_3   0.732974 0.934137 0.607278 0.068875
H16   H     H_    0.790471 0.003160 0.656809 0.156208
H17   H     H_    0.680393 0.980595 0.525613 0.152454
C30   C     C_3   0.790193 0.834137 0.534883 -0.326168
H18   H     H_    0.846834 0.790078 0.613653 0.242116
H19   H     H_    0.733613 0.762506 0.489309 0.215019
C31   C     C_3   0.847318 0.886807 0.417635 -0.898597
H20   H     H_    0.791721 0.928435 0.335604 0.250831
H21   H     H_    0.888288 0.811395 0.368547 0.268110
H22   H     H_    0.905111 0.958165 0.460516 0.263642
C32   C     C_2   0.373925 0.320565 0.117972 0.323546
H23   H     H_    0.349745 0.327191 0.221062 0.140744
O10   O     O_2   0.342038 0.231056 0.045965 -0.587154
C33   C     C_2   0.026384 0.582174 0.828864 0.330031
H24   H     H_    0.991684 0.555161 0.922138 0.069044
O11   O     O_2   0.102393 0.650764 0.842527 -0.542986

loop_
_geom_bond_atom_site_label_1
_geom_bond_atom_site_label_2
_ccdc_geom_bond_type
C12   O3    A    
C23   C24   S    
C31   H21   S    
C1    O1    A    
C23   O8    A    
C33   H24   S    
C28   H12   S    
C14   H15   S    
C1    C8    S    
C11   C13   A    
C9    C10   A    
C27   H11   S    
C11   C22   S    
C14   O9    S    
C19   C20   S    
C10   H14   S    
C12   C25   S    
Cu2   O4    S    
C18   N2    A    
C20   C21   S    
C7    C15   S    
C2    C3    A    
C29   H16   S    
C31   H22   S    
C7    C8    A    
C31   H20   S    
C13   C14   S    
O9    C29   S    
C25   C28   A    
C18   H4    S    
C26   H10   S    
C26   C27   A    
C2    C6    A    
C5    C24   A    
Cu1   N2    S    
C30   C31   S    
C22   O5    A    
Cu2   O2    S    
C15   H3    S    
C17   C18   A    
C22   O6    A    
Cu1   O3    S    
C5    H9    S    
C16   C19   A    
C5    C6    A    
C4    C24   A    
Cu2   O6    S    
C19   N2    A    
Cu1   O5    S    
C9    H13   S    
C4    H1    S    
C29   H17   S    
Cu1   O7    S    
C17   C32   S    
Cu1   Cu2   S    
C32   H23   S    
C20   H6    S    
C7    C13   A    
C12   O4    A    
C21   H7    S    
C17   N1    A    
C23   O7    A    
C30   H19   S    
C10   C11   A    
C16   N1    A    
C6    C33   S    
C16   C21   S    
C14   C15   S    
C8    C9    A    
C29   C30   S    
C2    C28   A    
Cu1   O1    S    
C33   O11   D    
C20   H5    S    
C1    O2    A    
Cu2   O8    S    
Cu2   N1    S    
C3    C26   A    
C21   H8    S    
C3    C4    A    
C30   H18   S    
C32   O10   D    
C25   C27   A    
C15   H2    S    
