data_mof_unit_38706.cif
_audit_creation_date              2012-10-26T20:22:23-0400
_audit_creation_method            fapswitch 2.2
_symmetry_space_group_name_H-M    P1
_symmetry_Int_Tables_number       1
_space_group_crystal_system       triclinic
_cell_length_a                    9.498636
_cell_length_b                    10.833987
_cell_length_c                    17.372567
_cell_angle_alpha                 90.166217
_cell_angle_beta                  84.692051
_cell_angle_gamma                 90.021428
_cell_volume                      1780.10412536

loop_
_atom_site_label
_atom_site_type_symbol
_atom_type_description
_atom_site_fract_x
_atom_site_fract_y
_atom_site_fract_z
_atom_type_partial_charge
C1    C     C_R   0.500036 0.737984 0.500092 0.545895
C2    C     C_R   0.080467 0.408061 0.463806 0.008803
C3    C     C_R   0.068454 0.592118 0.535911 0.015509
C4    C     C_R   0.931545 0.407882 0.464089 0.015510
C5    C     C_R   0.479820 0.500061 0.650360 0.557068
C6    C     C_R   0.520180 0.499939 0.349640 0.557068
C7    C     C_R   0.466543 0.495197 0.735515 0.002819
C8    C     C_R   0.533457 0.504804 0.264485 0.002819
C9    C     C_R   0.591050 0.484124 0.772469 -0.181425
C10   C     C_R   0.408951 0.515881 0.227531 -0.181425
C11   C     C_R   0.585797 0.473257 0.851867 -0.159459
C12   C     C_R   0.499964 0.262016 0.499908 0.545895
C13   C     C_R   0.414204 0.526749 0.148133 -0.159460
C14   C     C_R   0.455882 0.473283 0.896845 0.024297
C15   C     C_R   0.544119 0.526720 0.103155 0.024297
C16   C     C_R   0.328808 0.481976 0.861283 0.160712
C17   C     C_R   0.671193 0.518022 0.138717 0.160712
C18   C     C_R   0.333670 0.495665 0.780411 0.159216
C19   C     C_R   0.666330 0.504332 0.219589 0.159217
C20   C     C_2   0.453859 0.467474 0.981211 -0.131258
C21   C     C_2   0.546142 0.532529 0.018789 -0.131259
C22   C     C_3   0.838125 0.365331 0.265574 -0.285503
C23   C     C_R   0.628187 0.936207 0.498506 -0.140985
C24   C     C_3   0.161867 0.634659 0.734427 -0.285502
C25   C     C_3   0.152272 0.591812 0.946366 -0.311001
C26   C     C_3   0.847724 0.408182 0.053634 -0.311000
C27   C     C_R   0.371813 0.063793 0.501494 -0.140985
C28   C     C_R   0.628174 0.063903 0.498363 -0.143466
C29   C     C_R   0.371825 0.936096 0.501637 -0.143465
C30   C     C_R   0.499982 0.128198 0.499889 0.020698
C31   C     C_R   0.500018 0.871802 0.500111 0.020698
C32   C     C_R   0.919533 0.591939 0.536194 0.008802
Cu1   Cu    Cu3+1 0.359340 0.499980 0.500000 0.943427
Cu2   Cu    Cu3+1 0.640660 0.500020 0.500000 0.943427
H1    H     H_    0.693994 0.482604 0.739944 0.142457
H2    H     H_    0.271614 0.888014 0.502976 0.120568
H3    H     H_    0.858668 0.665375 0.565465 0.102269
H4    H     H_    0.141332 0.334625 0.434535 0.102270
H5    H     H_    0.119769 0.666165 0.564386 0.099053
H6    H     H_    0.880231 0.333834 0.435614 0.099054
H7    H     H_    0.876484 0.546107 0.231185 0.264617
H8    H     H_    0.859863 0.318570 0.208829 0.135576
H9    H     H_    0.754781 0.313663 0.301208 0.153120
H10   H     H_    0.936528 0.363991 0.295368 0.119550
H11   H     H_    0.123518 0.453881 0.768815 0.264617
H12   H     H_    0.306006 0.517404 0.260056 0.142457
H13   H     H_    0.140125 0.681418 0.791172 0.135576
H14   H     H_    0.063465 0.635995 0.704631 0.119550
H15   H     H_    0.245210 0.686331 0.698793 0.153119
H16   H     H_    0.177163 0.400318 0.938938 0.234304
H17   H     H_    0.038492 0.608349 0.940482 0.141812
H18   H     H_    0.213455 0.672810 0.922476 0.148965
H19   H     H_    0.167398 0.583386 0.008764 0.132660
H20   H     H_    0.822840 0.599676 0.061062 0.234304
H21   H     H_    0.961504 0.391642 0.059517 0.141812
H22   H     H_    0.832596 0.416608 0.991237 0.132661
H23   H     H_    0.626827 0.588063 0.986931 0.121301
H24   H     H_    0.786540 0.327185 0.077525 0.148965
H25   H     H_    0.373175 0.411940 0.013069 0.121302
H26   H     H_    0.315794 0.536527 0.121844 0.114015
H27   H     H_    0.684207 0.463482 0.878155 0.114014
H28   H     H_    0.728401 0.888208 0.497284 0.122908
H29   H     H_    0.271599 0.111791 0.502716 0.122908
H30   H     H_    0.728385 0.111986 0.497024 0.120568
N1    N     N_R   0.147930 0.499970 0.499980 -0.219124
N2    N     N_R   0.852070 0.500030 0.500020 -0.219124
N3    N     N_2   0.794805 0.491786 0.255227 -0.476081
N4    N     N_2   0.205194 0.508206 0.744772 -0.476080
N5    N     N_2   0.195411 0.478807 0.906098 -0.534752
N6    N     N_2   0.804590 0.521188 0.093902 -0.534752
O1    O     O_R   0.381260 0.680340 0.500000 -0.517696
O2    O     O_R   0.618740 0.319660 0.500000 -0.517697
O3    O     O_R   0.618830 0.680370 0.500010 -0.513152
O4    O     O_R   0.381170 0.319630 0.499990 -0.513152
O5    O     O_R   0.367440 0.500000 0.613600 -0.462648
O6    O     O_R   0.632560 0.500000 0.386400 -0.462648
O7    O     O_R   0.605010 0.500030 0.613600 -0.515071
O8    O     O_R   0.394990 0.499970 0.386400 -0.515071

loop_
_geom_bond_atom_site_label_1
_geom_bond_atom_site_label_2
_ccdc_geom_bond_type
C12   O4    A    
C27   C29   A    
C2    N1    A    
C26   H21   S    
Cu2   N2    S    
Cu1   N1    S    
H7    N3    S    
C13   H26   S    
C29   H2    S    
C1    O1    A    
H16   N5    S    
C25   H19   S    
Cu2   O7    S    
C11   C14   A    
Cu1   O8    S    
C6    O8    A    
C18   N4    S    
C1    C31   S    
C15   C17   A    
Cu1   O5    S    
C23   H28   S    
C22   H10   S    
C4    H6    S    
C10   H12   S    
C19   N3    S    
C12   O2    A    
C3    H5    S    
C17   N6    S    
C27   C30   A    
C3    N1    A    
C8    C19   A    
C24   H14   S    
C14   C20   S    
C5    C7    S    
Cu1   O1    S    
C6    C8    S    
C23   C28   A    
C23   C31   A    
C5    O5    A    
C2    C4    A    
C25   H17   S    
C21   H23   S    
C9    C11   A    
C2    H4    S    
C22   H9    S    
H20   N6    S    
C7    C18   A    
H11   N4    S    
Cu1   Cu2   S    
C32   H3    S    
C20   H25   S    
C26   H24   S    
C27   H29   S    
C28   H30   S    
C8    C10   A    
C13   C15   A    
C26   N6    S    
C14   C16   A    
C25   N5    S    
C5    O7    A    
Cu2   O2    S    
C32   N2    A    
C24   H15   S    
C7    C9    A    
C12   C30   S    
C24   H13   S    
C16   N5    S    
C11   H27   S    
C10   C13   A    
C26   H22   S    
C6    O6    A    
C1    O3    A    
C28   C30   A    
C25   H18   S    
C29   C31   A    
C4    N2    A    
C22   H8    S    
C17   C19   A    
C3    C32   A    
C22   N3    S    
C24   N4    S    
Cu2   O3    S    
Cu1   O4    S    
C15   C21   S    
C20   C21   D    
C16   C18   A    
C9    H1    S    
Cu2   O6    S    
