data_mof_unit_57791.cif
_audit_creation_date              2012-12-11T17:04:49-0500
_audit_creation_method            fapswitch 2.2
_symmetry_space_group_name_H-M    P1
_symmetry_Int_Tables_number       1
_space_group_crystal_system       triclinic
_cell_length_a                    17.462563
_cell_length_b                    24.4332
_cell_length_c                    14.888256
_cell_angle_alpha                 89.903943
_cell_angle_beta                  125.874369
_cell_angle_gamma                 90.263851
_cell_volume                      5147.24839021

loop_
_atom_site_label
_atom_site_type_symbol
_atom_type_description
_atom_site_fract_x
_atom_site_fract_y
_atom_site_fract_z
_atom_type_partial_charge
Br1   Br    Br    0.822811 0.683192 0.776602 -0.672856
Br2   Br    Br    0.184391 0.678217 0.237593 -0.644935
Br3   Br    Br    0.332286 0.184146 0.780946 -0.633212
Br4   Br    Br    0.683391 0.185670 0.218147 -0.609824
Br5   Br    Br    0.516330 0.390843 0.601018 -0.526107
Br6   Br    Br    0.482626 0.389704 0.323110 -0.517622
Br7   Br    Br    0.023142 0.893853 0.599096 -0.570725
Br8   Br    Br    0.978492 0.887916 0.315755 -0.536008
C1    C     C_R   0.841687 0.648968 0.904058 0.276589
C2    C     C_R   0.936055 0.501344 0.631851 0.060933
C3    C     C_R   0.769338 0.046090 0.248210 -0.133926
C4    C     C_R   0.852515 0.349007 0.909117 -0.088860
C5    C     C_R   0.149166 0.349503 0.089469 -0.103022
C6    C     C_R   0.319837 0.865969 0.906188 -0.118667
C7    C     C_R   0.648275 0.849299 0.089734 -0.102382
C8    C     C_R   0.931710 0.649551 0.088424 -0.156777
C9    C     C_R   0.056529 0.652643 0.909282 -0.131588
C10   C     C_R   0.433616 0.150120 0.088692 -0.140738
C11   C     C_R   0.577246 0.143948 0.908721 -0.101136
C12   C     C_R   0.857957 0.676491 0.995090 0.034061
C13   C     C_R   0.460414 0.002407 0.286235 0.056172
C14   C     C_R   0.111915 0.685998 0.001166 -0.012868
C15   C     C_R   0.361489 0.177804 0.995577 0.049518
C16   C     C_R   0.653355 0.170313 0.001884 0.026492
C17   C     C_R   0.434702 0.002235 0.631806 0.065474
C18   C     C_R   0.677542 0.499399 0.664278 0.089132
C19   C     C_R   0.324184 0.499910 0.274327 0.076516
C20   C     C_R   0.182499 0.000176 0.652023 0.090843
C21   C     C_R   0.823656 0.000051 0.272042 0.078840
C22   C     C_3   0.511338 0.454623 0.520036 0.305678
C23   C     C_3   0.494781 0.453988 0.406779 0.313839
C24   C     C_3   0.016140 0.956243 0.513776 0.311486
C25   C     C_R   0.143294 0.653814 0.093393 0.282455
C26   C     C_3   0.994600 0.953639 0.398083 0.316427
C27   C     C_3   0.438012 0.500091 0.481324 -0.223708
C28   C     C_3   0.572029 0.498246 0.446317 -0.231069
C29   C     C_3   0.944179 0.002229 0.476903 -0.222792
C30   C     C_3   0.071795 0.997220 0.431771 -0.229950
C31   C     C_3   0.422130 0.499485 0.368018 0.029622
C32   C     C_3   0.586629 0.498767 0.558640 0.020204
C33   C     C_3   0.923057 0.999653 0.361042 0.033617
C34   C     C_3   0.091394 0.999707 0.546601 0.025393
C35   C     C_3   0.497273 0.544076 0.406072 -0.146951
C36   C     C_R   0.344379 0.149895 0.904499 0.272703
C37   C     C_3   0.514119 0.544550 0.520304 -0.145616
C38   C     C_3   0.997979 0.043601 0.393079 -0.153412
C39   C     C_3   0.019952 0.046010 0.509845 -0.154365
C40   C     C_R   0.886359 0.234805 0.100809 0.169010
C41   C     C_R   0.132396 0.246063 0.891962 0.159634
C42   C     C_R   0.274692 0.798481 0.097041 0.121866
C43   C     C_R   0.627675 0.743166 0.893664 0.164784
C44   C     C_R   0.860903 0.260079 0.002269 0.022938
C45   C     C_R   0.151129 0.265364 0.991568 0.029340
C46   C     C_R   0.258572 0.812633 0.996666 0.032806
C47   C     C_R   0.663633 0.147141 0.094117 0.266861
C48   C     C_R   0.648574 0.764151 0.993230 0.028691
C49   C     C_R   0.784946 0.237336 0.902059 -0.186945
C50   C     C_R   0.224141 0.240682 0.090816 -0.181748
C51   C     C_R   0.171778 0.798939 0.897087 -0.175439
C52   C     C_R   0.723253 0.740503 0.092809 -0.180884
C53   C     C_R   0.949954 0.348060 0.092660 -0.162018
C54   C     C_R   0.053352 0.349745 0.905413 -0.147125
C55   C     C_R   0.415053 0.862321 0.091302 -0.136571
C56   C     C_R   0.552366 0.849324 0.905814 -0.141585
C57   C     C_R   0.107905 0.765885 0.898993 -0.159231
C58   C     C_R   0.886990 0.316566 0.001492 0.087164
C59   C     C_R   0.791366 0.710735 0.093629 -0.157672
C60   C     C_R   0.717940 0.206216 0.901852 -0.158501
C61   C     C_R   0.292676 0.210939 0.092450 -0.153323
C62   C     C_R   0.132804 0.743778 0.999935 0.062613
C63   C     C_R   0.782537 0.702577 0.994144 0.042737
C64   C     C_R   0.729925 0.195192 0.002437 0.039997
C65   C     C_R   0.286003 0.204090 0.993974 0.036804
C66   C     C_R   0.210686 0.765448 0.098938 0.184618
C67   C     C_R   0.694198 0.712700 0.894551 0.130530
C68   C     C_R   0.820616 0.203113 0.100475 0.127369
C69   C     C_R   0.118117 0.318804 0.995797 0.086374
C70   C     C_R   0.199290 0.215691 0.893609 0.124694
C71   C     C_3   0.207866 0.805884 0.173028 -0.348605
C72   C     C_3   0.667556 0.736358 0.787395 -0.389211
C73   C     C_3   0.854648 0.221515 0.213663 -0.413652
C74   C     C_3   0.176779 0.241188 0.789640 -0.384570
C75   C     C_3   0.927178 0.255677 0.215376 -0.562889
C76   C     C_3   0.103874 0.274719 0.787348 -0.564198
C77   C     C_3   0.282373 0.838598 0.176650 -0.569864
C78   C     C_3   0.594958 0.769752 0.785791 -0.570910
C79   C     C_R   0.893174 0.551909 0.463688 0.155971
C80   C     C_R   0.328698 0.844981 0.997687 0.075954
C81   C     C_R   0.897462 0.552018 0.374122 0.150761
C82   C     C_R   0.396071 0.054205 0.467156 0.154363
C83   C     C_R   0.403876 0.054237 0.380274 0.147136
C84   C     C_R   0.898149 0.502552 0.514566 0.023737
C85   C     C_R   0.905652 0.502613 0.332471 0.032852
C86   C     C_R   0.397084 0.004595 0.515216 0.026173
C87   C     C_R   0.413065 0.004664 0.340370 0.037344
C88   C     C_R   0.880052 0.453751 0.454756 -0.175214
C89   C     C_R   0.883476 0.453834 0.363149 -0.169774
C90   C     C_R   0.378738 0.956168 0.454922 -0.177785
C91   C     C_R   0.616602 0.818214 0.996409 0.086505
C92   C     C_R   0.387703 0.956267 0.367879 -0.187986
C93   C     C_3   0.956268 0.603277 0.413553 -0.495608
C94   C     C_3   0.950785 0.603191 0.510714 -0.495531
C95   C     C_3   0.464737 0.104573 0.422359 -0.493434
C96   C     C_3   0.456247 0.104545 0.517297 -0.497165
C97   C     C_R   0.980398 0.546373 0.247514 -0.111963
C98   C     C_R   0.950708 0.546578 0.695905 -0.126796
C99   C     C_R   0.484629 0.047285 0.251861 -0.119960
C100  C     C_R   0.449992 0.047042 0.696231 -0.141716
C101  C     C_R   0.733245 0.453921 0.713477 -0.087395
C102  C     C_R   0.952502 0.500935 0.277229 0.054793
C103  C     C_R   0.267826 0.454447 0.248519 -0.097772
C104  C     C_R   0.236527 0.954665 0.704474 -0.099371
C105  C     C_R   0.767662 0.954529 0.247259 -0.094939
C106  C     C_R   0.983252 0.454814 0.251928 -0.109721
C107  C     C_R   0.951919 0.455388 0.695253 -0.116851
C108  C     C_R   0.491273 0.956023 0.261997 -0.115679
C109  C     C_R   0.450892 0.955849 0.694542 -0.117878
C110  C     C_R   0.731506 0.545935 0.712632 -0.129577
C111  C     C_R   0.269321 0.546013 0.247888 -0.110547
C112  C     C_R   0.234448 0.046359 0.706271 -0.129225
H1    H     H_    0.489475 0.580438 0.356591 0.140373
H2    H     H_    0.853292 0.698118 0.173125 0.128689
H3    H     H_    0.654033 0.195647 0.822238 0.136028
H4    H     H_    0.353261 0.197184 0.171958 0.126562
H5    H     H_    0.234095 0.789164 0.255705 0.231916
H6    H     H_    0.635304 0.705524 0.719566 0.214779
H7    H     H_    0.885834 0.187782 0.275451 0.201621
H8    H     H_    0.144809 0.211565 0.719743 0.211922
H9    H     H_    0.138901 0.827392 0.130535 0.206361
H10   H     H_    0.723803 0.762823 0.796806 0.242620
H11   H     H_    0.804007 0.248697 0.213676 0.250020
H12   H     H_    0.523422 0.581405 0.569372 0.140118
H13   H     H_    0.235325 0.267054 0.803351 0.243231
H14   H     H_    0.000717 0.241354 0.277070 0.207369
H15   H     H_    0.030329 0.264504 0.716301 0.203878
H16   H     H_    0.352740 0.835553 0.257571 0.191647
H17   H     H_    0.521188 0.758148 0.717487 0.207244
H18   H     H_    0.915019 0.299730 0.220824 0.204412
H19   H     H_    0.122338 0.318975 0.797868 0.217145
H20   H     H_    0.259334 0.880554 0.141947 0.218635
H21   H     H_    0.611719 0.814111 0.791748 0.214292
H22   H     H_    0.875263 0.414752 0.485588 0.136999
H23   H     H_    0.988198 0.079162 0.340838 0.132628
H24   H     H_    0.881251 0.414950 0.327036 0.134014
H25   H     H_    0.371278 0.917188 0.483592 0.134720
H26   H     H_    0.387888 0.917631 0.333935 0.129217
H27   H     H_    0.918470 0.638367 0.356606 0.195233
H28   H     H_    0.020937 0.596822 0.590901 0.203764
H29   H     H_    0.429192 0.140127 0.365968 0.195253
H30   H     H_    0.525146 0.097030 0.598359 0.200151
H31   H     H_    0.003951 0.333742 0.175119 0.108871
H32   H     H_    0.003339 0.336117 0.820979 0.105461
H33   H     H_    0.448401 0.848117 0.174933 0.102206
H34   H     H_    0.031506 0.083738 0.557848 0.137846
H35   H     H_    0.501370 0.835568 0.821735 0.107534
H36   H     H_    0.029745 0.596852 0.439842 0.209881
H37   H     H_    0.909199 0.637965 0.509198 0.206143
H38   H     H_    0.538367 0.096983 0.450131 0.208002
H39   H     H_    0.415813 0.140068 0.515516 0.208430
H40   H     H_    0.965309 0.588357 0.251446 0.105228
H41   H     H_    0.929406 0.588154 0.667804 0.124066
H42   H     H_    0.470330 0.089461 0.256026 0.103746
H43   H     H_    0.428089 0.088615 0.668566 0.129519
H44   H     H_    0.716337 0.411913 0.685518 0.142664
H45   H     H_    0.767922 0.250538 0.822961 0.140327
H46   H     H_    0.289934 0.412286 0.267835 0.151530
H47   H     H_    0.221644 0.913257 0.672966 0.136287
H48   H     H_    0.789738 0.912333 0.265088 0.152688
H49   H     H_    0.972988 0.412356 0.262841 0.098299
H50   H     H_    0.934833 0.413434 0.667108 0.092998
H51   H     H_    0.489610 0.914689 0.285459 0.093242
H52   H     H_    0.433545 0.914002 0.665724 0.092441
H53   H     H_    0.711596 0.587443 0.683312 0.154931
H54   H     H_    0.293705 0.587886 0.264697 0.153640
H55   H     H_    0.216520 0.088149 0.677916 0.149165
H56   H     H_    0.236510 0.250426 0.169176 0.136685
H57   H     H_    0.794173 0.087881 0.267470 0.142246
H58   H     H_    0.811277 0.336110 0.823487 0.096216
H59   H     H_    0.191185 0.335688 0.174483 0.098710
H60   H     H_    0.264496 0.858578 0.819924 0.118799
H61   H     H_    0.689792 0.835640 0.174840 0.100435
H62   H     H_    0.971128 0.663607 0.173225 0.149559
H63   H     H_    0.012515 0.665001 0.823410 0.149419
H64   H     H_    0.473495 0.164141 0.173561 0.145828
H65   H     H_    0.544946 0.152251 0.822264 0.126626
H66   H     H_    0.381462 0.500825 0.494208 0.168110
H67   H     H_    0.153886 0.811858 0.817504 0.172742
H68   H     H_    0.629771 0.497283 0.435534 0.161368
H69   H     H_    0.890479 0.004238 0.494328 0.166806
H70   H     H_    0.126955 0.995013 0.416792 0.159070
H71   H     H_    0.737395 0.751276 0.171658 0.138820
H72   H     H_    0.045180 0.752522 0.820569 0.161482
N1    N     N_R   0.892620 0.603790 0.941770 -0.063970
N2    N     N_R   0.973690 0.529110 0.793240 -0.038062
N3    N     N_R   0.526310 0.029110 0.206760 -0.036908
N4    N     N_R   0.473690 0.029110 0.793240 -0.039331
N5    N     N_R   0.818570 0.472310 0.793020 -0.055416
N6    N     N_R   0.181430 0.472310 0.206980 -0.056702
N7    N     N_R   0.318570 0.972310 0.793020 -0.052532
N8    N     N_R   0.681430 0.972310 0.206980 -0.056088
N9    N     N_R   0.026930 0.472300 0.207330 -0.046767
N10   N     N_R   0.973070 0.472300 0.792670 -0.044580
N11   N     N_R   0.526930 0.972300 0.207330 -0.044932
N12   N     N_R   0.107380 0.603790 0.058230 -0.068199
N13   N     N_R   0.473070 0.972300 0.792670 -0.044560
N14   N     N_R   0.817960 0.529130 0.792460 -0.039626
N15   N     N_R   0.182040 0.529130 0.207540 -0.035574
N16   N     N_R   0.317960 0.029130 0.792460 -0.040023
N17   N     N_R   0.682040 0.029130 0.207540 -0.037980
N18   N     N_R   0.894850 0.397640 0.943830 -0.044260
N19   N     N_R   0.105150 0.397640 0.056170 -0.044740
N20   N     N_R   0.394850 0.897640 0.943830 -0.045487
N21   N     N_R   0.605150 0.897640 0.056170 -0.046534
N22   N     N_R   0.950040 0.603780 0.055950 -0.054231
N23   N     N_R   0.392620 0.103790 0.941770 -0.066044
N24   N     N_R   0.049960 0.603780 0.944050 -0.054631
N25   N     N_R   0.450040 0.103780 0.055950 -0.056426
N26   N     N_R   0.549960 0.103780 0.944050 -0.052630
N27   N     N_R   0.607380 0.103790 0.058230 -0.065604
N28   N     N_R   0.952270 0.397640 0.058010 -0.042249
N29   N     N_R   0.047730 0.397640 0.941990 -0.041136
N30   N     N_R   0.452270 0.897640 0.058010 -0.043179
N31   N     N_R   0.547730 0.897640 0.941990 -0.042487
N32   N     N_R   0.026310 0.529110 0.206760 -0.034653
Ni1   Ni    Ni4+2 0.934160 0.565860 0.869070 0.251343
Ni2   Ni    Ni4+2 0.065840 0.565860 0.130930 0.270292
Ni3   Ni    Ni4+2 0.434160 0.065860 0.869070 0.258120
Ni4   Ni    Ni4+2 0.565840 0.065860 0.130930 0.269156
Ni5   Ni    Ni4+2 0.067260 0.435560 0.132230 0.216575
Ni6   Ni    Ni4+2 0.932740 0.435560 0.867770 0.208888
Ni7   Ni    Ni4+2 0.567260 0.935560 0.132230 0.219167
Ni8   Ni    Ni4+2 0.432740 0.935560 0.867770 0.208627

loop_
_geom_bond_atom_site_label_1
_geom_bond_atom_site_label_2
_ccdc_geom_bond_type
C106  H49   S    
C29   H69   S    
C97   C102  A    
C76   H15   S    
C93   C94   S    
C55   C80   A    
C36   N23   A    
N21   N31   A    
C5    N19   A    
C54   C69   A    
C101  N5    A    
C53   N28   A    
C64   C68   A    
C105  H48   S    
C99   N3    A    
N26   N27   A    
N6    Ni5   S    
N1    N22   A    
C98   N2    A    
N20   N30   A    
N5    Ni6   S    
C20   C104  A    
C16   C47   A    
C56   H35   S    
C42   C46   A    
C54   H32   S    
N3    Ni4   S    
N2    Ni1   S    
C110  H53   S    
C110  N14   A    
C43   C67   A    
C30   C34   S    
C109  N13   A    
N23   N25   A    
C111  H54   S    
C22   C23   S    
N20   Ni8   S    
C1    N1    A    
C54   N29   A    
C97   H40   S    
N3    N11   A    
C86   C90   A    
C57   C62   A    
C71   H9    S    
C107  N10   A    
C84   C88   A    
N18   N28   A    
C41   C70   A    
C43   C78   S    
C43   C48   A    
C10   N25   A    
C98   H41   S    
C96   H30   S    
N4    N13   A    
C70   C74   S    
C75   H14   S    
C72   C78   S    
C112  H55   S    
C42   C77   S    
C94   H28   S    
C53   C58   A    
C56   C91   A    
C52   C59   A    
C92   H26   S    
C30   H70   S    
N29   Ni6   S    
C62   C66   A    
C33   C38   S    
C99   H42   S    
C12   C63   S    
C61   C65   A    
C3    H57   S    
N8    Ni7   S    
N27   Ni4   S    
C100  N4    A    
C9    N24   A    
C67   C72   S    
C35   H1    S    
C104  N7    A    
C59   C63   A    
N21   Ni7   S    
C8    C12   A    
C85   C102  S    
N10   Ni6   S    
C21   C33   S    
N9    Ni5   S    
Br6   C23   S    
C71   H5    S    
N4    Ni3   S    
C19   C103  A    
C17   C86   S    
C79   C84   A    
C73   H7    S    
C81   C85   A    
C55   N30   A    
N5    N14   A    
C26   C33   S    
C15   C65   S    
C13   C108  A    
C94   H37   S    
C73   C75   S    
C88   H22   S    
C82   C86   A    
C4    N18   A    
C46   C51   A    
N2    N10   A    
C32   C37   S    
C48   C91   S    
C100  H43   S    
C5    C69   A    
Br3   C36   S    
C63   C67   A    
C72   H10   S    
C10   C15   A    
C112  N16   A    
C28   C32   S    
Br1   C1    S    
C76   H19   S    
N8    N17   A    
C20   C112  A    
C19   C31   S    
C103  H46   S    
C87   C92   A    
C47   N27   A    
C13   C87   S    
C93   H36   S    
C107  H50   S    
C5    H59   S    
C65   C70   A    
C83   C87   A    
C15   C36   A    
C48   C52   A    
C108  H51   S    
N32   Ni2   S    
C8    H62   S    
C24   C26   S    
C45   C69   S    
N7    Ni8   S    
C89   H24   S    
C79   C94   S    
C53   H31   S    
C9    H63   S    
C1    C12   A    
C77   H16   S    
C77   H20   S    
C57   H72   S    
C10   H64   S    
C60   C64   A    
C82   C96   S    
C88   C89   A    
N14   Ni1   S    
N18   Ni6   S    
C106  N9    A    
C22   C32   S    
C95   H38   S    
C11   N26   A    
Br8   C26   S    
C24   C29   S    
C8    N22   A    
C51   H67   S    
C35   C37   S    
C18   C101  A    
C74   H8    S    
C13   C99   A    
N28   Ni5   S    
Br2   C25   S    
N16   Ni3   S    
N17   Ni4   S    
N30   Ni7   S    
C90   C92   A    
C66   C71   S    
C79   C81   A    
Br4   C47   S    
C2    C98   A    
C29   C39   S    
C3    N17   A    
C49   C60   A    
N12   Ni2   S    
C27   C37   S    
C59   H2    S    
C85   C89   A    
N26   Ni3   S    
C71   C77   S    
C108  N11   A    
C44   C58   S    
N31   Ni8   S    
C16   C64   S    
Br5   C22   S    
C41   C76   S    
C14   C25   A    
C102  C106  A    
C38   C39   S    
C93   H27   S    
Br7   C24   S    
N19   Ni5   S    
C81   C93   S    
N6    N15   A    
C26   C30   S    
C50   H56   S    
C18   C110  A    
C83   C95   S    
C28   C35   S    
C101  H44   S    
C17   C109  A    
C68   C73   S    
C111  N15   A    
C31   C35   S    
C45   C50   A    
C50   C61   A    
C38   H23   S    
C7    N21   A    
C90   H25   S    
C19   C111  A    
N15   Ni2   S    
C78   H17   S    
C97   N32   A    
C22   C27   S    
N12   N24   A    
C25   N12   A    
C74   C76   S    
N24   Ni1   S    
C61   H4    S    
C40   C75   S    
C6    N20   A    
C46   C80   S    
C39   H34   S    
C42   C66   A    
C11   C16   A    
C56   N31   A    
N1    Ni1   S    
C4    C58   A    
C103  N6    A    
C60   H3    S    
C11   H65   S    
C3    C21   A    
N11   Ni7   S    
C104  H47   S    
C109  H52   S    
C18   C32   S    
C82   C83   A    
C72   H6    S    
C74   H13   S    
C27   H66   S    
C41   C45   A    
C27   C31   S    
C7    H61   S    
C20   C34   S    
N7    N16   A    
C105  N8    A    
C23   C31   S    
N23   Ni3   S    
C34   C39   S    
C29   C33   S    
N22   Ni2   S    
C6    H60   S    
C30   C38   S    
C73   H11   S    
C44   C49   A    
C95   H29   S    
N25   Ni4   S    
C2    C84   S    
C40   C68   A    
C52   H71   S    
C40   C44   A    
C49   H45   S    
C9    C14   A    
C17   C100  A    
C37   H12   S    
C7    C91   A    
C21   C105  A    
C95   C96   S    
C24   C34   S    
C23   C28   S    
N13   Ni8   S    
C96   H39   S    
N9    N32   A    
C28   H68   S    
C4    H58   S    
C55   H33   S    
C6    C80   A    
C14   C62   S    
C75   H18   S    
C51   C57   A    
C2    C107  A    
C78   H21   S    
N19   N29   A    
