data_mof_unit_36071.cif
_audit_creation_date              2012-10-26T20:02:23-0400
_audit_creation_method            fapswitch 2.2
_symmetry_space_group_name_H-M    P1
_symmetry_Int_Tables_number       1
_space_group_crystal_system       triclinic
_cell_length_a                    18.801465
_cell_length_b                    18.467505
_cell_length_c                    12.354809
_cell_angle_alpha                 89.951261
_cell_angle_beta                  128.844678
_cell_angle_gamma                 90.073513
_cell_volume                      3341.0957716

loop_
_atom_site_label
_atom_site_type_symbol
_atom_type_description
_atom_site_fract_x
_atom_site_fract_y
_atom_site_fract_z
_atom_type_partial_charge
C1    C     C_R   0.611565 0.897323 0.651402 0.536362
C2    C     C_R   0.669350 0.738031 0.034396 0.007939
C3    C     C_R   0.167195 0.764335 0.029939 0.003962
C4    C     C_R   0.169348 0.238030 0.034393 0.007941
C5    C     C_R   0.588843 0.232032 0.914032 -0.117538
C6    C     C_R   0.590858 0.770560 0.919316 -0.124518
C7    C     C_R   0.088842 0.732031 0.914032 -0.117542
C8    C     C_R   0.090855 0.270560 0.919315 -0.124524
C9    C     C_R   0.588491 0.205315 0.809454 -0.094739
C10   C     C_R   0.589165 0.795915 0.812637 -0.102967
C11   C     C_R   0.088489 0.705314 0.809453 -0.094740
C12   C     C_R   0.611894 0.102499 0.651724 0.544947
C13   C     C_R   0.089161 0.295915 0.812635 -0.102980
C14   C     C_R   0.316228 0.817149 0.146446 -0.162725
C15   C     C_R   0.316193 0.182486 0.146120 -0.160707
C16   C     C_R   0.816231 0.317146 0.146451 -0.162723
C17   C     C_R   0.816198 0.682490 0.146127 -0.160710
C18   C     C_R   0.244658 0.820435 0.255961 0.269798
C19   C     C_R   0.248844 0.183319 0.262054 0.275339
C20   C     C_R   0.744657 0.320437 0.255960 0.269793
C21   C     C_R   0.748844 0.683318 0.262054 0.275335
C22   C     C_R   0.675713 0.162467 0.734696 0.017132
C23   C     C_R   0.111563 0.397322 0.651401 0.536342
C24   C     C_R   0.674812 0.837041 0.733833 -0.010951
C25   C     C_R   0.175710 0.662469 0.734692 0.017120
C26   C     C_R   0.174807 0.337037 0.733827 -0.010966
C27   C     C_R   0.686352 0.998114 0.287401 -0.088447
C28   C     C_R   0.186352 0.498112 0.287401 -0.088444
C29   C     C_R   0.343459 0.001943 0.629473 0.135690
C30   C     C_R   0.843459 0.501940 0.629473 0.135741
C31   C     C_R   0.308900 0.002075 0.701568 -0.130090
C32   C     C_R   0.808899 0.502071 0.701568 -0.130076
C33   C     C_R   0.386081 0.101545 0.346073 0.559872
C34   C     C_R   0.111893 0.602500 0.651723 0.544938
C35   C     C_R   0.385476 0.898858 0.345317 0.566123
C36   C     C_R   0.886081 0.601545 0.346074 0.559871
C37   C     C_R   0.885476 0.398858 0.345317 0.566119
C38   C     C_R   0.368083 0.000837 0.846543 -0.137848
C39   C     C_R   0.868083 0.500834 0.846543 -0.137848
C40   C     C_R   0.463450 0.999670 0.922214 -0.023278
C41   C     C_R   0.963450 0.499669 0.922214 -0.023277
C42   C     C_R   0.495326 0.999305 0.842877 0.124559
C43   C     C_R   0.995326 0.499305 0.842877 0.124576
C44   C     C_R   0.527963 0.999263 0.072739 -0.051433
C45   C     C_R   0.243681 0.776451 0.035275 0.033398
C46   C     C_R   0.027963 0.499262 0.072739 -0.051431
C47   C     C_R   0.623217 0.998012 0.140711 0.023845
C48   C     C_R   0.123217 0.498010 0.140711 0.023852
C49   C     C_R   0.653401 0.997043 0.061012 0.184193
C50   C     C_R   0.153401 0.497039 0.061013 0.184157
C51   C     C_R   0.590021 0.998556 0.916383 -0.094124
C52   C     C_R   0.090021 0.498556 0.916384 -0.094147
C53   C     C_R   0.502208 0.000128 0.159833 0.046388
C54   C     C_R   0.002208 0.500128 0.159833 0.046387
C55   C     C_R   0.656497 0.999098 0.365607 0.049644
C56   C     C_R   0.244282 0.224244 0.036671 0.033125
C57   C     C_R   0.156497 0.499097 0.365607 0.049646
C58   C     C_R   0.669280 0.284542 0.140468 -0.087545
C59   C     C_R   0.673244 0.719330 0.147237 -0.078250
C60   C     C_R   0.169281 0.784540 0.140469 -0.087552
C61   C     C_R   0.173243 0.219329 0.147236 -0.078247
C62   C     C_R   0.315650 0.843393 0.252539 -0.011835
C63   C     C_R   0.317309 0.157806 0.254723 -0.014749
C64   C     C_R   0.815651 0.343392 0.252541 -0.011840
C65   C     C_R   0.817311 0.657807 0.254726 -0.014750
C66   C     C_R   0.749968 0.172899 0.735481 -0.080200
C67   C     C_R   0.743684 0.276448 0.035279 0.033401
C68   C     C_R   0.748175 0.825783 0.732803 -0.089426
C69   C     C_R   0.249963 0.672904 0.735473 -0.080190
C70   C     C_R   0.248167 0.325776 0.732792 -0.089413
C71   C     C_R   0.319579 0.720561 0.828980 -0.110191
C72   C     C_R   0.317721 0.278136 0.826094 -0.102053
C73   C     C_R   0.819585 0.220554 0.828991 -0.110208
C74   C     C_R   0.817732 0.778146 0.826109 -0.102065
C75   C     C_R   0.318747 0.755762 0.927672 -0.099496
C76   C     C_R   0.317704 0.243663 0.926197 -0.106187
C77   C     C_R   0.818753 0.255756 0.927683 -0.099488
C78   C     C_R   0.744288 0.724248 0.036678 0.033122
C79   C     C_R   0.817713 0.743672 0.926211 -0.106199
C80   C     C_R   0.744689 0.246824 0.929802 0.064022
C81   C     C_R   0.744375 0.753178 0.929838 0.050833
C82   C     C_R   0.244685 0.746828 0.929796 0.064017
C83   C     C_R   0.244368 0.253172 0.929828 0.050843
C84   C     C_R   0.668901 0.204632 0.823501 0.035193
C85   C     C_R   0.668659 0.795552 0.824153 0.016039
C86   C     C_R   0.168898 0.704634 0.823497 0.035187
C87   C     C_R   0.168654 0.295549 0.824147 0.016025
C88   C     C_R   0.667197 0.264334 0.029940 0.003964
Cu1   Cu    Cu3+1 0.526340 0.000000 0.421010 0.961637
Cu2   Cu    Cu3+1 0.026340 0.500000 0.421010 0.961635
Cu3   Cu    Cu3+1 0.473640 0.000000 0.578990 1.024532
Cu4   Cu    Cu3+1 0.973640 0.500000 0.578990 1.024545
H1    H     H_    0.759217 0.997658 0.344011 0.190644
H2    H     H_    0.735805 0.503337 0.644704 0.143952
H3    H     H_    0.618008 0.999488 0.864098 0.212819
H4    H     H_    0.118008 0.499489 0.864099 0.212782
H5    H     H_    0.527690 0.226881 0.904507 0.116406
H6    H     H_    0.530624 0.776820 0.911946 0.105117
H7    H     H_    0.027691 0.726878 0.904511 0.116404
H8    H     H_    0.030623 0.276822 0.911949 0.105113
H9    H     H_    0.611592 0.271462 0.136918 0.156988
H10   H     H_    0.617165 0.734143 0.146604 0.156979
H11   H     H_    0.111594 0.771459 0.136922 0.156981
H12   H     H_    0.259217 0.497656 0.344012 0.190644
H13   H     H_    0.117167 0.234145 0.146607 0.156979
H14   H     H_    0.373715 0.830604 0.151166 0.138904
H15   H     H_    0.371574 0.166802 0.147101 0.139567
H16   H     H_    0.873719 0.330600 0.151174 0.138903
H17   H     H_    0.871580 0.666808 0.147112 0.139567
H18   H     H_    0.755818 0.142499 0.666444 0.150689
H19   H     H_    0.753517 0.855636 0.662652 0.160234
H20   H     H_    0.255813 0.642504 0.666436 0.150699
H21   H     H_    0.253509 0.355628 0.662640 0.160242
H22   H     H_    0.377222 0.789268 0.000287 0.105126
H23   H     H_    0.431547 0.000823 0.116463 0.120006
H24   H     H_    0.376439 0.210519 0.999046 0.110411
H25   H     H_    0.877230 0.289259 0.000301 0.105128
H26   H     H_    0.876451 0.710531 0.999064 0.110415
H27   H     H_    0.376636 0.727945 0.828811 0.119982
H28   H     H_    0.374205 0.270293 0.824749 0.138404
H29   H     H_    0.876645 0.227936 0.828826 0.119961
H30   H     H_    0.874218 0.770306 0.824769 0.138398
H31   H     H_    0.524331 0.184983 0.718075 0.191095
H32   H     H_    0.524775 0.816158 0.721828 0.194288
H33   H     H_    0.024329 0.684982 0.718076 0.191094
H34   H     H_    0.931547 0.500825 0.116463 0.120009
H35   H     H_    0.024772 0.316159 0.721828 0.194290
H36   H     H_    0.705678 0.999014 0.477913 0.126845
H37   H     H_    0.205678 0.499013 0.477913 0.126849
H38   H     H_    0.338094 0.835855 0.620868 0.349693
H39   H     H_    0.175610 0.108102 0.447814 0.367429
H40   H     H_    0.838075 0.335806 0.620867 0.349693
H41   H     H_    0.675601 0.608090 0.447794 0.367432
H42   H     H_    0.773042 0.939570 0.984533 0.343678
H43   H     H_    0.272958 0.439562 0.984448 0.343622
H44   H     H_    0.297902 0.003684 0.518001 0.229088
H45   H     H_    0.797902 0.503678 0.518001 0.229088
H46   H     H_    0.337350 0.001090 0.896478 0.107294
H47   H     H_    0.837350 0.501087 0.896478 0.107295
H48   H     H_    0.235805 0.003344 0.644704 0.143954
N1    N     N_R   0.566260 0.000000 0.302220 -0.230140
N2    N     N_R   0.066260 0.500000 0.302220 -0.230142
N3    N     N_R   0.434410 0.000000 0.697680 -0.238629
N4    N     N_R   0.934410 0.500000 0.697680 -0.238611
O1    O     O_R   0.608610 0.924520 0.551740 -0.495643
O2    O     O_R   0.435880 0.924530 0.314850 -0.523215
O3    O     O_R   0.935880 0.575470 0.314850 -0.522269
O4    O     O_R   0.935880 0.424530 0.314850 -0.523216
O5    O     O_R   0.391380 0.075460 0.448260 -0.439003
O6    O     O_R   0.391380 0.924540 0.448260 -0.429734
O7    O     O_R   0.891380 0.575460 0.448260 -0.439003
O8    O     O_R   0.891380 0.424540 0.448260 -0.429716
O9    O     O_2   0.198579 0.904659 0.377618 -0.284296
O10   O     O_2   0.185886 0.774408 0.393396 -0.288221
O11   O     O_3   0.347690 0.829597 0.551213 -0.535930
O12   O     O_R   0.608610 0.075480 0.551740 -0.499954
O13   O     O_2   0.345424 0.170910 0.542569 -0.298454
O14   O     O_2   0.204562 0.240751 0.411097 -0.301165
O15   O     O_3   0.189703 0.101711 0.383439 -0.521709
O16   O     O_2   0.698566 0.404662 0.377601 -0.284254
O17   O     O_2   0.685883 0.274410 0.393392 -0.288252
O18   O     O_3   0.847682 0.329609 0.551212 -0.535937
O19   O     O_2   0.845418 0.670906 0.542567 -0.298454
O20   O     O_2   0.704552 0.740741 0.411091 -0.301162
O21   O     O_3   0.689702 0.601701 0.383427 -0.521703
O22   O     O_2   0.817769 0.060786 0.224410 -0.234079
O23   O     O_R   0.108610 0.424520 0.551740 -0.495640
O24   O     O_2   0.814695 0.928427 0.229574 -0.277404
O25   O     O_3   0.785463 0.990582 0.016341 -0.501893
O26   O     O_2   0.317774 0.560772 0.224408 -0.234074
O27   O     O_2   0.314689 0.428415 0.229580 -0.277363
O28   O     O_3   0.285467 0.490560 0.016349 -0.501830
O29   O     O_R   0.108610 0.575480 0.551740 -0.499953
O30   O     O_R   0.564110 0.924510 0.685150 -0.537239
O31   O     O_R   0.564110 0.075490 0.685150 -0.527571
O32   O     O_R   0.064110 0.424510 0.685150 -0.537247
O33   O     O_R   0.064110 0.575490 0.685150 -0.527578
O34   O     O_R   0.435880 0.075470 0.314850 -0.522269
S1    S     S_3+6 0.242657 0.833058 0.396320 0.011055
S2    S     S_3+6 0.250393 0.175387 0.406744 0.003032
S3    S     S_3+6 0.742652 0.333063 0.396315 0.011052
S4    S     S_3+6 0.750388 0.675381 0.406739 0.003034
S5    S     S_3+6 0.771053 0.994024 0.137665 0.011553
S6    S     S_3+6 0.271053 0.494010 0.137668 0.011574

loop_
_geom_bond_atom_site_label_1
_geom_bond_atom_site_label_2
_ccdc_geom_bond_type
C30   C32   A    
O9    S1    D    
C10   C85   A    
C8    C13   A    
C55   N1    A    
Cu2   O23   S    
C1    O1    A    
C45   C82   A    
O15   S2    S    
C4    C8    A    
C39   C41   A    
C28   C57   A    
Cu4   O32   S    
Cu1   O1    S    
C54   H34   S    
Cu2   O29   S    
C67   C88   A    
C7    H7    S    
C57   N2    A    
O21   S4    S    
C6    H6    S    
C57   H37   S    
C11   H33   S    
C21   C59   A    
C10   H32   S    
C69   H20   S    
C27   C55   A    
C43   C52   A    
C32   C39   A    
C11   C86   A    
C68   C74   A    
C14   C62   A    
C79   H26   S    
C12   C22   S    
C30   N4    A    
C23   C26   S    
C15   H15   S    
C69   C71   A    
O14   S2    D    
O25   S5    S    
Cu2   O4    S    
C76   H24   S    
C49   S5    S    
C5    C88   A    
C44   C53   A    
C22   C66   A    
C19   C63   A    
C26   C87   A    
C49   C51   A    
H42   O25   S    
Cu4   O8    S    
C50   C52   A    
C41   C46   A    
H38   O11   S    
C35   O6    A    
Cu1   Cu3   S    
C60   H11   S    
C61   H13   S    
C24   C85   A    
C44   C47   A    
C80   C84   A    
C42   C51   A    
C21   C65   A    
C3    C60   A    
C40   C42   A    
C30   H45   S    
O10   S1    D    
C4    C56   A    
O19   S4    D    
C41   C43   A    
C13   C87   A    
C43   N4    A    
C2    C6    A    
C12   O12   A    
C76   C83   A    
O11   S1    S    
C14   C45   A    
Cu3   N3    S    
C70   H21   S    
Cu1   O2    S    
C39   H47   S    
C1    O30   A    
C71   C75   A    
O22   S5    D    
O27   S6    D    
O18   S3    S    
C47   C49   A    
C58   H9    S    
C16   H16   S    
C2    C59   A    
C18   C62   A    
Cu1   O12   S    
C23   O32   A    
Cu1   O34   S    
C66   C73   A    
C4    C61   A    
C3    C45   A    
Cu3   O30   S    
C58   C88   A    
C68   H19   S    
C22   C84   A    
C20   C64   A    
C7    C11   A    
C5    C9    A    
Cu2   O3    S    
C2    C78   A    
H41   O21   S    
C21   S4    S    
O28   S6    S    
C36   O3    A    
Cu2   Cu4   S    
C54   N2    A    
C40   C44   A    
C33   C63   S    
O24   S5    D    
C46   C54   A    
Cu4   O7    S    
C38   H46   S    
Cu3   O31   S    
C72   C76   A    
C75   C82   A    
C16   C67   A    
H43   O28   S    
C66   H18   S    
H39   O15   S    
Cu2   N2    S    
C12   O31   A    
C23   O23   A    
C18   C60   A    
C17   C65   A    
C74   H30   S    
C5    H5    S    
C18   S1    S    
C73   H29   S    
C72   H28   S    
C26   C70   A    
C25   C86   A    
C27   H1    S    
C25   C69   A    
C37   O8    A    
C20   C58   A    
O16   S3    D    
C37   C64   S    
C56   C83   A    
Cu3   O5    S    
C77   C80   A    
C27   C47   A    
C77   H25   S    
C28   C48   A    
C15   C63   A    
O26   S6    D    
C33   O34   A    
C36   C65   S    
C59   H10   S    
C75   H22   S    
C50   S6    S    
C67   C80   A    
O13   S2    D    
C17   H17   S    
C83   C87   A    
C6    C10   A    
Cu3   O6    S    
C70   C72   A    
C79   C81   A    
C36   O7    A    
C28   H12   S    
C25   C34   S    
C3    C7    A    
C31   C38   A    
C71   H27   S    
C74   C79   A    
C15   C56   A    
C8    H8    S    
C29   C31   A    
C34   O29   A    
C82   C86   A    
C38   C40   A    
C78   C81   A    
C19   C61   A    
Cu1   N1    S    
C48   C50   A    
C17   C78   A    
C9    H31   S    
C52   H4    S    
C35   C62   S    
C53   N1    A    
C37   O4    A    
O17   S3    D    
Cu4   N4    S    
H40   O18   S    
O20   S4    D    
Cu4   O33   S    
C24   C68   A    
C9    C84   A    
C13   H35   S    
C46   C48   A    
C14   H14   S    
C29   H44   S    
C55   H36   S    
C1    C24   S    
C32   H2    S    
C42   N3    A    
C73   C77   A    
C34   O33   A    
C33   O5    A    
C16   C64   A    
C31   H48   S    
C19   S2    S    
C35   O2    A    
C81   C85   A    
C53   H23   S    
C51   H3    S    
C20   S3    S    
C29   N3    A    
