data_mof_unit_28972.cif
_audit_creation_date              2012-12-10T20:34:13-0500
_audit_creation_method            fapswitch 2.2
_symmetry_space_group_name_H-M    P1
_symmetry_Int_Tables_number       1
_space_group_crystal_system       triclinic
_cell_length_a                    9.923125
_cell_length_b                    10.709765
_cell_length_c                    13.667106
_cell_angle_alpha                 90.901431
_cell_angle_beta                  83.209293
_cell_angle_gamma                 89.486985
_cell_volume                      1442.00912936

loop_
_atom_site_label
_atom_site_type_symbol
_atom_type_description
_atom_site_fract_x
_atom_site_fract_y
_atom_site_fract_z
_atom_type_partial_charge
C1    C     C_R   0.500087 0.739170 0.496292 0.926486
C2    C     C_3   0.258891 0.932025 0.599003 -0.165772
C3    C     C_R   0.917719 0.571884 0.566394 0.268433
C4    C     C_R   0.475898 0.500725 0.685217 0.981270
C5    C     C_R   0.939995 0.438957 0.427482 -0.060891
C6    C     C_R   0.084231 0.436725 0.428780 -0.023926
C7    C     C_R   0.059717 0.571953 0.566251 0.179932
C8    C     C_3   0.048507 0.562976 0.675654 -0.577982
C9    C     C_3   0.894941 0.562546 0.676204 -0.419081
C10   C     C_R   0.500682 0.260836 0.499309 0.918791
C11   C     C_R   0.524127 0.498625 0.314760 0.863331
C12   C     C_1   0.458062 0.506180 0.788249 -0.067810
C13   C     C_1   0.541982 0.492030 0.211708 -0.015019
C14   C     C_2   0.554897 0.478932 0.020784 -0.003067
C15   C     C_2   0.444041 0.517151 0.979235 -0.035345
C16   C     C_1   0.447561 0.511551 0.875539 -0.017159
C17   C     C_1   0.552099 0.485715 0.124427 -0.007946
C18   C     C_2   0.315665 0.569243 0.033335 0.474655
C19   C     C_2   0.168401 0.354269 0.358365 1.026242
C20   C     C_2   0.824930 0.675705 0.727708 1.095312
C21   C     C_2   0.682977 0.426549 0.966506 0.434493
C22   C     C_2   0.728819 0.870080 0.377783 1.010054
C23   C     C_R   0.390757 0.939233 0.532405 -0.017464
C24   C     C_2   0.273961 0.138612 0.700071 0.472018
C25   C     C_2   0.271430 0.869558 0.696369 0.934817
C26   C     C_2   0.145831 0.879899 0.546552 0.418652
C27   C     C_2   0.878766 0.370577 0.349172 0.493277
C28   C     C_R   0.500422 0.870444 0.486993 -0.141903
C29   C     C_R   0.613017 0.934519 0.437589 -0.132952
C30   C     C_R   0.613690 0.064970 0.443575 -0.226878
C31   C     C_R   0.502417 0.129757 0.493962 -0.048084
C32   C     C_R   0.392270 0.063861 0.535503 0.142557
C33   C     C_3   0.261102 0.077635 0.601101 -0.296008
H1    H     H_    0.089772 0.473158 0.699802 0.226366
H2    H     H_    0.608740 0.765640 0.300138 0.279916
H3    H     H_    0.186277 0.141926 0.755577 0.109362
H4    H     H_    0.388386 0.775323 0.781834 0.338950
H5    H     H_    0.168324 0.824569 0.479299 0.104613
H6    H     H_    0.789493 0.315289 0.366714 0.081179
H7    H     H_    0.088796 0.647278 0.709989 0.237610
H8    H     H_    0.848214 0.472796 0.701163 0.208297
H9    H     H_    0.698968 0.115403 0.407131 0.162606
H10   H     H_    0.181360 0.122977 0.562733 0.204436
H11   H     H_    0.231346 0.590957 0.992310 0.072137
H12   H     H_    0.254054 0.184112 0.330354 0.338811
H13   H     H_    0.871792 0.623607 0.860827 0.315258
H14   H     H_    0.769273 0.409327 0.006650 0.091106
N1    N     N_R   0.857130 0.500860 0.500650 -0.162116
N2    N     N_R   0.142770 0.500820 0.500650 -0.166854
O1    O     O_R   0.385310 0.683210 0.499990 -0.646829
O2    O     O_2   0.204604 0.389733 0.274881 -0.536103
O3    O     O_R   0.197424 0.232543 0.385101 -0.827902
O4    O     O_2   0.768078 0.752526 0.681185 -0.497406
O5    O     O_R   0.822334 0.692773 0.829455 -0.735692
O6    O     O_2   0.694272 0.399880 0.878763 -0.566775
O7    O     O_2   0.844786 0.901202 0.386993 -0.529798
O8    O     O_R   0.707956 0.776627 0.308758 -0.743721
O9    O     O_2   0.380300 0.184768 0.718743 -0.551002
O10   O     O_2   0.174900 0.871956 0.760940 -0.602097
O11   O     O_R   0.392961 0.811285 0.713382 -0.781038
O12   O     O_R   0.614650 0.683240 0.500000 -0.571150
O13   O     O_2   0.027582 0.898727 0.579748 -0.486674
O14   O     O_2   0.926450 0.377403 0.262936 -0.538810
O15   O     O_R   0.368820 0.499950 0.640340 -0.623164
O16   O     O_R   0.598170 0.499990 0.640350 -0.603689
O17   O     O_R   0.385350 0.316760 0.500000 -0.606391
O18   O     O_R   0.614690 0.316790 0.500010 -0.650846
O19   O     O_R   0.401830 0.500010 0.359650 -0.589455
O20   O     O_R   0.631180 0.500050 0.359660 -0.623440
O21   O     O_2   0.301676 0.590141 0.122001 -0.506785
Zn1   Zn    Zn3+2 0.346870 0.499980 0.499990 0.982940
Zn2   Zn    Zn3+2 0.653130 0.500020 0.500010 1.011116

loop_
_geom_bond_atom_site_label_1
_geom_bond_atom_site_label_2
_ccdc_geom_bond_type
C18   O21   D    
C1    C28   S    
O1    Zn1   S    
C11   O20   A    
C29   C30   A    
C3    C9    S    
C22   C29   S    
C18   H11   S    
O20   Zn2   S    
O16   Zn2   S    
C25   O10   D    
C1    O1    A    
C4    O15   A    
C15   C18   S    
C9    H8    S    
O17   Zn1   S    
C14   C15   D    
C13   C17   T    
H2    O8    S    
C23   C32   A    
H13   O5    S    
C22   O8    S    
C26   O13   D    
C7    C8    S    
C2    C26   S    
C5    N1    A    
C10   O18   A    
C32   C33   S    
C20   O4    D    
C6    C19   S    
C11   C13   S    
C14   C17   S    
C7    N2    A    
C24   H3    S    
C27   O14   D    
N1    Zn2   S    
O19   Zn1   S    
C12   C16   T    
C5    C6    A    
C19   O3    S    
O12   Zn2   S    
C20   O5    S    
C28   C29   A    
C25   O11   S    
C5    C27   S    
C2    C25   S    
C3    C7    A    
C10   O17   A    
C6    N2    A    
C30   C31   A    
C9    C20   S    
H4    O11   S    
C4    C12   S    
C14   C21   S    
C15   C16   S    
C33   H10   S    
C19   O2    D    
C3    N1    A    
C11   O19   A    
C2    C33   S    
C24   O9    D    
O18   Zn2   S    
N2    Zn1   S    
O15   Zn1   S    
C8    H1    S    
C2    C23   S    
C21   O6    D    
C4    O16   A    
C26   H5    S    
C22   O7    D    
C8    H7    S    
H12   O3    S    
C23   C28   A    
C10   C31   S    
C31   C32   A    
C30   H9    S    
C24   C33   S    
C27   H6    S    
C8    C9    S    
C21   H14   S    
C1    O12   A    
