data_mof_unit_26588.cif
_audit_creation_date              2012-12-11T14:29:32-0500
_audit_creation_method            fapswitch 2.2
_symmetry_space_group_name_H-M    P1
_symmetry_Int_Tables_number       1
_space_group_crystal_system       triclinic
_cell_length_a                    6.937762
_cell_length_b                    14.761009
_cell_length_c                    16.220372
_cell_angle_alpha                 90.485487
_cell_angle_beta                  89.980683
_cell_angle_gamma                 90.052115
_cell_volume                      1661.04140541

loop_
_atom_site_label
_atom_site_type_symbol
_atom_type_description
_atom_site_fract_x
_atom_site_fract_y
_atom_site_fract_z
_atom_type_partial_charge
O1    O     O_R   0.494400 0.416610 0.413880 -0.541174
O2    O     O_R   0.823920 0.406790 0.585520 -0.540214
O3    O     O_R   0.994250 0.583390 0.586120 -0.535429
C1    C     C_R   0.654612 0.385111 0.613578 0.743788
O4    O     O_R   0.824110 0.405730 0.414490 -0.540503
O5    O     O_R   0.994440 0.582310 0.413870 -0.554315
C2    C     C_R   0.654828 0.383640 0.386364 0.746226
O6    O     O_R   0.494210 0.417690 0.586130 -0.546234
O7    O     O_3   0.660810 0.557940 0.500000 -0.369768
V1    V     V_3+5 0.935650 0.489250 0.500000 1.405189
O8    O     O_R   0.324160 0.593210 0.414480 -0.528607
C3    C     C_R   0.155359 0.617345 0.388483 0.629026
O9    O     O_R   0.323970 0.594270 0.585510 -0.542339
C4    C     C_R   0.155083 0.616375 0.613717 0.687713
V2    V     V_3+5 0.435660 0.510750 0.500000 1.418348
O10   O     O_3   0.160630 0.442060 0.500000 -0.371420
H1    H     H_    0.815440 0.889095 0.521178 0.109579
C5    C     C_R   0.318080 0.580560 0.774721 -0.141547
C6    C     C_R   0.396549 0.560735 0.851488 -0.124886
C7    C     C_R   0.383637 0.623210 0.915725 -0.119949
C8    C     C_R   0.292353 0.706042 0.903674 -0.130610
C9    C     C_R   0.213872 0.728920 0.825981 0.069573
C10   C     C_R   0.226819 0.664721 0.760052 0.070707
C11   C     C_R   0.119491 0.813097 0.814024 -0.186636
C12   C     C_R   0.037150 0.832697 0.735999 0.068944
C13   C     C_R   0.049688 0.768389 0.670110 0.069533
C14   C     C_R   0.144877 0.684387 0.682016 -0.186224
C15   C     C_R   0.945230 0.916703 0.721389 -0.143461
C16   C     C_R   0.864867 0.936096 0.644847 -0.122109
C17   C     C_R   0.876475 0.873329 0.580782 -0.124946
C18   C     C_R   0.969318 0.790832 0.592641 -0.143052
H2    H     H_    0.328481 0.528580 0.727600 0.112278
H3    H     H_    0.466121 0.496104 0.861368 0.116401
H4    H     H_    0.443101 0.607095 0.975526 0.114528
H5    H     H_    0.282469 0.751154 0.956357 0.107954
H6    H     H_    0.935334 0.968758 0.768477 0.111505
H7    H     H_    0.794598 0.000573 0.635030 0.119425
H8    H     H_    0.978782 0.745626 0.540008 0.102265
C19   C     C_2   0.992995 0.708649 0.281779 -0.217215
C20   C     C_2   0.150412 0.693703 0.329188 0.267487
H9    H     H_    0.863924 0.668636 0.292158 0.118084
C21   C     C_2   0.976696 0.780574 0.218055 -0.123022
C22   C     C_2   0.126308 0.810245 0.172791 -0.288892
H10   H     H_    0.833311 0.806656 0.205790 0.141526
H11   H     H_    0.268204 0.781012 0.180554 0.187433
C23   C     C_2   0.779352 0.207578 0.780896 -0.138711
C24   C     C_2   0.614261 0.179467 0.816519 -0.312455
H12   H     H_    0.915444 0.179410 0.801544 0.135276
H13   H     H_    0.476244 0.205989 0.797234 0.127891
C25   C     C_2   0.791244 0.275985 0.713865 -0.133629
C26   C     C_2   0.638078 0.317683 0.680058 -0.313316
H14   H     H_    0.934816 0.292181 0.691671 0.135024
H15   H     H_    0.493253 0.302833 0.700770 0.127155
C27   C     C_2   0.779196 0.208489 0.214408 -0.130818
C28   C     C_2   0.614122 0.181653 0.177553 -0.310604
H16   H     H_    0.914987 0.179581 0.193774 0.136759
H17   H     H_    0.476643 0.209813 0.196086 0.127413
C29   C     C_2   0.791636 0.276995 0.282333 -0.136806
C30   C     C_2   0.638205 0.315300 0.319659 -0.308796
H18   H     H_    0.935625 0.295874 0.302400 0.135072
H19   H     H_    0.493051 0.297043 0.301544 0.129189
O11   O     O_R   0.770210 0.079270 0.910680 -0.541749
O12   O     O_R   0.440150 0.091160 0.082270 -0.545408
O13   O     O_R   0.269970 0.914530 0.082860 -0.542668
C31   C     C_R   0.608837 0.113165 0.110569 0.744032
O14   O     O_R   0.440480 0.090100 0.911240 -0.545231
O15   O     O_R   0.270310 0.913460 0.910610 -0.537195
C32   C     C_R   0.609220 0.111679 0.883062 0.744084
O16   O     O_R   0.769870 0.080340 0.082930 -0.538617
O17   O     O_3   0.603660 0.938980 0.996790 -0.369265
V3    V     V_3+5 0.328750 0.007610 0.996740 1.404633
O18   O     O_R   0.940600 0.902510 0.911180 -0.538926
C33   C     C_R   0.109393 0.880976 0.882513 0.693851
O19   O     O_R   0.940270 0.903570 0.082200 -0.538210
C34   C     C_R   0.109529 0.881172 0.109590 0.713333
V4    V     V_3+5 0.828770 0.986010 0.996670 1.418179
O20   O     O_3   0.103730 0.054750 0.996710 -0.373695
O21   O     O_3   0.314225 0.746873 0.319871 -0.574210
C35   C     C_3   0.348626 0.799601 0.391790 0.104500
H20   H     H_    0.504976 0.815979 0.393136 0.135088
H21   H     H_    0.317256 0.763276 0.450230 0.092867
C36   C     C_3   0.234610 0.888379 0.389135 -0.325466
H22   H     H_    0.262773 0.923119 0.329790 0.205986
H23   H     H_    0.077890 0.873448 0.393272 0.184961
C37   C     C_3   0.291279 0.951380 0.460229 -0.838955
H24   H     H_    0.268492 0.917470 0.520308 0.244116
H25   H     H_    0.201418 0.013542 0.458552 0.233623
H26   H     H_    0.445262 0.971178 0.454804 0.226737

loop_
_geom_bond_atom_site_label_1
_geom_bond_atom_site_label_2
_ccdc_geom_bond_type
O14   C32   A    
O12   C31   A    
C6    C7    A    
O18   V4    S    
C19   H9    S    
C37   H24   S    
C12   C15   A    
C13   C14   A    
O19   V4    S    
C9    C11   A    
C15   C16   A    
O5    C3    A    
C17   C18   A    
C11   C33   S    
C29   H18   S    
V2    O10   S    
O16   V4    S    
C5    C6    A    
O13   V3    S    
C27   C28   D    
O8    V2    S    
C25   H14   S    
O17   V3    S    
O15   C33   A    
C10   C14   A    
C4    C14   S    
O7    V1    S    
C1    O6    A    
C7    H4    S    
C13   C18   A    
O9    C4    A    
H1    C17   S    
O11   V4    S    
C21   H10   S    
C2    C30   S    
C28   C31   S    
C19   C21   S    
C23   H12   S    
C37   H25   S    
C22   C34   S    
C27   H16   S    
C30   H19   S    
O19   C34   A    
C1    C26   S    
C5    C10   A    
V4    O20   S    
C24   H13   S    
C6    H3    S    
C19   C20   D    
C35   H21   S    
O21   C35   S    
C29   C30   D    
C26   H15   S    
C3    C20   S    
O2    C1    A    
C16   C17   A    
O14   V3    S    
C25   C26   D    
C11   C12   A    
C22   H11   S    
O3    C4    A    
O1    V2    S    
O12   V3    S    
O6    V2    S    
C36   H23   S    
O9    V2    S    
O17   V4    S    
C20   O21   S    
C5    H2    S    
C21   C22   D    
O2    V1    S    
C24   C32   S    
V3    O20   S    
O4    C2    A    
C27   C29   S    
C37   H26   S    
C23   C24   D    
O1    C2    A    
O18   C33   A    
O5    V1    S    
C35   C36   S    
O8    C3    A    
C8    H5    S    
C36   C37   S    
C23   C25   S    
C18   H8    S    
O11   C32   A    
C28   H17   S    
C12   C13   A    
O4    V1    S    
O3    V1    S    
V1    O10   S    
C31   O16   A    
O13   C34   A    
O15   V3    S    
O7    V2    S    
C35   H20   S    
C7    C8    A    
C15   H6    S    
C36   H22   S    
C16   H7    S    
C9    C10   A    
C8    C9    A    
