data_mof_unit_63222.cif
_audit_creation_date              2013-03-05T16:14:05-0500
_audit_creation_method            fapswitch 2.2
_symmetry_space_group_name_H-M    P1
_symmetry_Int_Tables_number       1
_space_group_crystal_system       triclinic
_cell_length_a                    27.760392
_cell_length_b                    14.668334
_cell_length_c                    15.916958
_cell_angle_alpha                 89.945053
_cell_angle_beta                  89.945915
_cell_angle_gamma                 90.691817
_cell_volume                      6480.88623165

loop_
_atom_site_label
_atom_site_type_symbol
_atom_site_description
_atom_site_fract_x
_atom_site_fract_y
_atom_site_fract_z
_atom_type_partial_charge
O1    O     O_R   0.500050 0.424030 0.620640 -0.568958
O2    O     O_R   0.500050 0.575970 0.620640 -0.551710
C1    C     C_R   0.499954 0.499947 0.660145 0.817922
O3    O     O_R   0.569790 0.424080 0.500060 -0.555612
O4    O     O_R   0.569790 0.575920 0.500060 -0.519131
C2    C     C_R   0.593065 0.500634 0.500163 0.890302
Cu1   Cu    Cu3+1 0.500060 0.410080 0.500090 1.116800
Cu2   Cu    Cu3+1 0.500060 0.589920 0.500090 1.130447
O5    O     O_R   0.500050 0.424100 0.379510 -0.541304
O6    O     O_R   0.500050 0.575900 0.379510 -0.565781
O7    O     O_R   0.430320 0.424060 0.500090 -0.548893
O8    O     O_R   0.430320 0.575940 0.500090 -0.547520
C3    C     C_R   0.499977 0.500033 0.340016 0.823653
C4    C     C_R   0.407273 0.499396 0.498950 0.914904
C5    C     C_R   0.824622 0.515006 0.567815 0.650093
O9    O     O_2   0.799520 0.511376 0.640227 -0.434799
N1    N     N_R   0.799940 0.513744 0.493606 -0.457221
C6    C     C_R   0.823142 0.515642 0.417903 0.677196
C7    C     C_R   0.721615 0.587039 0.467776 0.224502
C8    C     C_R   0.670690 0.582013 0.466106 0.331534
C9    C     C_R   0.674017 0.429716 0.528671 0.207463
C10   C     C_R   0.724119 0.433712 0.524776 -0.135491
C11   C     C_R   0.748081 0.511511 0.495044 0.161649
C12   C     C_R   0.899884 0.514872 0.490135 -0.137693
C13   C     C_R   0.875537 0.517021 0.568321 -0.111233
C14   C     C_R   0.903094 0.525038 0.643154 0.216424
C15   C     C_R   0.873804 0.523009 0.414219 -0.117568
C16   C     C_R   0.646558 0.503479 0.498318 -0.199071
H1    H     H_    0.744890 0.376487 0.546987 0.210578
C17   C     C_R   0.354217 0.496967 0.494295 -0.253563
C18   C     C_R   0.024997 0.463327 0.559161 0.006825
C19   C     C_R   0.025715 0.491726 0.407591 0.028241
C20   C     C_R   0.050684 0.475127 0.483392 -0.047567
C21   C     C_R   0.048394 0.418440 0.626250 0.278969
C22   C     C_R   0.098977 0.414424 0.628441 0.269238
C23   C     C_R   0.126199 0.445568 0.558122 -0.142196
C24   C     C_R   0.101472 0.467857 0.483137 -0.132842
C25   C     C_R   0.127370 0.484483 0.408002 -0.137623
C26   C     C_R   0.177769 0.495951 0.413453 0.716060
N2    N     N_R   0.201283 0.478495 0.486989 -0.432080
C27   C     C_R   0.177084 0.451341 0.557722 0.698992
C28   C     C_R   0.275565 0.553043 0.538444 0.380402
C29   C     C_R   0.326402 0.556318 0.544174 0.114962
C30   C     C_R   0.331149 0.433389 0.440461 0.114813
C31   C     C_R   0.280519 0.424604 0.441470 0.374152
C32   C     C_R   0.253126 0.485594 0.489021 0.172733
O10   O     O_2   0.202659 0.431966 0.627187 -0.421648
C33   C     C_R   0.975971 0.489487 0.562979 0.037657
C34   C     C_R   0.950433 0.504034 0.487618 -0.068114
C35   C     C_R   0.975393 0.510321 0.410170 0.028996
C36   C     C_R   0.953548 0.512483 0.639853 0.382552
O11   O     O_2   0.796804 0.508309 0.347143 -0.427351
C37   C     C_R   0.899387 0.542731 0.339003 0.190402
C38   C     C_R   0.051108 0.478649 0.331437 0.426454
C39   C     C_R   0.101921 0.484942 0.330699 0.188353
O12   O     O_2   0.203422 0.526629 0.347108 -0.415702
C40   C     C_R   0.950226 0.546161 0.340407 0.426535
C41   C     C_3   0.496725 0.396960 0.950718 0.520943
C42   C     C_3   0.453024 0.552522 0.949944 0.590063
C43   C     C_3   0.450534 0.545658 0.049339 0.431402
C44   C     C_3   0.503628 0.397844 0.050043 0.427123
C45   C     C_1   0.499609 0.500089 0.250780 -0.032977
C46   C     C_3   0.498739 0.499128 0.917189 -0.186385
C47   C     C_3   0.498966 0.500178 0.083319 -0.297975
C48   C     C_3   0.544121 0.558377 0.049438 0.345105
C49   C     C_3   0.546254 0.549568 0.949652 0.598186
C50   C     C_1   0.499278 0.500106 0.175506 0.199833
C51   C     C_1   0.499098 0.499438 0.824750 0.208312
C52   C     C_1   0.499516 0.499757 0.749450 -0.081306
C53   C     C_3   0.449779 0.944171 0.455596 0.286640
C54   C     C_3   0.447495 0.052954 0.467117 0.317532
C55   C     C_3   0.543320 0.946271 0.444019 0.448033
C56   C     C_3   0.538995 0.055645 0.433975 0.491343
N3    N     N_1   0.499020 0.275030 0.498610 -0.119820
N4    N     N_1   0.499020 0.724970 0.498610 -0.127328
C57   C     C_3   0.498310 0.907618 0.497518 -0.298437
C58   C     C_3   0.498888 0.092230 0.497302 -0.356509
C59   C     C_3   0.511516 0.053838 0.588899 0.397395
C60   C     C_3   0.502703 0.945952 0.591532 0.472338
C61   C     C_1   0.498900 0.195337 0.497887 0.438720
C62   C     C_1   0.498654 0.804624 0.498090 0.516891
Br1   Br    Br    0.646371 0.323211 0.581322 -0.336265
Br2   Br    Br    0.755751 0.698498 0.439535 -0.318327
Br3   Br    Br    0.867592 0.570492 0.233755 -0.239195
O13   O     O_3   0.025656 0.451669 0.260829 -0.627675
H2    H     H_    0.046923 0.417623 0.222497 0.371835
Br4   Br    Br    0.368080 0.365366 0.358946 -0.307009
Br5   Br    Br    0.134074 0.489127 0.222530 -0.229339
O14   O     O_3   0.256108 0.358409 0.396038 -0.641333
H3    H     H_    0.278474 0.309510 0.379976 0.391138
O15   O     O_3   0.975986 0.591687 0.278498 -0.628082
H4    H     H_    0.955283 0.637268 0.251031 0.370872
Br6   Br    Br    0.460816 0.309432 0.109500 -0.255824
Br7   Br    Br    0.390945 0.482537 0.087264 -0.274475
O16   O     O_3   0.453184 0.353380 0.926139 -0.629533
H5    H     H_    0.426900 0.369736 0.964655 0.393563
O17   O     O_3   0.410421 0.515972 0.913937 -0.679801
H6    H     H_    0.408606 0.536394 0.854547 0.366380
O18   O     O_3   0.457160 0.645004 0.925303 -0.593695
H7    H     H_    0.425285 0.673755 0.933639 0.403195
O19   O     O_3   0.534219 0.346215 0.914054 -0.653020
H8    H     H_    0.525246 0.331186 0.855249 0.388404
O20   O     O_3   0.445342 0.634277 0.082018 -0.613012
H9    H     H_    0.439061 0.629631 0.143254 0.367445
O21   O     O_3   0.550085 0.366907 0.069982 -0.648756
H10   H     H_    0.551535 0.300614 0.057863 0.411029
O22   O     O_3   0.587513 0.502807 0.921098 -0.655284
H11   H     H_    0.593565 0.449129 0.956677 0.404319
O23   O     O_3   0.548601 0.636987 0.912804 -0.585689
H12   H     H_    0.581809 0.661427 0.920945 0.394069
Br8   Br    Br    0.605507 0.526639 0.104496 -0.272213
Br9   Br    Br    0.542457 0.687150 0.085515 -0.229884
Br10  Br    Br    0.424085 0.116677 0.366086 -0.213111
Br11  Br    Br    0.443637 0.903248 0.337920 -0.251650
Br12  Br    Br    0.605249 0.907457 0.494081 -0.210725
Br13  Br    Br    0.601546 0.119498 0.447349 -0.240906
O24   O     O_3   0.544260 0.903604 0.364917 -0.676724
H13   H     H_    0.572923 0.927506 0.334240 0.387472
O25   O     O_3   0.527675 0.083104 0.351340 -0.640542
H14   H     H_    0.508812 0.036139 0.321610 0.393649
Br14  Br    Br    0.447915 0.908473 0.663597 -0.247391
Br15  Br    Br    0.478811 0.119008 0.681805 -0.299593
O26   O     O_3   0.541808 0.903724 0.631568 -0.615758
H15   H     H_    0.543637 0.927212 0.690011 0.402680
O27   O     O_3   0.560670 0.070093 0.605834 -0.625000
H16   H     H_    0.565552 0.136671 0.613926 0.377962
Br16  Br    Br    0.391070 0.879047 0.493516 -0.225504
Br17  Br    Br    0.395716 0.090021 0.543598 -0.227863
Br18  Br    Br    0.874635 0.566564 0.747559 -0.252891
Br19  Br    Br    0.357378 0.635436 0.625657 -0.343377
O28   O     O_3   0.246259 0.612838 0.581159 -0.640655
H17   H     H_    0.265422 0.665810 0.600813 0.390072
Br20  Br    Br    0.128034 0.360785 0.727179 -0.182588
Br21  Br    Br    0.011610 0.340747 0.702216 -0.304968
O29   O     O_3   0.982793 0.532882 0.707822 -0.657702
H18   H     H_    0.964653 0.524351 0.760687 0.389887
O30   O     O_3   0.643510 0.652196 0.433618 -0.643707
H19   H     H_    0.664037 0.693786 0.399893 0.386843

loop_
_geom_bond_atom_site_label_1
_geom_bond_atom_site_label_2
_geom_bond_distance
_ccdc_geom_bond_type
C53   Br16  1.972923 S    
O19   H8    0.993093 S    
C56   O25   1.412028 S    
C10   H1    1.083305 S    
C42   O18   1.415058 S    
O16   H5    0.984610 S    
C12   C15   1.414916 A    
C49   O22   1.416865 S    
C55   C57   1.608655 S    
C22   Br20  1.937772 S    
O17   H6    0.992868 S    
C6    O11   1.347053 S    
O26   H15   0.993438 S    
C31   C32   1.402887 A    
C53   Br11  1.974335 S    
Cu1   O7    1.949303 S    
C60   Br14  1.976507 S    
C55   Br12  1.984947 S    
N1    C11   1.439771 S    
C56   Br13  1.974737 S    
C45   C50   1.198174 T    
C37   Br3   1.939438 S    
C23   C24   1.417332 A    
C1    C52   1.421508 S    
O4    C2    1.286173 A    
O7    C4    1.283689 A    
C44   Br6   1.987011 S    
C5    C13   1.413423 A    
C21   Br21  1.941753 S    
C5    O9    1.346952 S    
C41   C46   1.590668 S    
C54   Br10  1.973773 S    
Cu1   O5    1.930059 S    
C21   C22   1.406616 A    
C28   C32   1.404735 A    
C39   Br5   1.939166 S    
O5    C3    1.278454 A    
C48   Br8   1.977355 S    
C38   C39   1.412517 A    
C36   O29   1.384009 S    
C33   C36   1.415227 A    
C2    C16   1.485331 S    
C25   C39   1.419465 A    
C7    C8    1.414997 A    
C51   C52   1.198590 T    
C55   O24   1.406922 S    
O22   H11   0.985597 S    
C18   C20   1.409930 A    
C28   O28   1.382298 S    
C30   Br4   1.937716 S    
C31   O14   1.382499 S    
C58   C59   1.603059 S    
C41   C44   1.592757 S    
C46   C49   1.591439 S    
C42   C43   1.586568 S    
N3    C61   1.169002 T    
C9    C10   1.392712 A    
C17   C30   1.414987 A    
C23   C27   1.414097 A    
C4    C17   1.474788 S    
O3    Cu1   1.944127 S    
C7    Br2   1.932208 S    
C19   C38   1.416023 A    
Cu1   N3    1.980983 S    
C3    C45   1.420416 S    
C47   C50   1.467373 S    
O29   H18   0.987315 S    
C12   C13   1.416172 A    
O3    C2    1.288761 A    
O15   H4    0.988770 S    
C37   C40   1.411782 A    
C59   C60   1.598878 S    
N4    C62   1.168586 T    
C8    C16   1.420659 A    
C13   C14   1.420417 A    
O13   H2    0.988554 S    
C60   O26   1.408907 S    
Cu2   N4    1.981635 S    
C20   C24   1.415216 A    
O1    C1    1.279404 A    
C22   C23   1.421835 A    
C8    O30   1.383826 S    
C44   C47   1.598923 S    
C7    C11   1.405303 A    
C41   O16   1.416122 S    
C48   Br9   1.975826 S    
C24   C25   1.414258 A    
O4    Cu2   1.949058 S    
C59   Br15  1.986457 S    
O18   H7    0.993637 S    
Cu2   O8    1.944379 S    
N1    C6    1.365873 A    
C27   O10   1.346502 S    
C18   C21   1.416333 A    
C41   O19   1.412928 S    
C19   C35   1.427129 A    
C53   C54   1.608345 S    
C14   Br18  1.941093 S    
N2    C27   1.367020 A    
C9    C16   1.415887 A    
O8    C4    1.285686 A    
C48   C49   1.594767 S    
C18   C33   1.419755 A    
C53   C57   1.601952 S    
O27   H16   0.992858 S    
C42   O17   1.414648 S    
C54   Br17  1.964819 S    
C14   C36   1.415824 A    
C28   C29   1.414508 A    
N2    C32   1.442082 S    
O28   H17   0.987630 S    
C26   O12   1.347121 S    
C54   C58   1.606283 S    
C44   O21   1.408719 S    
C30   C31   1.409917 A    
O21   H10   0.992815 S    
C58   C61   1.512431 S    
C12   C34   1.414665 A    
C5    N1    1.366112 A    
C46   C51   1.471381 S    
C33   C34   1.411290 A    
C40   O15   1.383561 S    
O1    Cu1   1.929864 S    
C35   C40   1.416598 A    
C29   Br19  1.936310 S    
O2    Cu2   1.929473 S    
C6    C15   1.410406 A    
C55   C56   1.618042 S    
O6    C3    1.278627 A    
C57   C62   1.510916 S    
C38   O13   1.383647 S    
O25   H14   0.982394 S    
C15   C37   1.419207 A    
O30   H19   0.987641 S    
C42   C46   1.587210 S    
C43   C47   1.602370 S    
C47   C48   1.600899 S    
O2    C1    1.279638 A    
O24   H13   0.993316 S    
C19   C20   1.414398 A    
C43   O20   1.409507 S    
C25   C26   1.409909 A    
C49   O23   1.410308 S    
C17   C29   1.414525 A    
Cu1   Cu2   2.637952 S    
C26   N2    1.366223 A    
C57   C60   1.603303 S    
C9    Br1   1.923356 S    
Cu2   O6    1.930451 S    
C34   C35   1.415938 A    
O20   H9    0.992137 S    
C56   C58   1.599062 S    
C10   C11   1.395991 A    
O14   H3    0.988004 S    
O23   H12   0.993721 S    
C59   O27   1.408718 S    
C43   Br7   1.979427 S    
