data_mof_unit_57159.cif
_audit_creation_date              2012-12-10T17:03:28-0500
_audit_creation_method            fapswitch 2.2
_symmetry_space_group_name_H-M    P1
_symmetry_Int_Tables_number       1
_space_group_crystal_system       triclinic
_cell_length_a                    15.057234
_cell_length_b                    11.039879
_cell_length_c                    9.819673
_cell_angle_alpha                 111.023176
_cell_angle_beta                  98.066468
_cell_angle_gamma                 91.134241
_cell_volume                      1504.24418695

loop_
_atom_site_label
_atom_site_type_symbol
_atom_type_description
_atom_site_fract_x
_atom_site_fract_y
_atom_site_fract_z
_atom_type_partial_charge
C1    C     C_R   0.493461 0.254158 0.440727 0.866550
C2    C     C_R   0.506539 0.745842 0.559273 0.866550
C3    C     C_R   0.065732 0.435776 0.714518 -0.207370
C4    C     C_R   0.934268 0.564222 0.285481 -0.207364
C5    C     C_2   0.489898 0.114916 0.407329 -0.353549
C6    C     C_2   0.510102 0.885084 0.592671 -0.353549
C7    C     C_2   0.501700 0.069545 0.516664 -0.154457
C8    C     C_2   0.498300 0.930455 0.483336 -0.154457
C9    C     C_2   0.507697 0.510343 0.081239 -0.074952
C10   C     C_2   0.492303 0.489657 0.918760 -0.074953
C11   C     C_R   0.328854 0.501186 0.501650 0.811024
C12   C     C_R   0.671145 0.498813 0.498350 0.811024
C13   C     C_R   0.804529 0.526666 0.388551 -0.229081
C14   C     C_R   0.195471 0.473336 0.611450 -0.229080
C15   C     C_R   0.767545 0.495794 0.495729 -0.073318
C16   C     C_R   0.232455 0.504205 0.504271 -0.073319
C17   C     C_R   0.822734 0.464045 0.603203 -0.238317
C18   C     C_R   0.177265 0.535952 0.396795 -0.238316
C19   C     C_R   0.915983 0.464019 0.606394 0.101621
C20   C     C_R   0.084016 0.535979 0.393605 0.101620
C21   C     C_R   0.953340 0.498350 0.499258 0.014745
C22   C     C_R   0.046660 0.501651 0.500744 0.014745
C23   C     C_R   0.897236 0.529342 0.390312 0.077109
C24   C     C_R   0.102764 0.470659 0.609690 0.077111
C25   C     C_R   0.972731 0.431106 0.713787 0.169706
C26   C     C_R   0.027269 0.568887 0.286208 0.169711
Cu1   Cu    Cu3+1 0.515770 0.521810 0.644910 0.940040
Cu2   Cu    Cu3+1 0.484230 0.478190 0.355090 0.940040
H1    H     H_    0.761294 0.551591 0.305922 0.143440
H2    H     H_    0.238706 0.448411 0.694080 0.143440
H3    H     H_    0.791973 0.439003 0.683724 0.168104
H4    H     H_    0.208027 0.560990 0.316272 0.168105
H5    H     H_    0.109631 0.411308 0.796798 0.140585
H6    H     H_    0.890368 0.588686 0.203198 0.140585
H7    H     H_    0.486018 0.864813 0.368302 0.180849
H8    H     H_    0.513982 0.135187 0.631698 0.180848
H9    H     H_    0.522402 0.951023 0.707505 0.151393
H10   H     H_    0.477597 0.048977 0.292495 0.151393
H11   H     H_    0.439766 0.417683 0.845902 0.156067
H12   H     H_    0.560234 0.582317 0.154098 0.156066
H13   H     H_    0.588987 0.622226 0.934280 0.190456
H14   H     H_    0.411013 0.377774 0.065719 0.190456
N1    N     N_2   0.460520 0.445420 0.137370 -0.286158
N2    N     N_2   0.539480 0.554580 0.862630 -0.286158
O1    O     O_R   0.508410 0.332340 0.577400 -0.581481
O2    O     O_R   0.491590 0.667660 0.422600 -0.581481
O3    O     O_R   0.481780 0.295500 0.332650 -0.572436
O4    O     O_R   0.518220 0.704500 0.667350 -0.572436
O5    O     O_R   0.383570 0.518390 0.622380 -0.581657
O6    O     O_R   0.616430 0.481610 0.377620 -0.581658
O7    O     O_R   0.356940 0.481550 0.377630 -0.580067
O8    O     O_R   0.643060 0.518450 0.622370 -0.580067
C27   C     C_3   0.935936 0.389432 0.826835 -0.884435
H15   H     H_    0.900167 0.469131 0.897608 0.229011
H16   H     H_    0.888724 0.301436 0.770070 0.235959
H17   H     H_    0.989992 0.364860 0.899729 0.240618
C28   C     C_3   0.064060 0.610543 0.173147 -0.884455
H18   H     H_    0.099824 0.530838 0.102380 0.229014
H19   H     H_    0.010005 0.635109 0.100246 0.240621
H20   H     H_    0.111274 0.698536 0.229895 0.235962

loop_
_geom_bond_atom_site_label_1
_geom_bond_atom_site_label_2
_ccdc_geom_bond_type
Cu1   O4    S    
C4    C26   A    
Cu2   O3    S    
C15   C17   A    
C11   O5    A    
C4    H6    S    
C11   C16   S    
C12   O8    A    
Cu2   N1    S    
C12   O6    A    
C12   C15   S    
C1    O1    A    
Cu1   O1    S    
C27   H16   S    
C3    C24   A    
C6    H9    S    
C7    C8    S    
C21   C22   A    
C2    O2    A    
C26   C28   S    
Cu2   O2    S    
C28   H18   S    
C2    C6    S    
C20   C26   A    
C14   H2    S    
C1    C5    S    
C22   C24   A    
C13   H1    S    
H13   N2    S    
C20   C22   A    
C9    C10   S    
C18   C20   A    
C21   C23   A    
C13   C15   A    
C17   H3    S    
Cu2   O7    S    
C14   C16   A    
C9    N1    D    
C28   H19   S    
C11   O7    A    
H14   N1    S    
C3    H5    S    
C19   C25   A    
C10   N2    D    
C17   C19   A    
C3    C25   A    
C18   H4    S    
Cu1   O8    S    
C13   C23   A    
C16   C18   A    
C7    H8    S    
C27   H17   S    
C14   C24   A    
Cu1   Cu2   S    
C5    C7    D    
C4    C23   A    
C1    O3    A    
C28   H20   S    
C6    C8    D    
C2    O4    A    
C5    H10   S    
Cu2   O6    S    
Cu1   N2    S    
C9    H12   S    
Cu1   O5    S    
C27   H15   S    
C25   C27   S    
C10   H11   S    
C19   C21   A    
C8    H7    S    
