data_mof_unit_27693.cif
_audit_creation_date              2012-12-10T17:42:10-0500
_audit_creation_method            fapswitch 2.2
_symmetry_space_group_name_H-M    P1
_symmetry_Int_Tables_number       1
_space_group_crystal_system       triclinic
_cell_length_a                    15.036828
_cell_length_b                    13.697746
_cell_length_c                    10.731598
_cell_angle_alpha                 90.039993
_cell_angle_beta                  89.543518
_cell_angle_gamma                 89.395844
_cell_volume                      2210.20051587

loop_
_atom_site_label
_atom_site_type_symbol
_atom_type_description
_atom_site_fract_x
_atom_site_fract_y
_atom_site_fract_z
_atom_type_partial_charge
C1    C     C_R   0.328892 0.500474 0.503754 0.821788
C2    C     C_3   0.586634 0.544758 0.927147 -0.364431
C3    C     C_R   0.814754 0.547661 0.415533 -0.341579
C4    C     C_R   0.767561 0.497761 0.507563 -0.141164
C5    C     C_R   0.811765 0.447008 0.603307 0.385672
C6    C     C_R   0.905349 0.454187 0.611212 0.005241
C7    C     C_R   0.953069 0.501376 0.514817 0.015869
C8    C     C_R   0.907232 0.547729 0.416483 0.121391
C9    C     C_R   0.952138 0.416783 0.713520 -0.218718
C10   C     C_R   0.044510 0.417547 0.715343 -0.219027
C11   C     C_R   0.093482 0.458766 0.616523 0.108601
C12   C     C_R   0.499773 0.499833 0.259653 0.749560
C13   C     C_R   0.046749 0.502983 0.516881 0.039206
C14   C     C_R   0.093361 0.548956 0.418891 0.110496
C15   C     C_R   0.046988 0.594470 0.321876 -0.202892
C16   C     C_R   0.954466 0.594323 0.321039 -0.194721
C17   C     C_R   0.187634 0.457991 0.615331 0.133353
C18   C     C_R   0.232572 0.501722 0.513546 -0.062028
C19   C     C_R   0.185729 0.548265 0.418495 -0.306577
C20   C     C_R   0.450852 0.793961 0.587238 0.010446
C21   C     C_R   0.451419 0.207300 0.587867 0.008500
C22   C     C_R   0.549000 0.792751 0.412679 0.011269
C23   C     C_R   0.547482 0.206026 0.411057 -0.019954
C24   C     C_R   0.549762 0.895801 0.410177 -0.003986
C25   C     C_R   0.548887 0.102991 0.409248 0.006118
C26   C     C_R   0.671171 0.499372 0.502536 0.877087
C27   C     C_R   0.499680 0.948215 0.499721 0.084610
C28   C     C_R   0.499430 0.051843 0.499458 0.079180
C29   C     C_R   0.449874 0.897049 0.589549 -0.004926
C30   C     C_R   0.449990 0.104272 0.589685 -0.005668
C31   C     C_R   0.599186 0.947469 0.320638 -0.204794
C32   C     C_R   0.598650 0.050111 0.320073 -0.202993
C33   C     C_R   0.400679 0.052623 0.679342 -0.203904
C34   C     C_R   0.400486 0.949970 0.679135 -0.203204
C35   C     C_R   0.499746 0.499882 0.740394 0.765352
C36   C     C_3   0.418807 0.558829 0.072988 -0.374940
C37   C     C_3   0.493330 0.393240 0.071313 -0.365811
C38   C     C_3   0.419194 0.559509 0.929242 -0.390970
C39   C     C_3   0.492846 0.393331 0.928662 -0.376068
C40   C     C_3   0.586403 0.545265 0.071018 -0.398331
C41   C     C_3   0.499583 0.499302 0.121802 0.166433
C42   C     C_3   0.499568 0.499385 0.878279 0.159119
Cu1   Cu    Cu3+1 0.499990 0.597420 0.500010 0.933677
Cu2   Cu    Cu3+1 0.499990 0.402580 0.500010 0.924689
H1    H     H_    0.421137 0.635318 0.107803 0.172834
H2    H     H_    0.550858 0.348628 0.104239 0.163386
H3    H     H_    0.076589 0.385061 0.795247 0.157336
H4    H     H_    0.221794 0.582384 0.342360 0.143136
H5    H     H_    0.082349 0.630188 0.246551 0.139983
H6    H     H_    0.919816 0.630169 0.245325 0.138897
H7    H     H_    0.412454 0.753584 0.655213 0.124300
H8    H     H_    0.413683 0.248630 0.656564 0.126577
H9    H     H_    0.587530 0.751436 0.344819 0.121723
H10   H     H_    0.585376 0.246370 0.342510 0.122623
H11   H     H_    0.638161 0.908519 0.250930 0.133571
H12   H     H_    0.637263 0.088111 0.249995 0.132642
H13   H     H_    0.362214 0.091596 0.749579 0.134729
H14   H     H_    0.361817 0.911990 0.749169 0.135113
H15   H     H_    0.355776 0.526457 0.107986 0.147634
H16   H     H_    0.431548 0.358233 0.106567 0.170684
H17   H     H_    0.355964 0.528509 0.894822 0.154047
H18   H     H_    0.430598 0.358928 0.895345 0.161388
H19   H     H_    0.422561 0.636245 0.895602 0.168643
H20   H     H_    0.549834 0.348235 0.893775 0.172654
H21   H     H_    0.592362 0.621694 0.105028 0.164500
H22   H     H_    0.645200 0.503615 0.105543 0.149232
H23   H     H_    0.593424 0.620862 0.892328 0.170478
H24   H     H_    0.645132 0.502175 0.892043 0.185651
H25   H     H_    0.779048 0.584888 0.341662 0.148943
H26   H     H_    0.917993 0.386575 0.793357 0.160833
N1    N     N_R   0.499930 0.743810 0.499950 -0.182239
N2    N     N_R   0.499930 0.256190 0.499950 -0.186759
O1    O     O_R   0.370250 0.582280 0.500040 -0.581403
O2    O     O_R   0.370250 0.417720 0.500040 -0.571724
O3    O     O_R   0.499970 0.582270 0.317700 -0.594899
O4    O     O_R   0.499970 0.417730 0.317700 -0.593521
O5    O     O_R   0.629730 0.582260 0.499980 -0.583022
O6    O     O_R   0.629730 0.417740 0.499980 -0.581470
O7    O     O_R   0.500000 0.582270 0.682320 -0.591356
O8    O     O_R   0.500000 0.417730 0.682320 -0.602035
C43   C     C_3   0.238548 0.413045 0.723112 -0.920711
H27   H     H_    0.311421 0.421492 0.716132 0.230618
H28   H     H_    0.217927 0.448941 0.811655 0.220478
H29   H     H_    0.224617 0.333719 0.728615 0.233984
O9    O     O_3   0.761400 0.400156 0.694231 -0.629038
C44   C     C_3   0.779907 0.298235 0.697130 0.019070
H30   H     H_    0.799133 0.278909 0.793858 0.156622
H31   H     H_    0.835191 0.273833 0.633912 0.130600
C45   C     C_3   0.696701 0.241169 0.663891 -0.286722
H32   H     H_    0.638375 0.270719 0.716361 0.236892
H33   H     H_    0.684713 0.249251 0.562757 0.230724
C46   C     C_3   0.707703 0.132719 0.693234 -0.947031
H34   H     H_    0.764579 0.101174 0.639567 0.259353
H35   H     H_    0.646410 0.093466 0.667229 0.268181
H36   H     H_    0.719147 0.121923 0.794435 0.252900

loop_
_geom_bond_atom_site_label_1
_geom_bond_atom_site_label_2
_ccdc_geom_bond_type
Cu1   O1    S    
C27   C29   A    
C24   C27   A    
C36   H15   S    
C6    C9    A    
C43   H27   S    
C7    C8    A    
O9    C44   S    
C25   C28   A    
C39   H20   S    
C1    C18   S    
C26   O6    A    
C1    O2    A    
C3    H25   S    
C16   H6    S    
C38   C42   S    
C20   H7    S    
C2    H24   S    
C5    C6    A    
C44   H31   S    
Cu1   O7    S    
C15   C16   A    
C35   O8    A    
C18   C19   A    
C35   O7    A    
Cu2   O4    S    
C35   C42   S    
C39   C42   S    
Cu1   N1    S    
C20   N1    A    
C45   H33   S    
C9    C10   A    
C38   H17   S    
C5    O9    S    
C25   C32   A    
C23   C25   A    
C8    C16   A    
C40   H22   S    
C13   C14   A    
C36   C41   S    
C23   N2    A    
C43   H28   S    
C17   C18   A    
C22   H9    S    
C20   C29   A    
Cu1   O3    S    
C26   O5    A    
C21   N2    A    
Cu2   O8    S    
C9    H26   S    
C3    C8    A    
C44   H30   S    
C29   C34   A    
C46   H36   S    
Cu1   Cu2   S    
C12   C41   S    
C31   C32   A    
C46   H35   S    
C33   C34   A    
C36   H1    S    
C45   C46   S    
Cu2   O2    S    
C40   C41   S    
C2    H23   S    
C40   H21   S    
C12   O4    A    
C22   C24   A    
C3    C4    A    
C22   N1    A    
C10   H3    S    
C43   H29   S    
C23   H10   S    
C38   H19   S    
C39   H18   S    
C11   C17   A    
C33   H13   S    
C30   C33   A    
C19   H4    S    
C14   C19   A    
C4    C5    A    
C44   C45   S    
C4    C26   S    
C6    C7    A    
Cu1   O5    S    
C21   C30   A    
C1    O1    A    
Cu2   O6    S    
C45   H32   S    
C24   C31   A    
C28   C30   A    
C37   C39   S    
C11   C13   A    
C2    C42   S    
C36   C38   S    
C46   H34   S    
Cu2   N2    S    
C17   C43   S    
C15   H5    S    
C37   C41   S    
C37   H16   S    
C10   C11   A    
C2    C40   S    
C7    C13   A    
C12   O3    A    
C27   C28   A    
C34   H14   S    
C14   C15   A    
C31   H11   S    
C37   H2    S    
C32   H12   S    
C21   H8    S    
