data_mof_unit_53772.cif
_audit_creation_date              2012-12-11T15:34:08-0500
_audit_creation_method            fapswitch 2.2
_symmetry_space_group_name_H-M    P1
_symmetry_Int_Tables_number       1
_space_group_crystal_system       triclinic
_cell_length_a                    15.049661
_cell_length_b                    15.065763
_cell_length_c                    34.920253
_cell_angle_alpha                 90.673924
_cell_angle_beta                  90.115458
_cell_angle_gamma                 60.088343
_cell_volume                      6862.42255578

loop_
_atom_site_label
_atom_site_type_symbol
_atom_type_description
_atom_site_fract_x
_atom_site_fract_y
_atom_site_fract_z
_atom_type_partial_charge
C1    C     C_R   0.302201 0.608410 0.555724 0.553633
C2    C     C_R   0.662457 0.660538 0.668358 0.057923
C3    C     C_R   0.276391 0.640971 0.265043 -0.091867
C4    C     C_R   0.210193 0.622605 0.287577 0.039051
C5    C     C_R   0.142141 0.596980 0.269911 -0.134939
C6    C     C_R   0.135573 0.596472 0.230126 -0.089551
C7    C     C_R   0.197164 0.621323 0.207736 0.063860
C8    C     C_R   0.226413 0.546844 0.351422 -0.150485
C9    C     C_R   0.245066 0.544822 0.390470 -0.132662
C10   C     C_R   0.227911 0.713295 0.387136 -0.105735
C11   C     C_R   0.208135 0.716409 0.347769 0.108082
C12   C     C_R   0.212794 0.629964 0.329549 0.054978
C13   C     C_R   0.566732 0.720060 0.650885 -0.153692
C14   C     C_R   0.251278 0.625674 0.408251 -0.002910
C15   C     C_R   0.735880 0.025526 0.943329 0.541187
C16   C     C_R   0.745842 0.722816 0.945066 0.543157
C17   C     C_R   0.038607 0.733728 0.948445 0.542050
C18   C     C_R   0.722946 0.038968 0.052950 0.562098
C19   C     C_R   0.733387 0.734493 0.054696 0.540045
C20   C     C_R   0.027487 0.745028 0.058076 0.591954
C21   C     C_R   0.551786 0.702095 0.612896 -0.146604
C22   C     C_R   0.674137 0.673328 0.787984 0.337243
C23   C     C_R   0.669869 0.667217 0.710338 0.353217
C24   C     C_R   0.760098 0.597155 0.849927 -0.122514
C25   C     C_R   0.776492 0.608398 0.888524 -0.131444
C26   C     C_R   0.629264 0.779782 0.888751 -0.132176
C27   C     C_R   0.612995 0.768605 0.850140 -0.124078
C28   C     C_R   0.680835 0.678796 0.829981 0.035059
C29   C     C_R   0.610818 0.588575 0.555175 0.546518
C30   C     C_R   0.713848 0.701447 0.907836 0.022593
C31   C     C_R   0.722539 0.073174 0.905544 0.022230
C32   C     C_R   0.633208 0.100167 0.884416 -0.123853
C33   C     C_R   0.629334 0.121509 0.845592 -0.120787
C34   C     C_R   0.714129 0.117391 0.827288 0.030951
C35   C     C_R   0.800259 0.098836 0.848884 -0.119637
C36   C     C_R   0.804631 0.076510 0.887788 -0.126682
C37   C     C_R   0.740945 0.192840 0.768132 -0.121100
C38   C     C_R   0.734808 0.204346 0.728449 -0.083326
C39   C     C_R   0.704078 0.147256 0.705465 0.039064
C40   C     C_R   0.590349 0.300496 0.553560 0.541886
C41   C     C_R   0.681561 0.077112 0.722693 -0.126001
C42   C     C_R   0.686561 0.066496 0.762321 -0.114401
C43   C     C_R   0.714622 0.125497 0.785346 0.022059
C44   C     C_R   0.588957 0.190931 0.649512 -0.149143
C45   C     C_R   0.561083 0.226938 0.612441 -0.132302
C46   C     C_R   0.726369 0.214497 0.602999 -0.103865
C47   C     C_R   0.755668 0.176997 0.640270 0.109174
C48   C     C_R   0.684511 0.169147 0.664234 0.053020
C49   C     C_R   0.627938 0.242770 0.589370 -0.002341
C50   C     C_R   0.093887 0.695780 0.911763 0.022432
C51   C     C_R   0.300748 0.609739 0.445879 0.540967
C52   C     C_R   0.126336 0.755330 0.891973 -0.124763
C53   C     C_R   0.152602 0.736108 0.853365 -0.119976
C54   C     C_R   0.147843 0.656529 0.834009 0.030825
C55   C     C_R   0.125175 0.590767 0.854521 -0.117182
C56   C     C_R   0.098177 0.610336 0.893195 -0.124800
C57   C     C_R   0.220681 0.555349 0.773545 -0.089255
C58   C     C_R   0.231271 0.549952 0.733463 0.120296
C59   C     C_R   0.174287 0.639813 0.711802 0.057534
C60   C     C_R   0.107636 0.732440 0.730495 -0.140480
C61   C     C_R   0.099029 0.737126 0.770163 -0.120609
C62   C     C_R   0.607737 0.589467 0.445169 0.542230
C63   C     C_R   0.156450 0.649106 0.791978 0.008827
C64   C     C_R   0.216824 0.710322 0.655427 -0.144201
C65   C     C_R   0.245182 0.704096 0.617243 -0.155486
C66   C     C_R   0.213653 0.562051 0.606860 0.092408
C67   C     C_R   0.185043 0.569324 0.645571 -0.076246
C68   C     C_R   0.190448 0.640582 0.670189 0.016889
C69   C     C_R   0.248531 0.627415 0.592936 0.045832
C70   C     C_R   0.691109 0.718329 0.090315 0.020831
C71   C     C_R   0.604823 0.800081 0.108027 -0.128479
C72   C     C_R   0.577151 0.790471 0.145234 -0.123837
C73   C     C_R   0.587528 0.303312 0.443466 0.552221
C74   C     C_R   0.635100 0.698948 0.165289 0.031732
C75   C     C_R   0.716720 0.615007 0.146498 -0.119431
C76   C     C_R   0.744373 0.624560 0.109378 -0.124906
C77   C     C_R   0.630172 0.603393 0.222670 -0.120178
C78   C     C_R   0.629805 0.593297 0.262286 -0.117933
C79   C     C_R   0.617171 0.673568 0.286689 0.028321
C80   C     C_R   0.600386 0.765755 0.270882 -0.115115
C81   C     C_R   0.601500 0.775646 0.231230 -0.112993
C82   C     C_R   0.618559 0.693745 0.206758 0.028574
C83   C     C_R   0.548024 0.734042 0.352726 -0.118516
C84   C     C_R   0.632297 0.624040 0.591630 0.000348
C85   C     C_R   0.547536 0.714869 0.391720 -0.125504
C86   C     C_R   0.702535 0.550745 0.383254 -0.124997
C87   C     C_R   0.702393 0.569574 0.344284 -0.122346
C88   C     C_R   0.623326 0.659789 0.328524 0.029993
C89   C     C_R   0.622810 0.621396 0.407092 0.021650
C90   C     C_R   0.699113 0.103849 0.087832 0.058243
C91   C     C_R   0.775843 0.120745 0.103394 -0.160327
C92   C     C_R   0.765126 0.162530 0.139993 -0.141044
C93   C     C_R   0.677320 0.188684 0.161834 0.012151
C94   C     C_R   0.596404 0.181133 0.145170 -0.111435
C95   C     C_R   0.730459 0.570976 0.607757 -0.108155
C96   C     C_R   0.606262 0.139307 0.108370 0.095531
C97   C     C_R   0.583442 0.282386 0.221309 -0.120888
C98   C     C_R   0.577118 0.289258 0.261123 -0.118507
C99   C     C_R   0.662512 0.224902 0.283442 0.026385
C100  C     C_R   0.755749 0.157336 0.265525 -0.116978
C101  C     C_R   0.761902 0.149741 0.225712 -0.113265
C102  C     C_R   0.675076 0.210387 0.203262 0.029218
C103  C     C_R   0.723313 0.236543 0.348622 -0.136832
C104  C     C_R   0.706535 0.251305 0.387931 -0.156578
C105  C     C_R   0.553383 0.236101 0.381723 0.101709
C106  C     C_R   0.746715 0.589054 0.645941 0.104866
C107  C     C_R   0.570662 0.222589 0.342091 -0.099778
C108  C     C_R   0.652904 0.226854 0.325353 0.007967
C109  C     C_R   0.618895 0.256737 0.404741 0.044975
C110  C     C_R   0.086826 0.707798 0.094021 0.075135
C111  C     C_R   0.132262 0.603258 0.104245 0.068854
C112  C     C_R   0.174071 0.572130 0.141224 0.104124
C113  C     C_R   0.172586 0.644691 0.167153 0.027670
C114  C     C_R   0.135260 0.745631 0.155897 -0.158947
C115  C     C_R   0.091663 0.778234 0.119964 0.058364
C116  C     C_R   0.269264 0.641243 0.225302 -0.128410
Cr1   Cr    Cr6+3 0.421670 0.426920 0.499620 1.047771
Cr2   Cr    Cr6+3 0.427030 0.651190 0.500980 1.008763
Cr3   Cr    Cr6+3 0.651280 0.421870 0.499380 1.007585
Cr4   Cr    Cr6+3 0.910810 0.908010 0.001130 1.022891
Cr5   Cr    Cr6+3 0.682800 0.909890 0.998370 1.026112
Cr6   Cr    Cr6+3 0.908370 0.682300 0.002180 1.030483
H1    H     H_    0.793678 0.512421 0.591126 0.123086
H2    H     H_    0.874516 0.055970 0.903312 0.125929
H3    H     H_    0.750106 0.260767 0.715873 0.157199
H4    H     H_    0.762390 0.239206 0.785481 0.114861
H5    H     H_    0.561398 0.137659 0.829481 0.107596
H6    H     H_    0.667588 0.012816 0.775094 0.122348
H7    H     H_    0.533274 0.185538 0.667481 0.117985
H8    H     H_    0.484705 0.248109 0.602736 0.151389
H9    H     H_    0.866323 0.095693 0.835208 0.106901
H10   H     H_    0.475345 0.744692 0.601085 0.133884
H11   H     H_    0.779186 0.224872 0.585137 0.120143
H12   H     H_    0.124774 0.821113 0.905540 0.128717
H13   H     H_    0.073789 0.562915 0.907714 0.127894
H14   H     H_    0.161084 0.517782 0.656809 0.135975
H15   H     H_    0.171912 0.786461 0.838107 0.109804
H16   H     H_    0.063335 0.801813 0.714298 0.112103
H17   H     H_    0.047391 0.809825 0.783903 0.118909
H18   H     H_    0.270861 0.755588 0.607475 0.132214
H19   H     H_    0.121440 0.528726 0.840051 0.110679
H20   H     H_    0.561953 0.873221 0.093993 0.132759
H21   H     H_    0.810962 0.560045 0.096444 0.128505
H22   H     H_    0.762358 0.512134 0.326178 0.104120
H23   H     H_    0.640442 0.522303 0.273923 0.112578
H24   H     H_    0.641726 0.539737 0.204486 0.107228
H25   H     H_    0.512847 0.855828 0.158854 0.101148
H26   H     H_    0.590515 0.828555 0.289219 0.103280
H27   H     H_    0.593853 0.845641 0.219829 0.104516
H28   H     H_    0.484990 0.770701 0.409348 0.122836
H29   H     H_    0.763440 0.543758 0.161296 0.103310
H30   H     H_    0.847086 0.096452 0.088157 0.141753
H31   H     H_    0.518522 0.211054 0.324043 0.099901
H32   H     H_    0.505058 0.343616 0.274559 0.114691
H33   H     H_    0.515928 0.331144 0.204664 0.114124
H34   H     H_    0.501270 0.776225 0.667261 0.134990
H35   H     H_    0.833101 0.092430 0.212621 0.101639
H36   H     H_    0.788032 0.238712 0.336137 0.108012
H37   H     H_    0.758888 0.265425 0.404745 0.128439
H38   H     H_    0.331623 0.657780 0.278263 0.145088
H39   H     H_    0.316916 0.660959 0.208287 0.110219
H40   H     H_    0.091256 0.581665 0.286911 0.103646
H41   H     H_    0.078331 0.582668 0.216892 0.120163
H42   H     H_    0.228967 0.480551 0.337857 0.110505
H43   H     H_    0.262059 0.476454 0.406077 0.151760
H44   H     H_    0.550250 0.832340 0.835718 0.130956
H45   H     H_    0.568407 0.098931 0.897269 0.129304
N1    N     N_R   0.742891 0.588587 0.768255 -0.237377
N2    N     N_R   0.740367 0.585406 0.730235 -0.176555
N3    N     N_R   0.600672 0.751844 0.730063 -0.251819
N4    N     N_R   0.603171 0.755062 0.768120 -0.242485
O1    O     O_R   0.502070 0.323090 0.541280 -0.506990
O2    O     O_R   0.520720 0.641670 0.461580 -0.501047
O3    O     O_R   0.674120 0.502090 0.457500 -0.521775
O4    O     O_R   0.640110 0.338380 0.459630 -0.515469
O5    O     O_3   0.499990 0.499990 0.499990 -0.242425
O6    O     O_R   0.017640 0.822070 0.960410 -0.523099
O7    O     O_R   0.822000 0.989470 0.960340 -0.504464
O8    O     O_R   0.666920 0.007430 0.955290 -0.520876
O9    O     O_R   0.694410 0.812480 0.959650 -0.503767
O10   O     O_R   0.831550 0.656950 0.958960 -0.520487
O11   O     O_R   0.998590 0.685540 0.963930 -0.500290
O12   O     O_R   0.338340 0.520690 0.539540 -0.459745
O13   O     O_R   0.008220 0.831200 0.045060 -0.479810
O14   O     O_R   0.813270 0.997930 0.038810 -0.510869
O15   O     O_R   0.657500 0.016560 0.039940 -0.470118
O16   O     O_R   0.685680 0.820940 0.038120 -0.501345
O17   O     O_R   0.822130 0.666070 0.043610 -0.515796
O18   O     O_R   0.989860 0.694000 0.042400 -0.470332
O19   O     O_3   0.833990 0.833400 0.000560 -0.248632
O20   O     O_R   0.324760 0.674070 0.543580 -0.533147
O21   O     O_R   0.522400 0.640310 0.540110 -0.502190
O22   O     O_R   0.675940 0.500630 0.542210 -0.516802
O23   O     O_R   0.641790 0.337020 0.538150 -0.503542
O24   O     O_R   0.500260 0.324550 0.456580 -0.477213
O25   O     O_R   0.336660 0.522040 0.461020 -0.499192
O26   O     O_R   0.322940 0.675540 0.458880 -0.521149
N5    N     N_3   0.856206 0.148844 0.654155 -0.639002
H46   H     H_    0.894993 0.069864 0.658696 0.229568
H47   H     H_    0.897918 0.162232 0.633367 0.224519
H48   H     H_    0.657931 0.032218 0.705509 0.114462
N6    N     N_3   0.302653 0.455074 0.714894 -0.640843
H49   H     H_    0.334744 0.395748 0.734706 0.223388
H50   H     H_    0.362895 0.463463 0.704232 0.239996
H51   H     H_    0.265106 0.487428 0.790476 0.100937
H52   H     H_    0.220809 0.766364 0.673986 0.117196
H53   H     H_    0.841889 0.546385 0.902547 0.129113
N7    N     N_3   0.210063 0.487035 0.582093 -0.602692
H54   H     H_    0.187409 0.442246 0.597335 0.215014
H55   H     H_    0.153170 0.526669 0.561728 0.218181
N8    N     N_3   0.847572 0.533456 0.662192 -0.595646
H56   H     H_    0.899696 0.480955 0.642311 0.217983
H57   H     H_    0.871748 0.586294 0.668094 0.229553
H58   H     H_    0.486473 0.804310 0.341134 0.107282
H59   H     H_    0.761525 0.477936 0.394137 0.126165
N9    N     N_3   0.523661 0.128632 0.093025 -0.603433
H60   H     H_    0.458237 0.201274 0.092401 0.218571
H61   H     H_    0.509182 0.083487 0.111692 0.218215
H62   H     H_    0.827687 0.169841 0.151932 0.106911
H63   H     H_    0.822389 0.107202 0.282334 0.103396
H64   H     H_    0.527755 0.201209 0.161574 0.103601
N10   N     N_3   0.467189 0.233572 0.398172 -0.605744
H65   H     H_    0.496237 0.168449 0.415218 0.228205
H66   H     H_    0.423226 0.224656 0.376869 0.209084
N11   N     N_3   0.134951 0.529546 0.077158 -0.616690
H67   H     H_    0.211260 0.473203 0.072412 0.221961
H68   H     H_    0.095471 0.495326 0.088684 0.227637
N12   N     N_3   0.046950 0.884685 0.111049 -0.602298
H69   H     H_    0.103949 0.904836 0.113354 0.224783
H70   H     H_    0.990358 0.927238 0.131509 0.221138
N13   N     N_3   0.186554 0.805289 0.325971 -0.646264
H71   H     H_    0.111089 0.837616 0.316248 0.229889
H72   H     H_    0.189546 0.860571 0.343443 0.217882
H73   H     H_    0.812814 0.526320 0.835333 0.133294
N14   N     N_3   0.217035 0.467730 0.152944 -0.644069
H74   H     H_    0.160580 0.446842 0.150886 0.220833
H75   H     H_    0.277428 0.420978 0.134459 0.225220
H76   H     H_    0.133951 0.801476 0.176119 0.115760
H77   H     H_    0.230776 0.776820 0.400730 0.122887
H78   H     H_    0.579193 0.852235 0.902937 0.128510

loop_
_geom_bond_atom_site_label_1
_geom_bond_atom_site_label_2
_ccdc_geom_bond_type
C44   C48   A    
C55   C56   A    
C98   H32   S    
C37   C43   A    
C101  C102  A    
C55   H19   S    
C15   O8    A    
C52   H12   S    
C41   C42   A    
C10   H77   S    
C35   C36   A    
C100  C101  A    
C40   O1    A    
C9    C14   A    
Cr4   O14   S    
C38   H3    S    
N12   H70   S    
C97   C98   A    
C1    O12   A    
C39   C41   A    
C40   O23   A    
C77   C78   A    
C52   C53   A    
C99   C108  S    
C105  C107  A    
C46   C49   A    
C26   C27   A    
C93   C94   A    
N6    H50   S    
C53   H15   S    
C64   C68   A    
C36   H2    S    
N9    H61   S    
C37   H4    S    
C3    C116  A    
C5    H40   S    
Cr3   O3    S    
C65   C69   A    
C5    C6    A    
C59   C68   S    
C81   H27   S    
C66   C69   A    
N3    N4    A    
C16   C30   S    
C105  N10   S    
C62   O3    A    
C62   C89   S    
C57   H51   S    
C33   H5    S    
C34   C35   A    
C46   C47   A    
C61   C63   A    
C2    C13   A    
Cr4   O7    S    
C86   H59   S    
C79   C88   S    
C94   C96   A    
C51   O26   A    
C78   H23   S    
Cr3   O4    S    
Cr5   O15   S    
C85   H28   S    
C65   H18   S    
Cr2   O21   S    
C17   O11   A    
Cr6   O10   S    
C14   C51   S    
Cr2   O2    S    
C75   H29   S    
N7    H54   S    
C94   H64   S    
C50   C52   A    
N14   H74   S    
C47   N5    S    
C57   C63   A    
N5    H46   S    
C87   H22   S    
C4    C12   S    
C50   C56   A    
C13   H34   S    
C97   C102  A    
C90   C91   A    
C79   C80   A    
C42   H6    S    
C20   O13   A    
C22   N1    A    
C97   H33   S    
C66   C67   A    
Cr2   O5    S    
C59   C60   A    
C22   C28   S    
N14   H75   S    
C74   C82   S    
C95   H1    S    
C112  C113  A    
Cr6   O19   S    
Cr5   O9    S    
C31   C36   A    
N6    H49   S    
C67   C68   A    
C111  N11   S    
C24   C28   A    
C116  H39   S    
C33   C34   A    
N9    H60   S    
C29   C84   S    
Cr5   O8    S    
C74   C75   A    
C91   C92   A    
C85   C89   A    
C78   C79   A    
C8    C9    A    
N12   H69   S    
C58   C59   A    
C53   C54   A    
C62   O2    A    
C64   H52   S    
C15   C31   S    
C18   O15   A    
C81   C82   A    
C110  C111  A    
C60   C61   A    
Cr3   O22   S    
C84   C95   A    
C18   C90   S    
C7    C116  A    
C73   O4    A    
C92   H62   S    
N10   H66   S    
C75   C76   A    
C21   H10   S    
C37   C38   A    
Cr1   O24   S    
C95   C106  A    
Cr4   O19   S    
Cr3   O5    S    
Cr5   O16   S    
C66   N7    S    
Cr2   O20   S    
Cr6   O17   S    
C47   C48   A    
C23   N2    A    
C21   C84   A    
C45   C49   A    
C107  C108  A    
C16   O9    A    
C2    C23   S    
N11   H67   S    
C29   O21   A    
C13   C21   A    
C103  H36   S    
N13   H72   S    
C24   C25   A    
C90   C96   A    
Cr4   O13   S    
C40   C49   S    
C107  H31   S    
C71   H20   S    
C20   C110  S    
C1    O20   A    
Cr1   O5    S    
C72   C74   A    
N1    N2    A    
N13   H71   S    
C80   H26   S    
C26   C30   A    
C73   O24   A    
C8    H42   S    
C3    H38   S    
C80   C81   A    
C32   H45   S    
Cr6   O11   S    
C42   C43   A    
C104  H37   S    
C41   H48   S    
C3    C4    A    
C112  N14   S    
C35   H9    S    
C91   H30   S    
C20   O18   A    
C83   H58   S    
C44   C45   A    
Cr6   O18   S    
C113  C114  A    
C17   O6    A    
C25   C30   A    
N8    H57   S    
C105  C109  A    
C54   C55   A    
C11   N13   S    
C111  C112  A    
C83   C85   A    
C86   C87   A    
C31   C32   A    
C61   H17   S    
C34   C43   S    
C22   N4    A    
C4    C5    A    
C19   C70   S    
C86   C89   A    
C93   C102  S    
N5    H47   S    
C11   C12   A    
Cr1   O12   S    
Cr4   O6    S    
C114  C115  A    
C6    C7    A    
C17   C50   S    
C72   H25   S    
C18   O14   A    
C96   N9    S    
C99   C100  A    
C114  H76   S    
C51   O25   A    
Cr3   O23   S    
C32   C33   A    
C7    C113  S    
C9    H43   S    
C67   H14   S    
C44   H7    S    
C115  N12   S    
Cr1   O25   S    
C64   C65   A    
C46   H11   S    
C70   C76   A    
Cr1   O1    S    
C57   C58   A    
C38   C39   A    
C23   N3    A    
C77   C82   A    
Cr5   O19   S    
C29   O22   A    
C106  N8    S    
C110  C115  A    
C92   C93   A    
N11   H68   S    
C2    C106  A    
C83   C88   A    
C73   C109  S    
C19   O17   A    
N10   H65   S    
C1    C69   S    
C56   H13   S    
C70   C71   A    
C24   H73   S    
C10   C11   A    
C27   H44   S    
C101  H35   S    
N8    H56   S    
C16   O10   A    
C76   H21   S    
C26   H78   S    
C45   H8    S    
C71   C72   A    
C6    H41   S    
C100  H63   S    
C87   C88   A    
N7    H55   S    
C98   C99   A    
C54   C63   S    
C15   O7    A    
C60   H16   S    
C103  C104  A    
C104  C109  A    
C103  C108  A    
C19   O16   A    
C25   H53   S    
Cr2   O26   S    
C77   H24   S    
C8    C12   A    
C58   N6    S    
C10   C14   A    
C39   C48   S    
C27   C28   A    
