data_mof_unit_35411.cif
_audit_creation_date              2013-03-05T15:41:26-0500
_audit_creation_method            fapswitch 2.2
_symmetry_space_group_name_H-M    P1
_symmetry_Int_Tables_number       1
_space_group_crystal_system       triclinic
_cell_length_a                    11.899367
_cell_length_b                    18.329525
_cell_length_c                    10.149034
_cell_angle_alpha                 89.999566
_cell_angle_beta                  110.215453
_cell_angle_gamma                 90.000161
_cell_volume                      2077.2449481

loop_
_atom_site_label
_atom_site_type_symbol
_atom_site_description
_atom_site_fract_x
_atom_site_fract_y
_atom_site_fract_z
_atom_type_partial_charge
O1    O     O_R   0.267710 0.668200 0.902110 -0.474065
O2    O     O_R   0.732290 0.331800 0.097890 -0.565486
O3    O     O_R   0.732290 0.168200 0.097890 -0.474043
O4    O     O_R   0.267710 0.831800 0.902110 -0.565482
O5    O     O_R   0.099480 0.674460 0.038850 -0.491417
O6    O     O_R   0.900520 0.325540 0.961150 -0.486052
O7    O     O_R   0.900520 0.174460 0.961150 -0.491382
O8    O     O_R   0.099480 0.825540 0.038850 -0.486086
C1    C     C_R   0.076107 0.644368 0.140820 0.584659
C2    C     C_R   0.869044 0.362650 0.843345 0.549760
C3    C     C_R   0.923889 0.144367 0.859178 0.584654
C4    C     C_R   0.130957 0.862649 0.156653 0.549746
O9    O     O_R   0.116720 0.669210 0.267660 -0.437688
O10   O     O_R   0.883280 0.330790 0.732340 -0.412531
O11   O     O_R   0.883280 0.169210 0.732340 -0.437738
O12   O     O_R   0.116720 0.830790 0.267660 -0.412529
O13   O     O_R   0.366710 0.675440 0.427590 -0.464280
O14   O     O_R   0.633290 0.324560 0.572410 -0.508019
O15   O     O_R   0.633290 0.175440 0.572410 -0.464304
O16   O     O_R   0.366710 0.824560 0.427590 -0.508022
C5    C     C_R   0.469453 0.646815 0.441783 0.548325
C6    C     C_R   0.530793 0.352652 0.556979 0.550487
C7    C     C_R   0.530547 0.146815 0.558218 0.548321
C8    C     C_R   0.469207 0.852651 0.443023 0.550481
O17   O     O_R   0.534870 0.669390 0.371760 -0.527371
O18   O     O_R   0.465130 0.330610 0.628240 -0.539115
O19   O     O_R   0.465130 0.169390 0.628240 -0.527365
O20   O     O_R   0.534870 0.830610 0.371760 -0.539115
O21   O     O_R   0.453080 0.674480 0.075160 -0.476184
O22   O     O_R   0.546920 0.325520 0.924840 -0.477478
O23   O     O_R   0.546920 0.174480 0.924840 -0.476178
O24   O     O_R   0.453080 0.825520 0.075160 -0.477468
C9    C     C_R   0.372880 0.644089 0.969280 0.561853
C10   C     C_R   0.626185 0.355249 0.032980 0.568957
C11   C     C_R   0.627117 0.144092 0.030728 0.561873
C12   C     C_R   0.373813 0.855249 0.967021 0.568960
Cr1   Cr    Cr6+3 0.187610 0.750000 0.979860 1.070237
Cr2   Cr    Cr6+3 0.812390 0.250000 0.020140 1.070264
Cr3   Cr    Cr6+3 0.245810 0.750000 0.341640 1.127051
Cr4   Cr    Cr6+3 0.754190 0.250000 0.658360 1.127039
Cr5   Cr    Cr6+3 0.485760 0.750000 0.219910 1.082674
Cr6   Cr    Cr6+3 0.514240 0.250000 0.780090 1.082686
O25   O     O_3   0.306390 0.750000 0.180470 -0.323577
O26   O     O_3   0.693610 0.250000 0.819530 -0.323582
C13   C     C_R   0.499744 0.422375 0.477735 0.054884
C14   C     C_R   0.499528 0.574222 0.510232 0.011987
C15   C     C_R   0.500260 0.922372 0.522271 0.054904
C16   C     C_R   0.500475 0.074220 0.489776 0.011977
C17   C     C_R   0.295174 0.418457 0.473291 -0.093270
C18   C     C_R   0.701195 0.578373 0.501006 -0.078248
C19   C     C_R   0.704830 0.918455 0.526711 -0.093256
C20   C     C_R   0.298811 0.078370 0.499003 -0.078240
C21   C     C_R   0.214428 0.442252 0.534300 0.033515
C22   C     C_R   0.775951 0.556114 0.430411 0.022962
C23   C     C_R   0.785577 0.942253 0.465705 0.033535
C24   C     C_R   0.224056 0.056112 0.569600 0.022942
C25   C     C_R   0.230272 0.512097 0.597963 0.031120
C26   C     C_R   0.767072 0.483503 0.378650 -0.008582
C27   C     C_R   0.769738 0.012103 0.402054 0.031110
C28   C     C_R   0.232933 0.983500 0.621359 -0.008604
C29   C     C_R   0.321436 0.559064 0.586770 0.007464
C30   C     C_R   0.677142 0.436262 0.396274 -0.007399
C31   C     C_R   0.678569 0.059066 0.413241 0.007407
C32   C     C_R   0.322864 0.936258 0.603735 -0.007388
C33   C     C_R   0.406367 0.531783 0.528518 0.010123
C34   C     C_R   0.591867 0.464432 0.454648 0.017120
C35   C     C_R   0.593639 0.031783 0.471493 0.010033
C36   C     C_R   0.408139 0.964429 0.545362 0.017139
C37   C     C_R   0.398995 0.458180 0.488406 0.017368
C38   C     C_R   0.598947 0.538440 0.492790 -0.005950
C39   C     C_R   0.601011 0.958179 0.511603 0.017331
C40   C     C_R   0.401058 0.038438 0.507220 -0.005944
H1    H     H_    0.284763 0.364115 0.427919 0.128068
H2    H     H_    0.715053 0.631914 0.549886 0.149378
H3    H     H_    0.715240 0.864111 0.572076 0.128091
H4    H     H_    0.284951 0.131910 0.450120 0.149389
C41   C     C_2   0.394831 0.929338 0.938597 -0.111005
C42   C     C_2   0.616360 0.067284 0.036691 -0.113744
C43   C     C_2   0.605160 0.429336 0.061403 -0.110990
C44   C     C_2   0.383636 0.567281 0.963339 -0.113753
C45   C     C_2   0.503729 0.957207 0.986194 -0.054156
C46   C     C_2   0.514765 0.034474 0.024945 -0.088755
C47   C     C_2   0.496261 0.457203 0.013802 -0.054152
C48   C     C_2   0.485222 0.534470 0.975057 -0.088748
H5    H     H_    0.688224 0.037934 0.017995 0.192254
H6    H     H_    0.317351 0.964650 0.909648 0.096941
H7    H     H_    0.311786 0.537932 0.982060 0.192175
H8    H     H_    0.682638 0.464650 0.090355 0.096935
H9    H     H_    0.138065 0.095170 0.017341 0.207242
H10   H     H_    0.132955 0.941137 0.938317 0.175751
H11   H     H_    0.861939 0.595173 0.982635 0.207220
H12   H     H_    0.867035 0.441142 0.061671 0.175704
C49   C     C_2   0.112721 0.943639 0.136231 0.059033
C50   C     C_2   0.964478 0.067433 0.882140 0.113569
C51   C     C_2   0.887281 0.443639 0.863762 0.059106
C52   C     C_2   0.035519 0.567434 0.117855 0.113561
C53   C     C_2   0.115587 0.975118 0.016030 -0.106188
C54   C     C_2   0.075975 0.051144 0.970827 -0.040844
C55   C     C_2   0.884406 0.475121 0.983956 -0.106130
C56   C     C_2   0.924025 0.551146 0.029157 -0.040859
C57   C     C_2   0.122569 0.388345 0.536415 0.292040
H13   H     H_    0.071328 0.360548 0.439957 0.106366
O27   O     O_2   0.111859 0.368625 0.646103 -0.362457
C58   C     C_2   0.863468 0.611368 0.419448 0.286264
H14   H     H_    0.908919 0.645869 0.508983 0.112837
O28   O     O_2   0.878644 0.622932 0.308441 -0.433448
C59   C     C_2   0.877431 0.888346 0.463577 0.292055
H15   H     H_    0.928661 0.860535 0.560025 0.106398
O29   O     O_2   0.888149 0.868638 0.353885 -0.362482
C60   C     C_2   0.136538 0.111366 0.580560 0.286246
H16   H     H_    0.091098 0.145872 0.491026 0.112821
O30   O     O_2   0.121350 0.122925 0.691563 -0.433428
C61   C     C_2   0.159754 0.534750 0.684693 0.255332
H17   H     H_    0.112020 0.586177 0.665855 0.168979
O31   O     O_2   0.156744 0.496489 0.781463 -0.444642
C62   C     C_2   0.861413 0.453644 0.326551 0.189781
H18   H     H_    0.858808 0.398364 0.291030 0.121705
O32   O     O_2   0.948671 0.489165 0.329398 -0.507853
C63   C     C_2   0.840281 0.034769 0.315358 0.255387
H19   H     H_    0.888031 0.086192 0.334242 0.168941
O33   O     O_2   0.843298 0.996523 0.218569 -0.444664
C64   C     C_2   0.138587 0.953639 0.673447 0.189809
H20   H     H_    0.141185 0.898357 0.708957 0.121719
O34   O     O_2   0.051331 0.989159 0.670599 -0.507777
C65   C     C_2   0.337549 0.632388 0.653058 0.253975
H21   H     H_    0.426517 0.652314 0.711976 0.154777
O35   O     O_2   0.252711 0.673896 0.630577 -0.506480
C66   C     C_2   0.669971 0.359293 0.347103 0.271869
H22   H     H_    0.750541 0.327272 0.366336 0.141682
O36   O     O_2   0.573449 0.329668 0.289388 -0.470052
C67   C     C_2   0.662447 0.132390 0.346945 0.253984
H23   H     H_    0.573477 0.152310 0.288022 0.154780
O37   O     O_2   0.747279 0.173903 0.369423 -0.506476
C68   C     C_2   0.330033 0.859289 0.652901 0.271873
H24   H     H_    0.249462 0.827268 0.633670 0.141675
O38   O     O_2   0.426554 0.829662 0.710614 -0.470045
C69   C     C_2   0.414639 0.074122 0.050834 0.550666
O39   O     O_2   0.396988 0.064534 0.160988 -0.533356
O40   O     O_R   0.335758 0.118080 0.947645 -0.612535
H25   H     H_    0.349565 0.114849 0.854836 0.339101
C70   C     C_2   0.609842 0.911025 0.996911 0.658142
O41   O     O_2   0.635040 0.899255 0.892149 -0.425014
O42   O     O_R   0.680281 0.880704 0.124522 -0.552069
H26   H     H_    0.650052 0.893972 0.203157 0.320010
C71   C     C_2   0.585340 0.574114 0.949143 0.550649
O43   O     O_2   0.602988 0.564512 0.838991 -0.533378
O44   O     O_R   0.664223 0.618084 0.052312 -0.612546
H27   H     H_    0.650431 0.614857 0.145130 0.339108
C72   C     C_2   0.390149 0.411019 0.003077 0.658165
O45   O     O_2   0.364934 0.399259 0.107833 -0.425061
O46   O     O_R   0.319734 0.380681 0.875473 -0.552022
H28   H     H_    0.349966 0.393952 0.796841 0.320020
C73   C     C_2   0.869166 0.010647 0.829864 0.611851
O47   O     O_2   0.764037 0.029301 0.784925 -0.529133
O48   O     O_R   0.897687 0.936430 0.835046 -0.673242
H29   H     H_    0.824730 0.903726 0.808697 0.366494
C74   C     C_2   0.090231 0.987323 0.246335 0.609722
O49   O     O_2   0.085175 0.053963 0.240900 -0.560772
O50   O     O_R   0.071373 0.951058 0.356328 -0.629337
H30   H     H_    0.041278 0.984796 0.414326 0.347433
C75   C     C_2   0.130834 0.510651 0.170155 0.611826
O51   O     O_2   0.235953 0.529319 0.215294 -0.529152
O52   O     O_R   0.102335 0.436423 0.164779 -0.673166
H31   H     H_    0.175317 0.403734 0.191296 0.366505
C76   C     C_2   0.909788 0.487321 0.753663 0.609712
O53   O     O_2   0.914851 0.553961 0.759099 -0.560811
O54   O     O_R   0.928650 0.451056 0.643675 -0.629329
H32   H     H_    0.958745 0.484794 0.585676 0.347427

loop_
_geom_bond_atom_site_label_1
_geom_bond_atom_site_label_2
_geom_bond_distance
_ccdc_geom_bond_type
C26   C30   1.434999 A    
C43   C47   1.319411 D    
O4    C12   1.279834 A    
C76   O53   1.223272 D    
O23   Cr6   1.957216 S    
O5    Cr1   1.951724 S    
Cr5   O25   2.031107 S    
O52   H31   1.011988 S    
C44   C48   1.318216 D    
C66   H22   1.082789 S    
C58   O28   1.219590 D    
C45   C46   1.463568 S    
O1    C9    1.279287 A    
C48   C71   1.494341 S    
C62   H18   1.072341 S    
O7    C3    1.285115 A    
C69   O40   1.395588 S    
C74   O49   1.223277 D    
Cr6   O26   2.031107 S    
C47   C48   1.463546 S    
C32   C36   1.436222 A    
C22   C58   1.484143 S    
C19   H3    1.086321 S    
C61   H17   1.082903 S    
C46   C69   1.494336 S    
C23   C27   1.416990 A    
C12   C41   1.428211 S    
C72   O46   1.392321 S    
O50   H30   1.001403 S    
C71   O43   1.219471 D    
C51   C55   1.360534 D    
C50   C54   1.354338 D    
O42   H26   1.011862 S    
O21   C9    1.291146 A    
O20   Cr5   2.068172 S    
C52   C75   1.495105 S    
O13   Cr3   1.957301 S    
O14   Cr4   1.957299 S    
C60   H16   1.085604 S    
C43   H8    1.080775 S    
C1    O9    1.291545 A    
O44   H27   1.012265 S    
C75   O52   1.398671 S    
C3    O11   1.291533 A    
C4    O12   1.330736 A    
O3    Cr2   2.073394 S    
C21   C57   1.479104 S    
C27   C63   1.470326 S    
C59   H15   1.084995 S    
O6    Cr2   1.951723 S    
C7    O19   1.290160 A    
H11   C56   1.085769 S    
C73   O48   1.398652 S    
H10   C53   1.079533 S    
C19   C23   1.381297 A    
O1    Cr1   2.073406 S    
O2    C10   1.279843 A    
C45   C70   1.492592 S    
C57   O27   1.218294 D    
C17   C37   1.396042 A    
C26   C62   1.499857 S    
C59   O29   1.218302 D    
C76   O54   1.382558 S    
C19   C39   1.396047 A    
C16   C40   1.416243 A    
O8    C4    1.312599 A    
C51   C76   1.472474 S    
C24   C60   1.484148 S    
C58   H14   1.085595 S    
C71   O44   1.395610 S    
Cr2   O26   2.038191 S    
C53   C54   1.491671 S    
C32   C68   1.489043 S    
C64   H20   1.072326 S    
C63   O33   1.217404 D    
C49   C74   1.472459 S    
O40   H25   1.012259 S    
C31   C35   1.426130 A    
C14   C38   1.416249 A    
O22   C10   1.294485 A    
C13   C37   1.403368 A    
C57   H13   1.084996 S    
O16   C8    1.282650 A    
C14   C33   1.417961 A    
C2    O10   1.330731 A    
O17   Cr5   2.068159 S    
O54   H32   1.001409 S    
O16   Cr3   1.957303 S    
C30   C34   1.436223 A    
Cr3   O25   2.002528 S    
C67   O37   1.221016 D    
O13   C5    1.291908 A    
C24   C28   1.421317 A    
C23   C59   1.479119 S    
C36   C40   1.405203 A    
Cr1   O25   2.038191 S    
O15   C7    1.291904 A    
O5    C1    1.285111 A    
C20   C40   1.397457 A    
C10   C43   1.428213 S    
C42   C46   1.318242 D    
C55   C56   1.491668 S    
O3    C11   1.279282 A    
O46   H28   1.011856 S    
C18   C22   1.382593 A    
C28   C64   1.499855 S    
C1    C52   1.482691 S    
C15   C39   1.403378 A    
C62   O32   1.217408 D    
C42   H5    1.081121 S    
C41   H6    1.080777 S    
C31   C67   1.485469 S    
C65   H21   1.083612 S    
C17   H1    1.086315 S    
C4    C49   1.504230 S    
O8    Cr1   1.951733 S    
O24   Cr5   1.957214 S    
C64   O34   1.217395 D    
C67   H23   1.083612 S    
C49   C53   1.360529 D    
C15   C36   1.424197 A    
O48   H29   1.011969 S    
O18   Cr6   2.068158 S    
C5    C14   1.486389 S    
C22   C26   1.421314 A    
C5    O17   1.290160 A    
C21   C25   1.416979 A    
C7    C16   1.486386 S    
O21   Cr5   1.957230 S    
O14   C6    1.282646 A    
C8    C15   1.487017 S    
C8    O20   1.298982 A    
C3    C50   1.482687 S    
C20   H4    1.086218 S    
C66   O36   1.221543 D    
O6    C2    1.312605 A    
C25   C61   1.470302 S    
C63   H19   1.082930 S    
O24   C12   1.294491 A    
C9    C44   1.416829 S    
C25   C29   1.419840 A    
C68   H24   1.082792 S    
C44   H7    1.081083 S    
C69   O39   1.219461 D    
C11   C42   1.416838 S    
C27   C31   1.419838 A    
H9    C54   1.085766 S    
C28   C32   1.435003 A    
O2    Cr2   2.073406 S    
C70   O42   1.392313 S    
C18   C38   1.397463 A    
C75   O51   1.222941 D    
C72   O45   1.219540 D    
C30   C66   1.489042 S    
O19   Cr6   2.068174 S    
C18   H2    1.086216 S    
C34   C38   1.405204 A    
C2    C51   1.504232 S    
C50   C73   1.495093 S    
C33   C37   1.403155 A    
C52   C56   1.354348 D    
O23   C11   1.291151 A    
O7    Cr2   1.951735 S    
C68   O38   1.221546 D    
C35   C39   1.403157 A    
C16   C35   1.417960 A    
C60   O30   1.219605 D    
O11   Cr4   2.078253 S    
O9    Cr3   2.078255 S    
C17   C21   1.381294 A    
O15   Cr4   1.957304 S    
O12   Cr3   2.078251 S    
O10   Cr4   2.078253 S    
C29   C33   1.426128 A    
Cr4   O26   2.002529 S    
C6    C13   1.487009 S    
O4    Cr1   2.073392 S    
C74   O50   1.382554 S    
C41   C45   1.319408 D    
C6    O18   1.298981 A    
C13   C34   1.424194 A    
C65   O35   1.221012 D    
O22   Cr6   1.957229 S    
C29   C65   1.485457 S    
C47   C72   1.492581 S    
C73   O47   1.222928 D    
C70   O41   1.219533 D    
C20   C24   1.382586 A    
H12   C55   1.079538 S    
C61   O31   1.217371 D    
