data_mof_unit_38570.cif
_audit_creation_date              2012-12-10T17:15:15-0500
_audit_creation_method            fapswitch 2.2
_symmetry_space_group_name_H-M    P1
_symmetry_Int_Tables_number       1
_space_group_crystal_system       triclinic
_cell_length_a                    10.153217
_cell_length_b                    10.853738
_cell_length_c                    13.007353
_cell_angle_alpha                 91.70885
_cell_angle_beta                  92.852361
_cell_angle_gamma                 94.519533
_cell_volume                      1426.36763781

loop_
_atom_site_label
_atom_site_type_symbol
_atom_type_description
_atom_site_fract_x
_atom_site_fract_y
_atom_site_fract_z
_atom_type_partial_charge
C1    C     C_R   0.444987 0.267717 0.495360 0.921858
C2    C     C_R   0.677286 0.493713 0.044440 -0.284368
C3    C     C_R   0.342991 0.541369 0.850827 0.395922
C4    C     C_R   0.663350 0.481935 0.149593 0.402056
C5    C     C_R   0.582558 0.527396 0.874226 0.367315
C6    C     C_R   0.439166 0.549950 0.128237 0.358969
C7    C     C_R   0.571003 0.524791 0.980351 -0.048132
C8    C     C_R   0.448965 0.545708 0.021912 -0.046694
C9    C     C_2   0.412880 0.136664 0.500229 -0.324399
C10   C     C_2   0.584105 0.863825 0.521233 -0.323173
C11   C     C_2   0.509285 0.066259 0.527368 -0.135064
C12   C     C_R   0.554387 0.732370 0.509045 0.914177
C13   C     C_2   0.483630 0.934977 0.524891 -0.142380
C14   C     C_2   0.071463 0.485136 0.501887 0.042220
C15   C     C_2   0.927017 0.503336 0.488659 0.047544
C16   C     C_R   0.476715 0.508458 0.698797 0.929896
C17   C     C_R   0.525525 0.499814 0.301402 0.934847
C18   C     C_R   0.543110 0.509710 0.191558 -0.174502
C19   C     C_R   0.466552 0.525090 0.809397 -0.174076
C20   C     C_R   0.336433 0.554952 0.956949 -0.291604
H1    H     H_    0.240741 0.564596 0.988099 0.179553
H2    H     H_    0.768625 0.584990 0.877119 0.335670
H3    H     H_    0.842039 0.428344 0.169894 0.355799
H4    H     H_    0.153573 0.559123 0.828849 0.358399
H5    H     H_    0.767932 0.223328 0.735128 0.367275
H6    H     H_    0.231890 0.815905 0.301049 0.361528
H7    H     H_    0.768954 0.470248 0.012606 0.181034
H8    H     H_    0.381013 0.896809 0.520071 0.226236
H9    H     H_    0.610214 0.104662 0.545949 0.229923
H10   H     H_    0.686458 0.902489 0.526010 0.183873
H11   H     H_    0.312315 0.097686 0.481228 0.179523
H12   H     H_    0.892114 0.565672 0.432080 0.192940
H13   H     H_    0.105025 0.414334 0.551205 0.189930
H14   H     H_    0.301453 0.663406 0.133500 0.342682
N1    N     N_2   0.162330 0.550370 0.457540 0.048646
N2    N     N_2   0.837670 0.449630 0.542460 0.047522
O1    O     O_R   0.567930 0.307680 0.508550 -0.576242
O2    O     O_3   0.705559 0.529908 0.832742 -0.688073
O3    O     O_3   0.765414 0.442851 0.211798 -0.712548
O4    O     O_3   0.230133 0.543962 0.787069 -0.698177
O5    O     O_2   0.936034 0.235244 0.578268 -0.324408
O6    O     O_2   0.971973 0.398768 0.713699 -0.278251
O7    O     O_3   0.738046 0.285052 0.686391 -0.490631
O8    O     O_2   0.039754 0.620789 0.287229 -0.286806
O9    O     O_2   0.049496 0.761268 0.439513 -0.324363
O10   O     O_3   0.262308 0.745211 0.339648 -0.487880
O11   O     O_R   0.432070 0.692320 0.491450 -0.568039
O12   O     O_R   0.351090 0.340020 0.481290 -0.640585
O13   O     O_R   0.648910 0.659980 0.518710 -0.635230
O14   O     O_R   0.590490 0.486480 0.665020 -0.513609
O15   O     O_R   0.409510 0.513520 0.334980 -0.524555
O16   O     O_R   0.373660 0.518820 0.637760 -0.588278
O17   O     O_R   0.626340 0.481180 0.362240 -0.591226
O18   O     O_3   0.327723 0.590305 0.171097 -0.674657
S1    S     S_3+6 0.875799 0.340502 0.631370 0.125698
S2    S     S_3+6 0.123797 0.670942 0.379842 0.121292
Zn1   Zn    Zn3+2 0.644780 0.478400 0.518200 1.103808
Zn2   Zn    Zn3+2 0.355220 0.521600 0.481800 1.101817

loop_
_geom_bond_atom_site_label_1
_geom_bond_atom_site_label_2
_ccdc_geom_bond_type
C2    C4    A    
C13   H8    S    
O12   Zn2   S    
C2    H7    S    
C5    C19   A    
O6    S1    D    
C11   C13   S    
O8    S2    D    
C2    C7    A    
C4    O3    S    
C1    O1    A    
C4    C18   A    
H5    O7    S    
C14   H13   S    
C12   O13   A    
C1    C9    S    
C15   H12   S    
C1    O12   A    
N2    S1    S    
C3    C20   A    
C5    O2    S    
O11   Zn2   S    
C3    C19   A    
C9    C11   D    
C17   O15   A    
C8    C20   A    
O16   Zn2   S    
C6    O18   S    
N1    Zn2   S    
H3    O3    S    
C10   C12   S    
O7    S1    S    
H4    O4    S    
C16   O14   A    
C3    O4    S    
H14   O18   S    
C9    H11   S    
C12   O11   A    
C16   C19   S    
C6    C18   A    
O15   Zn2   S    
H6    O10   S    
H2    O2    S    
C17   O17   A    
C15   N2    D    
C7    C8    A    
O13   Zn1   S    
C20   H1    S    
C11   H9    S    
C17   C18   S    
N2    Zn1   S    
O10   S2    S    
C14   N1    D    
C5    C7    A    
C10   H10   S    
C14   C15   S    
O5    S1    D    
C6    C8    A    
N1    S2    S    
O14   Zn1   S    
O1    Zn1   S    
C16   O16   A    
O9    S2    D    
C10   C13   D    
O17   Zn1   S    
