data_mof_unit_64014.cif
_audit_creation_date              2012-12-10T18:41:51-0500
_audit_creation_method            fapswitch 2.2
_symmetry_space_group_name_H-M    P1
_symmetry_Int_Tables_number       1
_space_group_crystal_system       triclinic
_cell_length_a                    25.516881
_cell_length_b                    25.516899
_cell_length_c                    59.957602
_cell_angle_alpha                 89.999891
_cell_angle_beta                  89.999888
_cell_angle_gamma                 90.011805
_cell_volume                      39039.0938547

loop_
_atom_site_label
_atom_site_type_symbol
_atom_type_description
_atom_site_fract_x
_atom_site_fract_y
_atom_site_fract_z
_atom_type_partial_charge
C1    C     C_R   0.500000 0.000000 0.689323 0.553941
C2    C     C_R   0.037298 0.529277 0.129640 -0.040312
C3    C     C_R   0.542546 0.976861 0.488091 0.019170
C4    C     C_R   0.023137 0.457454 0.488091 0.019170
C5    C     C_R   0.543254 0.978214 0.511828 0.019165
C6    C     C_R   0.976862 0.542546 0.488091 0.019170
C7    C     C_R   0.456747 0.021786 0.511828 0.019165
C8    C     C_R   0.523146 0.957459 0.011906 0.019169
C9    C     C_R   0.956722 0.521736 0.988170 0.019165
C10   C     C_R   0.476854 0.042541 0.011906 0.019169
C11   C     C_R   0.043279 0.478264 0.988170 0.019165
C12   C     C_R   0.521795 0.956751 0.988169 0.019166
C13   C     C_R   0.469543 0.963669 0.870394 -0.040496
C14   C     C_R   0.042567 0.476902 0.011907 0.019168
C15   C     C_R   0.478204 0.043248 0.988169 0.019166
C16   C     C_R   0.957433 0.523099 0.011907 0.019168
C17   C     C_R   1.000000 0.500000 0.523552 0.035445
C18   C     C_R   0.500000 1.000000 0.476366 0.035489
C19   C     C_R   0.999999 0.500000 0.476366 0.035488
C20   C     C_R   0.500000 1.000000 0.523552 0.035445
C21   C     C_R   0.500000 0.000000 0.023631 0.035488
C22   C     C_R   0.000000 0.500000 0.976445 0.035446
C23   C     C_R   0.500000 1.000000 0.976444 0.035446
C24   C     C_R   0.962702 0.470724 0.129640 -0.040312
C25   C     C_R   0.000000 0.500000 0.023631 0.035488
C26   C     C_R   0.041295 0.413979 0.524394 -0.136205
C27   C     C_R   0.417061 0.047182 0.475525 -0.136183
C28   C     C_R   0.958704 0.586021 0.524394 -0.136205
C29   C     C_R   0.582940 0.952817 0.475525 -0.136183
C30   C     C_R   0.047180 0.417059 0.475525 -0.136183
C31   C     C_R   0.586021 0.958702 0.524394 -0.136205
C32   C     C_R   0.952819 0.582941 0.475525 -0.136184
C33   C     C_R   0.413980 0.041297 0.524394 -0.136205
C34   C     C_R   0.547195 0.917067 0.024472 -0.136183
C35   C     C_R   0.529261 0.037311 0.129640 -0.040311
C36   C     C_R   0.913927 0.541187 0.975604 -0.136209
C37   C     C_R   0.452806 0.082933 0.024472 -0.136183
C38   C     C_R   0.086074 0.458813 0.975604 -0.136209
C39   C     C_R   0.541318 0.913990 0.975603 -0.136204
C40   C     C_R   0.082978 0.452885 0.024472 -0.136188
C41   C     C_R   0.458681 0.086010 0.975603 -0.136204
C42   C     C_R   0.917022 0.547115 0.024472 -0.136188
C43   C     C_R   0.599589 0.099657 0.749997 0.523048
C44   C     C_R   0.099660 0.400408 0.250003 0.511020
C45   C     C_R   0.400411 0.900343 0.749997 0.523047
C46   C     C_R   0.963688 0.469521 0.870394 -0.040499
C47   C     C_R   0.900340 0.599592 0.250003 0.511021
C48   C     C_R   0.400408 0.099660 0.250003 0.511023
C49   C     C_R   0.900343 0.400411 0.749997 0.523044
C50   C     C_R   0.599592 0.900340 0.250003 0.511023
C51   C     C_R   0.099657 0.599589 0.749997 0.523045
C52   C     C_R   0.099589 0.599657 0.249997 0.523367
C53   C     C_R   0.599660 0.900408 0.750003 0.510686
C54   C     C_R   0.900411 0.400343 0.249997 0.523366
C55   C     C_R   0.400340 0.099592 0.750003 0.510687
C56   C     C_R   0.900408 0.599660 0.750003 0.510683
C57   C     C_R   0.470740 0.962689 0.129640 -0.040310
C58   C     C_R   0.400343 0.900411 0.249997 0.523368
C59   C     C_R   0.099592 0.400340 0.750003 0.510684
C60   C     C_R   0.599657 0.099589 0.249997 0.523369
C61   C     C_3   0.689508 0.732504 0.744227 -0.213829
C62   C     C_3   0.732581 0.310423 0.255944 -0.214716
C63   C     C_3   0.310511 0.267514 0.744271 -0.213831
C64   C     C_3   0.267437 0.689558 0.255901 -0.214718
C65   C     C_3   0.310441 0.732563 0.255901 -0.214718
C66   C     C_3   0.267514 0.310511 0.744271 -0.213831
C67   C     C_3   0.689577 0.267419 0.255944 -0.214716
C68   C     C_R   0.036312 0.530479 0.870394 -0.040499
C69   C     C_3   0.732504 0.689508 0.744227 -0.213830
C70   C     C_3   0.189296 0.232293 0.244770 -0.213865
C71   C     C_3   0.232554 0.810450 0.755881 -0.214722
C72   C     C_3   0.810582 0.767586 0.244450 -0.213851
C73   C     C_3   0.767378 0.189617 0.756038 -0.214713
C74   C     C_3   0.810383 0.232621 0.756038 -0.214713
C75   C     C_3   0.767586 0.810582 0.244450 -0.213851
C76   C     C_3   0.189550 0.767445 0.755881 -0.214721
C77   C     C_3   0.232293 0.189296 0.244770 -0.213866
C78   C     C_3   0.739786 0.782783 0.773282 -0.212859
C79   C     C_R   0.029260 0.537312 0.370357 -0.040326
C80   C     C_3   0.782493 0.260513 0.226665 -0.212741
C81   C     C_3   0.260141 0.217143 0.773269 -0.212861
C82   C     C_3   0.217435 0.739559 0.226677 -0.212745
C83   C     C_3   0.260441 0.782565 0.226678 -0.212744
C84   C     C_3   0.217143 0.260141 0.773269 -0.212861
C85   C     C_3   0.739487 0.217507 0.226665 -0.212743
C86   C     C_3   0.782783 0.739786 0.773282 -0.212860
C87   C     C_3   0.240672 0.283669 0.273121 -0.212860
C88   C     C_3   0.282597 0.760409 0.726683 -0.212716
C89   C     C_3   0.759849 0.716852 0.273217 -0.212856
C90   C     C_R   0.536329 0.030458 0.629604 -0.040477
C91   C     C_3   0.717663 0.239332 0.726639 -0.212705
C92   C     C_3   0.760669 0.282338 0.726639 -0.212706
C93   C     C_3   0.716852 0.759849 0.273217 -0.212856
C94   C     C_3   0.239592 0.717403 0.726683 -0.212716
C95   C     C_3   0.283670 0.240672 0.273121 -0.212859
C96   C     C_1   0.860746 0.639381 0.750013 0.009989
C97   C     C_1   0.639372 0.139251 0.249985 0.024145
C98   C     C_1   0.139254 0.360619 0.750013 0.009989
C99   C     C_1   0.360628 0.860749 0.249985 0.024145
C100  C     C_1   0.139251 0.639372 0.249985 0.024146
C101  C     C_R   0.970739 0.462688 0.370357 -0.040326
C102  C     C_1   0.360619 0.139254 0.750013 0.009991
C103  C     C_1   0.860749 0.360628 0.249986 0.024145
C104  C     C_1   0.639380 0.860746 0.750013 0.009991
C105  C     C_1   0.360746 0.139380 0.250013 0.010192
C106  C     C_1   0.139372 0.639251 0.749985 0.024148
C107  C     C_1   0.639254 0.860620 0.250013 0.010191
C108  C     C_1   0.860628 0.360749 0.749985 0.024147
C109  C     C_1   0.639251 0.139372 0.749985 0.024148
C110  C     C_1   0.860620 0.639254 0.250013 0.010190
C111  C     C_1   0.360749 0.860628 0.749985 0.024148
C112  C     C_R   1.000000 0.500000 0.310668 0.554639
C113  C     C_R   0.463672 0.969542 0.629604 -0.040478
C114  C     C_1   0.139380 0.360746 0.250013 0.010190
C115  C     C_3   0.713541 0.786623 0.750020 0.057272
C116  C     C_3   0.786620 0.286468 0.249978 0.053928
C117  C     C_3   0.286459 0.213377 0.750020 0.057272
C118  C     C_3   0.213380 0.713532 0.249978 0.053927
C119  C     C_3   0.286468 0.786620 0.249978 0.053928
C120  C     C_3   0.213377 0.286459 0.750020 0.057273
C121  C     C_3   0.713532 0.213380 0.249978 0.053927
C122  C     C_3   0.786623 0.713541 0.750020 0.057273
C123  C     C_3   0.213541 0.286623 0.250020 0.057189
C124  C     C_R   0.030459 0.536328 0.629603 -0.040477
C125  C     C_3   0.286620 0.786468 0.749978 0.053921
C126  C     C_3   0.786459 0.713377 0.250020 0.057189
C127  C     C_3   0.713380 0.213532 0.749978 0.053920
C128  C     C_3   0.786468 0.286620 0.749978 0.053921
C129  C     C_3   0.713377 0.786459 0.250020 0.057189
C130  C     C_3   0.213532 0.713380 0.749978 0.053921
C131  C     C_3   0.286623 0.213541 0.250020 0.057189
C132  C     C_3   0.799455 0.756458 0.732550 -0.213583
C133  C     C_3   0.756655 0.200340 0.267324 -0.213959
C134  C     C_3   0.200600 0.243597 0.732519 -0.213581
C135  C     C_R   0.462688 0.970740 0.370357 -0.040325
C136  C     C_3   0.243399 0.799606 0.267356 -0.213953
C137  C     C_3   0.200394 0.756601 0.267356 -0.213954
C138  C     C_3   0.243597 0.200600 0.732519 -0.213582
C139  C     C_3   0.799660 0.243345 0.267324 -0.213958
C140  C     C_3   0.756458 0.799455 0.732550 -0.213584
C141  C     C_3   0.298780 0.255782 0.232169 -0.213548
C142  C     C_3   0.256576 0.700418 0.767370 -0.213983
C143  C     C_3   0.700821 0.743818 0.232393 -0.213565
C144  C     C_3   0.743230 0.299775 0.767256 -0.214000
C145  C     C_3   0.700225 0.256770 0.767256 -0.213998
C146  C     C_R   0.969541 0.463672 0.629604 -0.040478
C147  C     C_3   0.743818 0.700821 0.232393 -0.213565
C148  C     C_3   0.299581 0.743423 0.767370 -0.213981
C149  C     C_3   0.255782 0.298780 0.232169 -0.213549
C150  C     C_1   0.827384 0.672771 0.750018 -0.064454
C151  C     C_1   0.672763 0.172618 0.249980 -0.056821
C152  C     C_1   0.172616 0.327228 0.750018 -0.064455
C153  C     C_1   0.327238 0.827382 0.249980 -0.056821
C154  C     C_1   0.172617 0.672763 0.249980 -0.056821
C155  C     C_1   0.327228 0.172616 0.750018 -0.064454
C156  C     C_1   0.827382 0.327237 0.249980 -0.056821
C157  C     C_R   0.537313 0.029259 0.370357 -0.040326
C158  C     C_1   0.672771 0.827384 0.750018 -0.064454
C159  C     C_1   0.327384 0.172771 0.250018 -0.064344
C160  C     C_1   0.172762 0.672617 0.749980 -0.056784
C161  C     C_1   0.672616 0.827229 0.250018 -0.064344
C162  C     C_1   0.827238 0.327382 0.749980 -0.056784
C163  C     C_1   0.672617 0.172763 0.749980 -0.056784
C164  C     C_1   0.827229 0.672616 0.250018 -0.064345
C165  C     C_1   0.327382 0.827237 0.749980 -0.056784
C166  C     C_1   0.172771 0.327384 0.250018 -0.064345
C167  C     C_R   0.520270 0.957934 0.917331 0.404017
C168  C     C_R   0.530664 0.036676 0.847100 0.047005
C169  C     C_R   0.959476 0.523198 0.082743 0.404216
C170  C     C_R   0.479729 0.042065 0.917331 0.404016
C171  C     C_R   0.040525 0.476802 0.082743 0.404217
C172  C     C_R   0.523237 0.959498 0.082743 0.404220
C173  C     C_R   0.042095 0.479790 0.917332 0.404011
C174  C     C_R   0.476764 0.040502 0.082743 0.404220
C175  C     C_R   0.957906 0.520210 0.917332 0.404011
C176  C     C_R   0.023229 0.459494 0.417254 0.404222
C177  C     C_R   0.457930 0.020262 0.582666 0.404012
C178  C     C_R   0.976770 0.540506 0.417254 0.404223
C179  C     C_R   0.037589 0.529537 0.152934 0.047000
C180  C     C_R   0.542070 0.979739 0.582666 0.404012
C181  C     C_R   0.020260 0.457929 0.582666 0.404012
C182  C     C_R   0.540506 0.976768 0.417254 0.404222
C183  C     C_R   0.979740 0.542070 0.582666 0.404012
C184  C     C_R   0.459495 0.023230 0.417254 0.404222
C185  C     C_R   0.469336 0.963324 0.847100 0.047006
C186  C     C_R   0.962411 0.470463 0.152934 0.047000
C187  C     C_R   0.529522 0.037601 0.152934 0.046999
C188  C     C_R   0.500000 1.000000 0.310668 0.554638
C189  C     C_R   0.963342 0.469315 0.847101 0.047006
C190  C     C_R   0.470479 0.962399 0.152934 0.046999
C191  C     C_R   0.036658 0.530685 0.847100 0.047007
C192  C     C_R   0.029520 0.537601 0.347063 0.046923
C193  C     C_R   0.536675 0.030666 0.652897 0.047086
C194  C     C_R   0.970479 0.462399 0.347063 0.046923
C195  C     C_R   0.463325 0.969334 0.652897 0.047086
C196  C     C_R   0.030667 0.536674 0.652897 0.047086
C197  C     C_R   0.462399 0.970480 0.347063 0.046923
C198  C     C_R   0.969334 0.463325 0.652897 0.047086
C199  C     C_R   1.000000 0.500000 0.689323 0.553941
C200  C     C_R   0.537602 0.029519 0.347063 0.046922
C201  C     C_R   0.500000 1.000000 0.882117 0.188663
C202  C     C_R   1.000000 0.500000 0.117929 0.189982
C203  C     C_R   0.500000 0.000000 0.117930 0.189999
C204  C     C_R   0.000000 0.500000 0.882118 0.188635
C205  C     C_R   0.999999 0.500000 0.382068 0.189991
C206  C     C_R   0.500000 0.000000 0.617880 0.188660
C207  C     C_R   1.000000 0.500000 0.617880 0.188659
C208  C     C_R   0.500000 0.999999 0.382068 0.189992
C209  C     C_R   0.500000 1.000000 0.952687 -0.026242
C210  C     C_R   0.000000 0.500000 0.189332 0.554639
C211  C     C_R   0.000000 0.500000 0.047388 -0.026238
C212  C     C_R   0.500000 0.000000 0.047388 -0.026235
C213  C     C_R   0.000000 0.500000 0.952687 -0.026243
C214  C     C_R   0.999999 0.500000 0.452609 -0.026234
C215  C     C_R   0.500000 1.000000 0.547310 -0.026245
C216  C     C_R   1.000000 0.500000 0.547310 -0.026245
C217  C     C_R   0.500000 0.999999 0.452609 -0.026234
C218  C     C_R   0.520528 0.957118 0.940773 0.025089
C219  C     C_R   0.958680 0.523526 0.059302 0.024895
C220  C     C_R   0.479471 0.042882 0.940772 0.025089
C221  C     C_R   0.500000 1.000000 0.810676 0.553925
C222  C     C_R   0.041321 0.476474 0.059302 0.024895
C223  C     C_R   0.523566 0.958702 0.059302 0.024891
C224  C     C_R   0.042913 0.479535 0.940773 0.025094
C225  C     C_R   0.476435 0.041298 0.059302 0.024891
C226  C     C_R   0.957087 0.520465 0.940773 0.025094
C227  C     C_R   0.023557 0.458698 0.440695 0.024898
C228  C     C_R   0.457113 0.020519 0.559225 0.025085
C229  C     C_R   0.976441 0.541302 0.440695 0.024898
C230  C     C_R   0.542887 0.979481 0.559225 0.025084
C231  C     C_R   0.020517 0.457112 0.559225 0.025085
C232  C     C_R   1.000000 0.500000 0.810676 0.553911
C233  C     C_R   0.541301 0.976440 0.440695 0.024898
C234  C     C_R   0.979482 0.542887 0.559225 0.025085
C235  C     C_R   0.458699 0.023559 0.440695 0.024898
C236  C     C_R   0.540763 0.914343 0.952437 -0.107638
C237  C     C_R   0.917689 0.547165 0.047638 -0.107692
C238  C     C_R   0.459236 0.085656 0.952437 -0.107638
C239  C     C_R   0.082311 0.452836 0.047638 -0.107692
C240  C     C_R   0.547241 0.917734 0.047638 -0.107695
C241  C     C_R   0.085720 0.459368 0.952438 -0.107636
C242  C     C_R   0.452760 0.082266 0.047638 -0.107695
C243  C     C_R   0.500000 0.000000 0.189332 0.554649
C244  C     C_R   0.914281 0.540632 0.952438 -0.107636
C245  C     C_R   0.047226 0.417726 0.452359 -0.107696
C246  C     C_R   0.414334 0.040743 0.547560 -0.107635
C247  C     C_R   0.952772 0.582274 0.452359 -0.107696
C248  C     C_R   0.585667 0.959257 0.547560 -0.107635
C249  C     C_R   0.040740 0.414332 0.547560 -0.107635
C250  C     C_R   0.582273 0.952770 0.452359 -0.107696
C251  C     C_R   0.959259 0.585668 0.547560 -0.107635
C252  C     C_R   0.417728 0.047229 0.452359 -0.107696
C253  C     C_R   0.500000 1.000000 0.835201 0.044941
C254  C     C_R   0.530456 0.036331 0.870393 -0.040496
C255  C     C_R   1.000000 0.500000 0.164821 0.045937
C256  C     C_R   0.500000 0.000000 0.164821 0.045950
C257  C     C_R   0.000000 0.500000 0.835201 0.044923
C258  C     C_R   1.000000 0.500000 0.335177 0.045932
C259  C     C_R   0.500000 0.000000 0.664797 0.044960
C260  C     C_R   0.000000 0.500000 0.664797 0.044959
C261  C     C_R   0.500000 1.000000 0.335177 0.045933
C262  C     C_R   0.021784 0.456746 0.511828 0.019165
C263  C     C_R   0.457455 0.023138 0.488091 0.019170
C264  C     C_R   0.978215 0.543254 0.511828 0.019165
H1    H     H_    0.722194 0.658615 0.756578 0.124467
H2    H     H_    0.158564 0.777844 0.743588 0.126270
H3    H     H_    0.066248 0.551801 0.120555 0.161449
H4    H     H_    0.448228 0.933730 0.120555 0.161429
H5    H     H_    0.064504 0.553963 0.879470 0.163007
H6    H     H_    0.551773 0.066270 0.120555 0.161429
H7    H     H_    0.935496 0.446037 0.879471 0.163007
H8    H     H_    0.948227 0.433729 0.379442 0.161441
H9    H     H_    0.435467 0.946074 0.620526 0.162976
H10   H     H_    0.051772 0.566272 0.379442 0.161441
H11   H     H_    0.564534 0.053926 0.620526 0.162976
H12   H     H_    0.946073 0.435467 0.620527 0.162977
H13   H     H_    0.777701 0.841280 0.256918 0.124580
H14   H     H_    0.566273 0.051771 0.379442 0.161440
H15   H     H_    0.053927 0.564533 0.620526 0.162977
H16   H     H_    0.433728 0.948228 0.379442 0.161440
H17   H     H_    0.556310 0.880612 0.943680 0.169719
H18   H     H_    0.885697 0.566032 0.056395 0.169688
H19   H     H_    0.443688 0.119388 0.943680 0.169719
H20   H     H_    0.114303 0.433968 0.056395 0.169688
H21   H     H_    0.566136 0.885758 0.056395 0.169687
H22   H     H_    0.119477 0.443876 0.943681 0.169719
H23   H     H_    0.433866 0.114242 0.056395 0.169687
H24   H     H_    0.841506 0.222086 0.743829 0.126235
H25   H     H_    0.880524 0.556125 0.943681 0.169720
H26   H     H_    0.066116 0.385747 0.443602 0.169678
H27   H     H_    0.380598 0.056281 0.556317 0.169728
H28   H     H_    0.933883 0.614253 0.443602 0.169678
H29   H     H_    0.619403 0.943718 0.556317 0.169728
H30   H     H_    0.056278 0.380596 0.556317 0.169728
H31   H     H_    0.614251 0.933879 0.443602 0.169678
H32   H     H_    0.943721 0.619404 0.556317 0.169728
H33   H     H_    0.385750 0.066120 0.443602 0.169678
H34   H     H_    0.738693 0.802273 0.715638 0.128597
H35   H     H_    0.777913 0.158494 0.743829 0.126234
H36   H     H_    0.802689 0.260906 0.284269 0.135852
H37   H     H_    0.261414 0.197835 0.715615 0.128603
H38   H     H_    0.197416 0.738988 0.284292 0.135862
H39   H     H_    0.261012 0.802583 0.284293 0.135861
H40   H     H_    0.197835 0.261414 0.715615 0.128603
H41   H     H_    0.739094 0.197310 0.284269 0.135852
H42   H     H_    0.802273 0.738693 0.715638 0.128597
H43   H     H_    0.237373 0.300953 0.215365 0.128815
H44   H     H_    0.302535 0.761060 0.784303 0.135874
H45   H     H_    0.761848 0.698268 0.215523 0.128775
H46   H     H_    0.841280 0.777701 0.256918 0.124581
H47   H     H_    0.697082 0.239322 0.784219 0.135836
H48   H     H_    0.760678 0.302917 0.784219 0.135836
H49   H     H_    0.698268 0.761848 0.215523 0.128776
H50   H     H_    0.238940 0.697465 0.784303 0.135874
H51   H     H_    0.300953 0.237373 0.215365 0.128816
H52   H     H_    0.222156 0.841436 0.743588 0.126271
H53   H     H_    0.158881 0.222460 0.257403 0.124606
H54   H     H_    0.056819 0.378948 0.516918 0.114161
H55   H     H_    0.384350 0.067133 0.483002 0.114174
H56   H     H_    0.943180 0.621052 0.516918 0.114161
H57   H     H_    0.658536 0.277872 0.243685 0.126360
H58   H     H_    0.615651 0.932866 0.483002 0.114175
H59   H     H_    0.067129 0.384347 0.483002 0.114174
H60   H     H_    0.621051 0.943177 0.516918 0.114161
H61   H     H_    0.932870 0.615653 0.483002 0.114175
H62   H     H_    0.378950 0.056823 0.516918 0.114162
H63   H     H_    0.567148 0.884358 0.016996 0.114176
H64   H     H_    0.878875 0.556660 0.983081 0.114163
H65   H     H_    0.432853 0.115643 0.016996 0.114176
H66   H     H_    0.121126 0.443341 0.983081 0.114163
H67   H     H_    0.556855 0.878965 0.983079 0.114159
H68   H     H_    0.277785 0.341364 0.756645 0.124470
H69   H     H_    0.115701 0.432956 0.016994 0.114180
H70   H     H_    0.443144 0.121034 0.983079 0.114158
H71   H     H_    0.884299 0.567045 0.016994 0.114181
H72   H     H_    0.757568 0.821149 0.777843 0.127302
H73   H     H_    0.820799 0.242796 0.221979 0.130489
H74   H     H_    0.242344 0.178763 0.777798 0.127294
H75   H     H_    0.179115 0.757291 0.222023 0.130469
H76   H     H_    0.242710 0.820886 0.222023 0.130468
H77   H     H_    0.178763 0.242344 0.777798 0.127293
H78   H     H_    0.757204 0.179201 0.221979 0.130488
H79   H     H_    0.341445 0.722147 0.243618 0.126370
H80   H     H_    0.821149 0.757569 0.777843 0.127302
H81   H     H_    0.258621 0.322203 0.277292 0.127245
H82   H     H_    0.320925 0.742671 0.722043 0.130583
H83   H     H_    0.741996 0.678415 0.277618 0.127309
H84   H     H_    0.679388 0.257017 0.721886 0.130655
H85   H     H_    0.742983 0.320612 0.721886 0.130655
H86   H     H_    0.678415 0.741996 0.277618 0.127309
H87   H     H_    0.257329 0.679076 0.722043 0.130583
H88   H     H_    0.322202 0.258622 0.277292 0.127245
H89   H     H_    0.709823 0.773404 0.786170 0.128235
H90   H     H_    0.277853 0.658555 0.243618 0.126369
H91   H     H_    0.772964 0.290633 0.213865 0.135380
H92   H     H_    0.290063 0.226483 0.786180 0.128242
H93   H     H_    0.226925 0.709479 0.213855 0.135392
H94   H     H_    0.290522 0.773076 0.213855 0.135392
H95   H     H_    0.226483 0.290063 0.786180 0.128241
H96   H     H_    0.709367 0.227036 0.213865 0.135381
H97   H     H_    0.773404 0.709823 0.786170 0.128233
H98   H     H_    0.211207 0.274788 0.286278 0.128472
H99   H     H_    0.273126 0.790471 0.713850 0.135388
H100  H     H_    0.789608 0.726028 0.286217 0.128424
H101  H     H_    0.341364 0.277786 0.756645 0.124471
H102  H     H_    0.727277 0.209127 0.713886 0.135341
H103  H     H_    0.790874 0.272724 0.713886 0.135342
H104  H     H_    0.726028 0.789608 0.286217 0.128424
H105  H     H_    0.209529 0.726874 0.713850 0.135388
H106  H     H_    0.274788 0.211207 0.286278 0.128472
H107  H     H_    0.774549 0.838129 0.736358 0.124375
H108  H     H_    0.838283 0.225310 0.263391 0.125889
H109  H     H_    0.225494 0.161914 0.736294 0.124376
H110  H     H_    0.161758 0.774648 0.263454 0.125897
H111  H     H_    0.225352 0.838241 0.263454 0.125896
H112  H     H_    0.722128 0.341464 0.243685 0.126358
H113  H     H_    0.161914 0.225494 0.736294 0.124377
H114  H     H_    0.774690 0.161717 0.263391 0.125889
H115  H     H_    0.838129 0.774549 0.736358 0.124375
H116  H     H_    0.274012 0.337592 0.235583 0.124482
H117  H     H_    0.338222 0.725370 0.763482 0.125807
H118  H     H_    0.725668 0.662088 0.236039 0.124468
H119  H     H_    0.661628 0.274779 0.763254 0.125782
H120  H     H_    0.725221 0.338372 0.763254 0.125781
H121  H     H_    0.662088 0.725668 0.236039 0.124469
H122  H     H_    0.274629 0.661777 0.763482 0.125806
H123  H     H_    0.658615 0.722194 0.756578 0.124468
H124  H     H_    0.337592 0.274012 0.235583 0.124482
H125  H     H_    0.670505 0.734084 0.727530 0.127765
H126  H     H_    0.734372 0.329221 0.272679 0.131457
H127  H     H_    0.329566 0.265987 0.727585 0.127757
H128  H     H_    0.265698 0.670709 0.272626 0.131438
H129  H     H_    0.329291 0.734301 0.272626 0.131438
H130  H     H_    0.265987 0.329566 0.727585 0.127757
H131  H     H_    0.670779 0.265628 0.272679 0.131457
H132  H     H_    0.734084 0.670504 0.727530 0.127765
H133  H     H_    0.169657 0.233236 0.228198 0.127721
H134  H     H_    0.222460 0.158881 0.257403 0.124606
H135  H     H_    0.234270 0.829322 0.772602 0.131563
H136  H     H_    0.829847 0.766268 0.227804 0.127782
H137  H     H_    0.765476 0.170930 0.772793 0.131633
H138  H     H_    0.829069 0.234523 0.772794 0.131635
H139  H     H_    0.766268 0.829847 0.227804 0.127782
H140  H     H_    0.170677 0.765730 0.772602 0.131565
H141  H     H_    0.233236 0.169657 0.228198 0.127722
H142  H     H_    0.446077 0.935462 0.879470 0.162974
H143  H     H_    0.933752 0.448199 0.120555 0.161449
H144  H     H_    0.553922 0.064537 0.879470 0.162974
I1    I     I_    0.424058 0.904133 0.831246 -0.331303
I2    I     I_    0.404127 0.924050 0.668745 -0.331745
I3    I     I_    0.073092 0.597935 0.331137 -0.332832
I4    I     I_    0.595873 0.075950 0.668745 -0.331751
I5    I     I_    0.924049 0.404128 0.668745 -0.331750
I6    I     I_    0.597936 0.073091 0.331137 -0.332832
I7    I     I_    0.075951 0.595872 0.668745 -0.331744
I8    I     I_    0.402064 0.926909 0.331137 -0.332831
I9    I     I_    0.902085 0.426864 0.168854 -0.333224
I10   I     I_    0.575942 0.095866 0.831246 -0.331295
I11   I     I_    0.097915 0.573136 0.168853 -0.333225
I12   I     I_    0.426902 0.902058 0.168855 -0.333243
I13   I     I_    0.095827 0.575994 0.831248 -0.331273
I14   I     I_    0.573098 0.097942 0.168854 -0.333246
I15   I     I_    0.904173 0.424005 0.831248 -0.331266
I16   I     I_    0.926907 0.402065 0.331137 -0.332828
N1    N     N_R   0.499999 1.000000 0.906101 -0.395638
N2    N     N_R   0.000000 0.500000 0.093960 -0.396081
N3    N     N_R   0.500000 0.000000 0.093961 -0.396085
N4    N     N_R   0.000000 0.500000 0.906102 -0.395630
N5    N     N_R   0.999999 0.500000 0.406037 -0.396074
N6    N     N_R   0.500000 0.000000 0.593896 -0.395645
N7    N     N_R   1.000000 0.500000 0.593896 -0.395645
N8    N     N_R   0.500000 0.999999 0.406037 -0.396075
O1    O     O_3   0.500000 1.000000 0.750000 -0.457344
O2    O     O_R   0.043010 0.500050 0.700060 -0.512212
O3    O     O_R   0.499950 0.043010 0.299940 -0.512389
O4    O     O_R   0.956990 0.499950 0.700060 -0.512211
O5    O     O_R   0.999950 0.456990 0.200060 -0.512344
O6    O     O_R   0.456990 0.000050 0.799940 -0.512258
O7    O     O_R   0.000050 0.543010 0.200060 -0.512344
O8    O     O_R   0.543010 0.999950 0.799940 -0.512258
O9    O     O_R   0.000050 0.456990 0.799940 -0.512258
O10   O     O_R   0.543010 0.000050 0.200060 -0.512345
O11   O     O_R   0.999950 0.543010 0.799940 -0.512257
O12   O     O_3   1.000000 0.500000 0.250000 -0.457306
O13   O     O_R   0.456990 0.999950 0.200060 -0.512345
O14   O     O_R   0.560430 0.103480 0.736910 -0.524236
O15   O     O_R   0.103480 0.439570 0.263090 -0.533612
O16   O     O_R   0.439570 0.896520 0.736910 -0.524236
O17   O     O_R   0.896520 0.560430 0.263090 -0.533611
O18   O     O_R   0.439570 0.103480 0.263090 -0.533611
O19   O     O_R   0.896520 0.439570 0.736910 -0.524238
O20   O     O_R   0.560430 0.896520 0.263090 -0.533610
O21   O     O_R   0.103480 0.560430 0.736910 -0.524239
O22   O     O_R   0.060430 0.603480 0.236910 -0.524409
O23   O     O_3   0.500000 0.000000 0.250000 -0.457305
O24   O     O_R   0.603480 0.939570 0.763090 -0.533614
O25   O     O_R   0.939570 0.396520 0.236910 -0.524408
O26   O     O_R   0.396520 0.060430 0.763090 -0.533614
O27   O     O_R   0.939570 0.603480 0.763090 -0.533613
O28   O     O_R   0.396520 0.939570 0.236910 -0.524413
O29   O     O_R   0.060430 0.396520 0.763090 -0.533613
O30   O     O_R   0.603480 0.060430 0.236910 -0.524413
O31   O     O_R   0.396500 0.939480 0.763090 -0.524228
O32   O     O_R   0.939480 0.603500 0.236910 -0.533667
O33   O     O_R   0.603500 0.060520 0.763090 -0.524228
O34   O     O_3   1.000000 0.500000 0.750000 -0.457344
O35   O     O_R   0.060520 0.396500 0.236910 -0.533667
O36   O     O_R   0.603500 0.939480 0.236910 -0.533668
O37   O     O_R   0.060520 0.603500 0.763090 -0.524222
O38   O     O_R   0.396500 0.060520 0.236910 -0.533667
O39   O     O_R   0.939480 0.396500 0.763090 -0.524223
O40   O     O_R   0.896500 0.439480 0.263090 -0.524406
O41   O     O_R   0.439480 0.103500 0.736910 -0.533673
O42   O     O_R   0.103500 0.560520 0.263090 -0.524406
O43   O     O_R   0.560520 0.896500 0.736910 -0.533673
O44   O     O_R   0.103500 0.439480 0.736910 -0.533674
O45   O     O_R   0.499950 0.956990 0.700060 -0.512212
O46   O     O_R   0.560520 0.103500 0.263090 -0.524404
O47   O     O_R   0.896500 0.560520 0.736910 -0.533674
O48   O     O_R   0.439480 0.896500 0.263090 -0.524404
O49   O     O_2   0.540550 0.917210 0.905851 -0.487047
O50   O     O_2   0.920264 0.546224 0.094238 -0.486162
O51   O     O_2   0.459448 0.082789 0.905851 -0.487046
O52   O     O_2   0.079736 0.453776 0.094238 -0.486163
O53   O     O_2   0.546300 0.920308 0.094239 -0.486151
O54   O     O_2   0.082847 0.459565 0.905852 -0.487064
O55   O     O_2   0.453701 0.079692 0.094239 -0.486152
O56   O     O_R   0.956990 0.500050 0.299940 -0.512389
O57   O     O_2   0.917153 0.540435 0.905852 -0.487064
O58   O     O_2   0.046285 0.420300 0.405758 -0.486189
O59   O     O_2   0.417202 0.040533 0.594146 -0.487014
O60   O     O_2   0.953713 0.579700 0.405758 -0.486190
O61   O     O_2   0.582799 0.959467 0.594146 -0.487014
O62   O     O_2   0.040531 0.417201 0.594146 -0.487014
O63   O     O_2   0.579699 0.953711 0.405758 -0.486189
O64   O     O_2   0.959469 0.582799 0.594146 -0.487013
O65   O     O_2   0.420302 0.046288 0.405758 -0.486189
O66   O     O_R   0.500050 0.043010 0.700060 -0.512212
O67   O     O_R   0.043010 0.499950 0.299940 -0.512388
O68   O     O_R   0.500050 0.956990 0.299940 -0.512389
Zn1   Zn    Zn3+2 0.561370 0.999980 0.768700 0.983473
Zn2   Zn    Zn3+2 0.499980 0.938630 0.731300 0.983470
Zn3   Zn    Zn3+2 0.938630 0.500020 0.268700 0.983798
Zn4   Zn    Zn3+2 0.500020 0.061370 0.731300 0.983470
Zn5   Zn    Zn3+2 0.938630 0.499980 0.731300 0.983467
Zn6   Zn    Zn3+2 0.500020 0.938630 0.268700 0.983801
Zn7   Zn    Zn3+2 0.061370 0.500020 0.731300 0.983467
Zn8   Zn    Zn3+2 0.499980 0.061370 0.268700 0.983800
Zn9   Zn    Zn3+2 0.999980 0.438630 0.231300 0.983795
Zn10  Zn    Zn3+2 0.438630 0.000020 0.768700 0.983474
Zn11  Zn    Zn3+2 0.000020 0.561370 0.231300 0.983795
Zn12  Zn    Zn3+2 0.438630 0.999980 0.231300 0.983797
Zn13  Zn    Zn3+2 0.000020 0.438630 0.768700 0.983470
Zn14  Zn    Zn3+2 0.561370 0.000020 0.231300 0.983797
Zn15  Zn    Zn3+2 0.999980 0.561370 0.768700 0.983471
Zn16  Zn    Zn3+2 0.061370 0.499980 0.268700 0.983798

loop_
_geom_bond_atom_site_label_1
_geom_bond_atom_site_label_2
_ccdc_geom_bond_type
C63   H101  S    
C6    C32   A    
C179  I11   S    
C72   H136  S    
C45   O16   A    
C78   C115  S    
C2    C202  A    
C198  C260  A    
C148  H117  S    
C98   C152  T    
C249  H30   S    
C12   C23   A    
C85   H96   S    
C91   C127  S    
C33   H62   S    
C75   H13   S    
C28   H56   S    
O31   Zn10  S    
C40   C239  A    
C146  H12   S    
C80   H91   S    
C69   H1    S    
C188  O68   A    
C207  N7    S    
C185  I1    S    
C64   C118  S    
C208  N8    S    
O12   Zn3   S    
C215  C228  A    
C38   H66   S    
C83   C119  S    
C25   C211  A    
C213  C226  A    
C199  C260  S    
C124  H15   S    
C80   C116  S    
C189  I15   S    
C60   O46   A    
C247  H28   S    
C61   C115  S    
C56   O47   A    
C85   C121  S    
O32   Zn11  S    
C54   O25   A    
C34   C240  A    
C221  O6    A    
C167  C218  A    
C52   O42   A    
C44   C114  S    
C119  C153  S    
O37   Zn15  S    
C7    C33   A    
C183  N7    A    
O35   Zn9   S    
C92   H85   S    
O27   Zn15  S    
C233  C250  A    
C88   C94   S    
C41   C238  A    
C10   C21   A    
C94   H87   S    
C101  H8    S    
C13   C185  A    
C135  H16   S    
C20   C215  A    
C54   C103  S    
C109  C163  T    
C217  C233  A    
C232  O11   A    
C110  C164  T    
C144  C145  S    
C205  N5    S    
C225  C242  A    
C184  C235  A    
C93   H86   S    
C26   C249  A    
C142  C148  S    
O23   Zn6   S    
C226  C244  A    
C48   C105  S    
C168  C254  A    
C128  C162  S    
O17   Zn3   S    
C172  N3    A    
C33   C246  A    
C55   O41   A    
C56   O27   A    
C128  C144  S    
C27   H55   S    
C47   O32   A    
C127  C145  S    
C212  C225  A    
C91   H102  S    
C13   H142  S    
C133  C139  S    
C79   H10   S    
C232  C257  S    
C44   O15   A    
C50   C107  S    
C82   C118  S    
O33   Zn1   S    
O34   Zn7   S    
C101  C194  A    
C16   C25   A    
C77   H134  S    
C145  H119  S    
C250  H31   S    
C40   H69   S    
C186  I9    S    
C133  H114  S    
C195  C259  A    
C146  C207  A    
C125  C148  S    
C135  C197  A    
C126  C147  S    
C45   C111  S    
C174  O55   S    
C62   H112  S    
C119  C136  S    
C51   O37   A    
C138  H37   S    
C64   H90   S    
C28   C251  A    
C139  H36   S    
C45   O31   A    
C172  C223  A    
C170  O51   S    
C177  C228  A    
C192  I3    S    
C219  C237  A    
C200  C261  A    
C71   C76   S    
C90   C193  A    
O28   Zn12  S    
C188  C261  S    
C248  H29   S    
C31   H60   S    
C221  O8    A    
C48   O38   A    
C210  C255  S    
C116  C156  S    
C183  C234  A    
C50   O36   A    
C244  H25   S    
C149  H43   S    
C52   O22   A    
C4    C262  A    
C182  N8    A    
C88   H99   S    
C6    C264  A    
C214  C229  A    
O22   Zn11  S    
C141  H51   S    
C81   C117  S    
C73   H35   S    
C196  I7    S    
O41   Zn4   S    
C217  C235  A    
C136  H39   S    
C5    C20   A    
O40   Zn3   S    
C6    C19   A    
O11   Zn15  S    
C94   C130  S    
C175  C226  A    
C251  H32   S    
C130  C160  S    
C177  N6    A    
C174  C225  A    
C88   H82   S    
C213  C224  A    
C224  C241  A    
C86   H97   S    
C228  C246  A    
C168  C253  A    
C53   C104  S    
C201  C254  A    
O19   Zn5   S    
C222  C239  A    
C169  N2    A    
C17   C262  A    
C3    C29   A    
C48   O18   A    
C53   O24   A    
C76   C130  S    
C74   H138  S    
C87   C95   S    
C117  C155  S    
C9    C36   A    
C7    C263  A    
C111  C165  T    
C81   H92   S    
O34   Zn5   S    
C112  O56   A    
C179  C255  A    
O47   Zn5   S    
C26   H54   S    
C67   H57   S    
C70   C77   S    
C187  I14   S    
C180  O61   S    
C72   C75   S    
C67   C121  S    
C49   C108  S    
C203  N3    S    
C221  C253  S    
C115  C158  S    
C201  N1    S    
C136  H111  S    
C82   H75   S    
C113  H9    S    
C91   C92   S    
C84   H95   S    
C68   C191  A    
C79   C205  A    
C34   H63   S    
C52   C100  S    
C121  C151  S    
C181  O62   S    
C146  C198  A    
C125  C165  S    
C88   C125  S    
C237  H18   S    
O4    Zn5   S    
C103  C156  T    
O1    Zn2   S    
C194  I16   S    
C8    C12   A    
C124  C196  A    
C81   H74   S    
C129  C161  S    
C8    C34   A    
C131  C159  S    
C214  C227  A    
C101  C205  A    
C170  N1    A    
C141  H124  S    
C7    C20   A    
O18   Zn8   S    
C31   C248  A    
C167  O49   S    
C46   C189  A    
C231  C249  A    
C1    O45   A    
C100  C154  T    
C206  N6    S    
C38   C241  A    
C51   O21   A    
C235  C252  A    
C112  O67   A    
C176  O58   S    
C252  H33   S    
C132  H42   S    
C136  C137  S    
C234  C251  A    
C184  O65   S    
C144  H48   S    
C211  C219  A    
C239  H20   S    
C21   C212  A    
O56   Zn3   S    
C17   C264  A    
C175  N4    A    
C58   O28   A    
C186  C255  A    
O23   Zn14  S    
C87   C123  S    
O3    Zn8   S    
C173  C224  A    
O26   Zn10  S    
C69   C122  S    
O10   Zn14  S    
O36   Zn14  S    
C118  C154  S    
O13   Zn12  S    
C120  C134  S    
C89   C93   S    
C130  C142  S    
C229  C247  A    
C197  I8    S    
C22   C213  A    
O20   Zn6   S    
C59   C98   S    
C43   C109  S    
C187  C256  A    
C55   O26   A    
C61   H125  S    
C63   H127  S    
O68   Zn6   S    
C190  C256  A    
C24   H143  S    
C215  C230  A    
C216  C234  A    
C73   C74   S    
C147  H118  S    
C117  C138  S    
C220  C238  A    
C171  C222  A    
C149  H116  S    
O29   Zn13  S    
C55   C102  S    
C122  C150  S    
C171  N2    A    
O7    Zn11  S    
C76   H2    S    
C185  C253  A    
C39   C236  A    
C63   C117  S    
O1    Zn4   S    
C68   C204  A    
C178  N5    A    
C216  C231  A    
O16   Zn2   S    
C24   C186  A    
C37   H65   S    
C197  C261  A    
C238  H19   S    
C134  H113  S    
C90   C206  A    
C123  C166  S    
C210  O7    A    
C107  C161  T    
C57   H4    S    
C80   H73   S    
C199  O4    A    
C86   C122  S    
C92   H103  S    
C32   H61   S    
C17   C216  A    
C71   H52   S    
C116  C139  S    
C62   H126  S    
C46   C204  A    
C63   C66   S    
C95   C131  S    
C87   H98   S    
C93   C129  S    
C82   H93   S    
C89   C126  S    
O12   Zn11  S    
C137  H110  S    
C43   O33   A    
C240  H21   S    
C32   C247  A    
C72   H46   S    
C29   H58   S    
C36   C244  A    
C173  N4    A    
C18   C263  A    
C76   H140  S    
C60   C97   S    
C104  C158  T    
C138  H109  S    
C93   H104  S    
C73   C127  S    
C173  O54   S    
C243  C256  S    
C72   C126  S    
O34   Zn13  S    
C11   C38   A    
C27   C252  A    
C80   C85   S    
C83   H94   S    
C227  C245  A    
C84   C120  S    
C198  I5    S    
C180  C230  A    
C57   C203  A    
C65   C119  S    
O43   Zn2   S    
C177  O59   S    
C85   H78   S    
C54   O40   A    
O6    Zn10  S    
C15   C41   A    
O9    Zn13  S    
C66   H130  S    
C169  C219  A    
C176  N5    A    
C79   C192  A    
C124  C207  A    
C142  H50   S    
C78   H72   S    
C202  N2    S    
C35   H6    S    
C27   C263  A    
C191  I13   S    
C56   C96   S    
O12   Zn9   S    
C127  C163  S    
C58   C99   S    
C132  H115  S    
C192  C258  A    
C3    C5    A    
C129  C143  S    
C245  H26   S    
C132  C140  S    
C67   H131  S    
O14   Zn4   S    
C223  C240  A    
C65   H129  S    
C64   C65   S    
O39   Zn13  S    
C12   C39   A    
O34   Zn15  S    
C218  C236  A    
C42   H71   S    
C29   C250  A    
C188  O3    A    
C210  O5    A    
C105  C159  T    
C195  I2    S    
C106  C160  T    
C2    H3    S    
C99   C153  T    
C199  O2    A    
C193  C259  A    
C94   H105  S    
C182  O63   S    
C65   H79   S    
C193  I4    S    
O67   Zn16  S    
C191  C257  A    
C14   C25   A    
O23   Zn12  S    
C68   H5    S    
C115  C140  S    
C35   C187  A    
C82   C83   S    
C204  N4    S    
C71   C125  S    
C86   H80   S    
C49   O19   A    
C254  H144  S    
C190  I12   S    
C1    C259  S    
O46   Zn8   S    
C123  C149  S    
C46   H7    S    
C139  H108  S    
C30   C245  A    
C183  O64   S    
C43   O14   A    
O8    Zn1   S    
C66   H68   S    
C78   H89   S    
C141  C149  S    
C148  H44   S    
C143  C147  S    
O1    Zn10  S    
C24   C202  A    
C62   C67   S    
C10   C37   A    
C209  C218  A    
C9    C16   A    
C184  N8    A    
C10   C15   A    
C87   H81   S    
C77   C131  S    
C11   C14   A    
C9    C22   A    
O45   Zn2   S    
O21   Zn7   S    
C3    C18   A    
C71   H135  S    
C196  C260  A    
C243  O10   A    
C70   H133  S    
C182  C233  A    
C157  H14   S    
C4    C19   A    
C70   C123  S    
C47   O17   A    
C74   C128  S    
O2    Zn7   S    
C95   H88   S    
C172  O53   S    
C168  I10   S    
C90   H11   S    
C241  H22   S    
C118  C137  S    
C49   O39   A    
O48   Zn6   S    
C44   O35   A    
C112  C258  S    
C78   C86   S    
C15   C23   A    
C96   C150  T    
C66   C120  S    
C178  O60   S    
C113  C195  A    
C60   O30   A    
C157  C208  A    
C134  H40   S    
C126  C164  S    
C92   C128  S    
C89   H100  S    
C122  C132  S    
C42   C237  A    
C114  C166  T    
C170  C220  A    
C97   C151  T    
C121  C133  S    
O1    Zn1   S    
C246  H27   S    
C120  C152  S    
C1    O66   A    
C61   H123  S    
O38   Zn12  S    
C180  N6    A    
C137  H38   S    
C171  O52   S    
C181  N7    A    
C178  C229  A    
C142  H122  S    
C169  O50   S    
C140  H34   S    
C23   C209  A    
C28   C264  A    
C211  C222  A    
C108  C162  T    
O66   Zn4   S    
C36   H64   S    
C194  C258  A    
C53   O43   A    
C64   H128  S    
C62   C116  S    
C145  H47   S    
C147  H45   S    
C74   H24   S    
C140  H107  S    
O12   Zn16  S    
C83   H76   S    
C8    C21   A    
C167  N1    A    
O15   Zn16  S    
C174  N3    A    
C143  H49   S    
C133  H41   S    
O5    Zn9   S    
C59   O44   A    
C2    C179  A    
C95   H106  S    
C243  O13   A    
C16   C42   A    
C41   H70   S    
C81   C84   S    
C230  C248  A    
C61   C69   S    
C176  C227  A    
C37   C242  A    
C209  C220  A    
C50   O20   A    
C236  H17   S    
C70   H53   S    
C175  O57   S    
C143  H121  S    
O24   Zn1   S    
C134  C138  S    
C26   C262  A    
C39   H67   S    
C89   H83   S    
C47   C110  S    
C11   C22   A    
C30   H59   S    
C189  C257  A    
C19   C214  A    
O42   Zn16  S    
C113  C206  A    
C59   O29   A    
C69   H132  S    
C57   C190  A    
C232  O9    A    
C144  H120  S    
C35   C203  A    
C181  C231  A    
C51   C106  S    
O25   Zn9   S    
C13   C201  A    
O30   Zn14  S    
C242  H23   S    
C131  C141  S    
C14   C40   A    
O23   Zn8   S    
C200  I6    S    
C84   H77   S    
O44   Zn7   S    
C77   H141  S    
C91   H84   S    
C58   O48   A    
C157  C200  A    
C75   H139  S    
C18   C217  A    
C102  C155  T    
C4    C30   A    
C75   C129  S    
C73   H137  S    
C135  C208  A    
C5    C31   A    
C212  C223  A    
