data_mof_unit_36623.cif
_audit_creation_date              2012-12-11T20:21:45-0500
_audit_creation_method            fapswitch 2.2
_symmetry_space_group_name_H-M    P1
_symmetry_Int_Tables_number       1
_space_group_crystal_system       triclinic
_cell_length_a                    8.297574
_cell_length_b                    17.360749
_cell_length_c                    26.939457
_cell_angle_alpha                 99.872651
_cell_angle_beta                  92.933
_cell_angle_gamma                 81.514998
_cell_volume                      3780.03755726

loop_
_atom_site_label
_atom_site_type_symbol
_atom_type_description
_atom_site_fract_x
_atom_site_fract_y
_atom_site_fract_z
_atom_type_partial_charge
Ba1   Ba    Ba6+2 0.860160 0.462360 0.521850 1.642416
Ba2   Ba    Ba6+2 0.329680 0.537570 0.478140 1.632648
C1    C     C_3   0.745117 0.174496 0.650659 -0.377898
C2    C     C_R   0.876797 0.572304 0.181638 0.577924
C3    C     C_2   0.735801 0.523973 0.272323 -0.088506
C4    C     C_3   0.154949 0.269811 0.649284 0.371757
C5    C     C_3   0.693824 0.518331 0.325709 -0.046520
C6    C     C_1   0.984095 0.489213 0.344078 0.064113
C7    C     C_2   0.023825 0.490789 0.297031 -0.106637
C8    C     C_2   0.893586 0.509281 0.257976 0.189149
C9    C     C_R   0.009644 0.505100 0.103797 -0.078593
C10   C     C_R   0.070542 0.441402 0.128831 -0.034445
C11   C     C_R   0.169318 0.376277 0.102515 -0.061663
C12   C     C_3   0.691302 0.253437 0.633296 0.353894
C13   C     C_R   0.912152 0.570964 0.130523 -0.030344
C14   C     C_2   0.840674 0.523778 0.361014 -0.297475
C15   C     C_2   0.349954 0.477402 0.640144 -0.313964
C16   C     C_3   0.143175 0.227935 0.693914 -0.383781
C17   C     C_R   0.171676 0.431269 0.973140 0.019830
C18   C     C_R   0.026646 0.566573 0.976126 0.018896
C19   C     C_R   0.117016 0.497593 0.949023 0.049206
C20   C     C_R   0.254009 0.362923 0.943768 -0.102430
C21   C     C_R   0.282969 0.359845 0.893015 -0.071134
C22   C     C_R   0.234483 0.425349 0.869232 -0.031730
C23   C     C_3   0.497015 0.649431 0.633271 0.296193
C24   C     C_R   0.153406 0.494814 0.897206 -0.080719
C25   C     C_R   0.107915 0.561161 0.873233 -0.036538
C26   C     C_R   0.151528 0.558263 0.822505 0.590268
C27   C     C_R   0.265491 0.422316 0.817867 0.582052
C28   C     C_3   0.153508 0.285040 0.400017 0.389047
C29   C     C_2   0.434916 0.454252 0.728134 0.175833
C30   C     C_3   0.460124 0.426791 0.671741 -0.066949
C31   C     C_1   0.205943 0.512610 0.657161 0.041630
C32   C     C_2   0.159276 0.511886 0.703788 -0.128894
C33   C     C_2   0.280840 0.485653 0.743256 0.183077
C34   C     C_3   0.493441 0.668520 0.690473 -0.357384
C35   C     C_R   0.141507 0.435002 0.025342 0.019619
C36   C     C_R   0.045930 0.502783 0.052005 0.049664
C37   C     C_R   0.986042 0.568119 0.027430 0.019418
C38   C     C_R   0.204448 0.373066 0.052167 -0.100951
C39   C     C_R   0.851100 0.634101 0.105542 -0.060880
C40   C     C_3   0.077108 0.210089 0.381052 -0.314775
C41   C     C_R   0.980659 0.631887 0.950671 -0.100865
C42   C     C_R   0.021459 0.629292 0.900691 -0.061840
C43   C     C_R   0.886687 0.632792 0.055324 -0.101085
C44   C     C_2   0.457298 0.282299 0.518591 -0.212618
C45   C     C_3   0.028802 0.709069 0.345906 0.420147
C46   C     C_3   0.383871 0.231628 0.549115 -0.059562
C47   C     C_2   0.433653 0.144881 0.532704 -0.098402
C48   C     C_2   0.560672 0.117931 0.502012 0.008872
C49   C     C_2   0.640004 0.175847 0.480159 -0.119886
C50   C     C_1   0.579697 0.251826 0.488173 0.097152
C51   C     C_R   0.796872 0.864447 0.479368 -0.114723
C52   C     C_3   0.975848 0.704306 0.591369 0.311297
C53   C     C_R   0.853213 0.783628 0.472178 0.039076
C54   C     C_R   0.623777 0.761062 0.517255 0.036152
C55   C     C_R   0.568001 0.841947 0.525248 -0.117156
C56   C     C_3   0.088900 0.723179 0.295939 -0.299677
C57   C     C_R   0.652761 0.894089 0.505757 0.010171
C58   C     C_2   0.621734 0.032272 0.489009 -0.074919
C59   C     C_2   0.595611 0.979514 0.517954 -0.076379
C60   C     C_R   0.763851 0.731951 0.489590 -0.284609
C61   C     C_3   0.954576 0.793332 0.608440 -0.381413
C62   C     C_3   0.697347 0.353354 0.365681 0.291008
C63   C     C_3   0.715853 0.322563 0.309459 -0.376259
C64   C     C_3   0.656617 0.374016 0.769170 -0.113259
C65   C     C_3   0.479208 0.741698 0.376623 0.338468
C66   C     C_3   0.469515 0.823389 0.362438 -0.361923
C67   C     C_R   0.031295 0.443715 0.179663 0.591910
H1    H     H_    0.719628 0.246967 0.592782 0.062285
H2    H     H_    0.813913 0.371895 0.381537 0.008577
H3    H     H_    0.598482 0.404283 0.371228 0.052592
H4    H     H_    0.873825 0.152408 0.641106 0.149624
H5    H     H_    0.803108 0.267465 0.303421 0.134717
H6    H     H_    0.762779 0.365559 0.290337 0.080736
H7    H     H_    0.596836 0.310439 0.292000 0.125385
H8    H     H_    0.557743 0.267245 0.638214 -0.069215
H9    H     H_    0.668600 0.130407 0.631277 0.071110
H10   H     H_    0.375281 0.635450 0.618846 0.020198
H11   H     H_    0.590397 0.597029 0.622747 0.067988
H12   H     H_    0.128696 0.180026 0.344255 0.106479
H13   H     H_    0.398473 0.719683 0.702322 0.133209
H14   H     H_    0.465131 0.616852 0.705894 0.070106
H15   H     H_    0.614049 0.682951 0.705979 0.133743
H16   H     H_    0.731072 0.180687 0.691962 0.108403
H17   H     H_    0.216067 0.254152 0.726300 0.140220
H18   H     H_    0.089928 0.650118 0.352314 0.071175
H19   H     H_    0.221292 0.725932 0.298568 0.132780
H20   H     H_    0.067114 0.673945 0.265413 0.098751
H21   H     H_    0.024783 0.779480 0.286028 0.129949
H22   H     H_    0.578130 0.735504 0.405343 -0.000045
H23   H     H_    0.101410 0.168675 0.408639 0.113965
H24   H     H_    0.363332 0.737162 0.393516 0.105477
H25   H     H_    0.584532 0.829259 0.345044 0.147569
H26   H     H_    0.450520 0.868896 0.396785 0.082645
H27   H     H_    0.091179 0.331357 0.657928 0.074064
H28   H     H_    0.366413 0.833669 0.335396 0.124479
H29   H     H_    0.149970 0.476445 0.286086 0.137704
H30   H     H_    0.220664 0.326902 0.120887 0.121624
H31   H     H_    0.346479 0.305733 0.872518 0.115638
H32   H     H_    0.295985 0.309755 0.958520 0.068424
H33   H     H_    0.283954 0.321079 0.035616 0.068152
H34   H     H_    0.943812 0.224365 0.375903 0.121200
H35   H     H_    0.637843 0.533854 0.244856 0.109460
H36   H     H_    0.774149 0.685263 0.124808 0.122428
H37   H     H_    0.915068 0.687048 0.968575 0.069201
H38   H     H_    0.286397 0.271818 0.644964 -0.081809
H39   H     H_    0.983930 0.681379 0.883465 0.121133
H40   H     H_    0.034775 0.534201 0.714374 0.142452
H41   H     H_    0.831778 0.683411 0.039278 0.069062
H42   H     H_    0.826663 0.550699 0.400304 0.080269
H43   H     H_    0.377976 0.472540 0.600741 0.082159
H44   H     H_    0.528617 0.998640 0.552369 0.067926
H45   H     H_    0.855698 0.685593 0.580645 0.003383
H46   H     H_    0.745228 0.154847 0.456627 0.078043
H47   H     H_    0.869598 0.903766 0.466643 0.077353
H48   H     H_    0.691221 0.012848 0.455014 0.074957
H49   H     H_    0.367254 0.105407 0.547959 0.067418
H50   H     H_    0.015347 0.234301 0.705645 0.138537
H51   H     H_    0.460889 0.864355 0.547539 0.074122
H52   H     H_    0.422722 0.345737 0.527867 0.069546
H53   H     H_    0.808573 0.669400 0.484231 0.065431
H54   H     H_    0.191673 0.164334 0.683890 0.108730
H55   H     H_    0.095881 0.315185 0.435583 0.110927
H56   H     H_    0.056511 0.689256 0.558472 0.069026
H57   H     H_    0.820504 0.684663 0.372035 0.112898
H58   H     H_    0.822806 0.673145 0.309586 0.202929
H59   H     H_    0.553660 0.490189 0.797233 0.189940
H60   H     H_    0.787246 0.372714 0.761556 0.117720
H61   H     H_    0.607181 0.325582 0.743172 0.127950
H62   H     H_    0.647796 0.363217 0.808346 0.095282
H63   H     H_    0.380012 0.232320 0.377365 0.196143
H64   H     H_    0.369472 0.316438 0.418502 0.169322
H65   H     H_    0.867656 0.810291 0.639783 0.129959
H66   H     H_    0.906829 0.824291 0.576933 0.062267
H67   H     H_    0.073844 0.812361 0.621552 0.126779
N1    N     N_R   0.935206 0.508753 0.205736 -0.423700
N2    N     N_R   0.232614 0.489429 0.795427 -0.422396
N3    N     N_3   0.852523 0.710409 0.342419 -0.476453
N4    N     N_2   0.568581 0.450873 0.763871 -0.418214
N5    N     N_3   0.324747 0.262900 0.410419 -0.529369
O1    O     O_2   0.906370 0.542040 0.619810 -0.457288
O2    O     O_2   0.187404 0.781192 0.476832 -0.491290
O3    O     O_3   0.069271 0.769549 0.384390 -0.603314
O4    O     O_3   0.138370 0.541980 0.559630 -0.493362
O5    O     O_3   0.572820 0.404940 0.471170 -0.490883
O6    O     O_2   0.345130 0.693150 0.532000 -0.457298
O7    O     O_3   0.535376 0.714906 0.614425 -0.640692
O8    O     O_2   0.353418 0.562739 0.328508 -0.509240
O9    O     O_3   0.509555 0.683496 0.333620 -0.600435
O10   O     O_2   0.080560 0.387006 0.200400 -0.597081
O11   O     O_2   0.320565 0.359259 0.792888 -0.632179
O12   O     O_3   0.657634 0.292366 0.388308 -0.646144
O13   O     O_2   0.794835 0.630461 0.204751 -0.601473
O14   O     O_2   0.118627 0.617237 0.802807 -0.596073
O15   O     O_3   0.686580 0.398330 0.583860 -0.479285
O16   O     O_2   0.784118 0.464482 0.675190 -0.475007
O17   O     O_3   0.043610 0.668154 0.631553 -0.625214
O18   O     O_3   0.772833 0.312548 0.661816 -0.599137
O19   O     O_2   0.844570 0.306830 0.467970 -0.479937
O20   O     O_3   0.101900 0.357890 0.557750 -0.479077
O21   O     O_2   0.067017 0.215651 0.506917 -0.485712
O22   O     O_3   0.083509 0.228910 0.605880 -0.585560
O23   O     O_2   0.283330 0.457940 0.380160 -0.468884
O24   O     O_3   0.051340 0.457960 0.440360 -0.501418
O25   O     O_3   0.503130 0.601610 0.416130 -0.483523
O26   O     O_3   0.136947 0.332607 0.362319 -0.632599
O27   O     O_3   0.616890 0.595000 0.528820 -0.480331
O28   O     O_3   0.087820 0.642040 0.442240 -0.496487
P1    P     P_3+3 0.071770 0.565500 0.613330 0.999334
P2    P     P_3+3 0.664870 0.318630 0.453960 0.965090
P3    P     P_3+3 0.158335 0.256895 0.553120 0.967110
P4    P     P_3+3 0.117940 0.434440 0.386660 0.985691
P5    P     P_3+3 0.050708 0.744294 0.444122 0.937330
P6    P     P_3+3 0.675279 0.403728 0.648956 0.962924
P7    P     P_3+3 0.530136 0.693437 0.548501 0.951579
P8    P     P_3+3 0.515053 0.589975 0.350706 0.945241

loop_
_geom_bond_atom_site_label_1
_geom_bond_atom_site_label_2
_ccdc_geom_bond_type
C2    O13   D    
C10   C67   A    
O15   P6    S    
C7    H29   S    
C1    H16   S    
C23   H11   S    
Ba1   O4    S    
C19   C24   A    
C40   H34   S    
C51   C57   A    
Ba2   O4    S    
C27   N2    Am   
C24   C25   A    
C16   H17   S    
C63   H7    S    
C39   H36   S    
C54   P7    S    
C17   C19   A    
C22   C24   A    
C28   O26   S    
C32   C33   S    
C35   C38   A    
Ba2   P4    S    
C36   C37   A    
C55   C57   A    
C52   C61   S    
C34   H14   S    
O24   P4    S    
C53   C60   A    
C44   C50   D    
Ba1   P1    S    
C54   C55   A    
C5    P8    S    
Ba1   Ba2   S    
C12   H8    S    
C66   H28   S    
C11   C38   A    
Ba1   O1    S    
C17   C35   A    
C2    N1    Am   
C46   P3    S    
O20   P3    S    
C9    C13   A    
C25   C42   A    
C29   C30   S    
C34   H13   S    
C6    C7    D    
C26   O14   D    
C21   C22   A    
C44   H52   S    
C8    N1    S    
C7    C8    S    
Ba2   O25   S    
C40   H23   S    
C51   H47   S    
C16   H54   S    
C37   C43   A    
C64   H60   S    
C51   C53   A    
C21   H31   S    
C3    H35   S    
Ba1   O20   S    
C6    C14   D    
O18   P6    S    
O5    P2    S    
C65   O9    S    
C64   H61   S    
C12   H1    S    
Ba1   O5    S    
C40   H12   S    
C15   C31   D    
C31   P1    S    
C50   P2    S    
C65   H22   S    
C30   P6    S    
C48   C49   S    
C42   H39   S    
C67   N1    Am   
C4    C16   S    
C52   H56   S    
C44   C46   S    
H57   N3    S    
C57   C59   S    
C66   H26   S    
C62   H2    S    
C65   C66   S    
C67   O10   D    
C61   H65   S    
O23   P4    D    
C17   C20   A    
C26   N2    Am   
C13   C39   A    
Ba2   O23   S    
C3    C5    S    
C18   C37   A    
C43   H41   S    
O17   P1    S    
Ba2   O28   S    
Ba1   O27   S    
Ba2   O6    S    
C28   N5    S    
C45   O3    S    
Ba1   P2    S    
C66   H25   S    
C63   H5    S    
C49   C50   D    
C58   C59   D    
C41   H37   S    
C61   H66   S    
C11   H30   S    
Ba1   O15   S    
C41   C42   A    
C53   P5    S    
C35   C36   A    
C52   O17   S    
C56   H21   S    
C47   H49   S    
Ba1   O24   S    
O28   P5    S    
O12   P2    S    
O8    P8    D    
C31   C32   D    
O21   P3    D    
C58   H48   S    
O25   P8    S    
O7    P7    S    
C18   C19   A    
O22   P3    S    
C20   H32   S    
Ba2   O24   S    
C1    C12   S    
O16   P6    D    
C55   H51   S    
C46   C47   S    
C28   H55   S    
C4    H27   S    
O9    P8    S    
C59   H44   S    
C15   C30   S    
C54   C60   A    
O3    P5    S    
C15   H43   S    
Ba2   O27   S    
C60   H53   S    
C18   C41   A    
C64   H62   S    
H63   N5    S    
O27   P7    S    
O4    P1    S    
C5    C14   S    
O6    P7    D    
Ba1   O19   S    
C56   H19   S    
C52   H45   S    
C4    H38   S    
Ba2   O5    S    
H64   N5    S    
C63   H6    S    
O26   P4    S    
C12   O18   S    
C48   C58   S    
C62   C63   S    
C2    C13   A    
H59   N4    S    
C3    C8    D    
C33   N2    S    
C61   H67   S    
C45   C56   S    
C34   H15   S    
C62   O12   S    
O19   P2    D    
C23   O7    S    
C29   C33   D    
C62   H3    S    
C1    H4    S    
C56   H20   S    
C49   H46   S    
C23   H10   S    
C23   C34   S    
C38   H33   S    
C22   C27   A    
C64   N4    S    
C4    O22   S    
C14   H42   S    
C47   C48   D    
C45   N3    S    
C25   C26   A    
C65   H24   S    
C32   H40   S    
C39   C43   A    
C20   C21   A    
C28   C40   S    
C9    C36   A    
C6    P4    S    
O2    P5    D    
C10   C11   A    
C29   N4    S    
C1    H9    S    
C16   H50   S    
H58   N3    S    
O1    P1    D    
C9    C10   A    
C45   H18   S    
C27   O11   D    
