data_mof_unit_32088.cif
_audit_creation_date              2012-12-10T17:57:05-0500
_audit_creation_method            fapswitch 2.2
_symmetry_space_group_name_H-M    P1
_symmetry_Int_Tables_number       1
_space_group_crystal_system       triclinic
_cell_length_a                    18.341606
_cell_length_b                    18.27974
_cell_length_c                    26.017563
_cell_angle_alpha                 89.597789
_cell_angle_beta                  89.689818
_cell_angle_gamma                 89.756611
_cell_volume                      8722.74296354

loop_
_atom_site_label
_atom_site_type_symbol
_atom_type_description
_atom_site_fract_x
_atom_site_fract_y
_atom_site_fract_z
_atom_type_partial_charge
C1    C     C_R   0.860052 0.139836 0.250037 0.500519
C2    C     C_R   0.777761 0.772388 0.797722 -0.000309
C3    C     C_R   0.506587 0.501974 0.053821 -0.043722
C4    C     C_R   0.012008 0.934080 0.475728 0.246040
C5    C     C_R   0.026554 0.938066 0.527878 0.252101
C6    C     C_R   0.513200 0.433349 0.975745 0.248190
C7    C     C_R   0.527163 0.437304 0.028057 0.250615
C8    C     C_3   0.036181 0.272576 0.447183 -0.285542
C9    C     C_3   0.981880 0.292369 0.405017 -0.428964
C10   C     C_3   0.946380 0.269105 0.546772 -0.283411
C11   C     C_3   0.998871 0.295941 0.587819 -0.434154
C12   C     C_3   0.559178 0.769065 0.946514 -0.275603
C13   C     C_R   0.767816 0.784562 0.202281 -0.008455
C14   C     C_3   0.626657 0.799937 0.972619 -0.442738
C15   C     C_3   0.470389 0.772570 0.047747 -0.287137
C16   C     C_3   0.508265 0.781600 0.099552 -0.427204
C17   C     C_3   0.193034 0.802958 0.151219 -0.261724
C18   C     C_3   0.216513 0.760008 0.103524 -0.466591
C19   C     C_3   0.809598 0.788882 0.850234 -0.273050
C20   C     C_3   0.840850 0.719870 0.875713 -0.460551
C21   C     C_3   0.789894 0.820059 0.151163 -0.254159
C22   C     C_3   0.763311 0.782371 0.102349 -0.467369
C23   C     C_3   0.292719 0.904829 0.742533 -0.252808
C24   C     C_R   0.271155 0.824334 0.747484 -0.004717
C25   C     C_3   0.372075 0.919757 0.727410 -0.459687
C26   C     C_3   0.792860 0.404936 0.756112 -0.254341
C27   C     C_3   0.872315 0.419825 0.770235 -0.461310
C28   C     C_3   0.306901 0.301206 0.349017 -0.258642
C29   C     C_3   0.284620 0.256763 0.396665 -0.466498
C30   C     C_3   0.290099 0.319832 0.651203 -0.255296
C31   C     C_3   0.262621 0.282818 0.602381 -0.466820
C32   C     C_3   0.792778 0.404732 0.242783 -0.253594
C33   C     C_3   0.872304 0.419634 0.228115 -0.457820
C34   C     C_3   0.200332 0.804495 0.349939 -0.245917
C35   C     C_R   0.771331 0.324465 0.751899 -0.006881
C36   C     C_3   0.226402 0.882550 0.359271 -0.412101
C37   C     C_3   0.796146 0.811013 0.651307 -0.271487
C38   C     C_3   0.851607 0.763079 0.623219 -0.380291
C39   C     C_3   0.819732 0.776667 0.347075 -0.234830
C40   C     C_3   0.882230 0.722649 0.356524 -0.361361
C41   C     C_3   0.098154 0.702372 0.757896 -0.263692
C42   C     C_3   0.066239 0.720439 0.810713 -0.432246
C43   C     C_3   0.598940 0.202734 0.741400 -0.268174
C44   C     C_3   0.567470 0.174469 0.792157 -0.405973
C45   C     C_3   0.297855 0.308152 0.150818 -0.270327
C46   C     C_R   0.275813 0.275565 0.297818 -0.007647
C47   C     C_3   0.353986 0.259391 0.124114 -0.379679
C48   C     C_3   0.316855 0.279514 0.847679 -0.231618
C49   C     C_3   0.378272 0.225095 0.859236 -0.365444
C50   C     C_3   0.598002 0.202551 0.258610 -0.263795
C51   C     C_3   0.566216 0.221154 0.311403 -0.432789
C52   C     C_3   0.044060 0.867853 0.058710 -0.269815
C53   C     C_3   0.979211 0.832230 0.086149 -0.440677
C54   C     C_3   0.952545 0.131899 0.942276 -0.263488
C55   C     C_3   0.014625 0.185790 0.932786 -0.441555
C56   C     C_3   0.968568 0.136062 0.057725 -0.266220
C57   C     C_R   0.267921 0.284422 0.702322 -0.009320
C58   C     C_3   0.039426 0.167862 0.078820 -0.440515
C59   C     C_3   0.048406 0.868768 0.943076 -0.263728
C60   C     C_3   0.987817 0.812159 0.940408 -0.456058
C61   C     C_3   0.543432 0.367181 0.558728 -0.265778
C62   C     C_3   0.478690 0.332018 0.586627 -0.439785
C63   C     C_3   0.454039 0.632223 0.442299 -0.266024
C64   C     C_3   0.516614 0.685566 0.432920 -0.441196
C65   C     C_3   0.470031 0.636096 0.557737 -0.266266
C66   C     C_3   0.541221 0.667328 0.578705 -0.440617
C67   C     C_3   0.543268 0.366864 0.442821 -0.263125
C68   C     C_R   0.771137 0.324252 0.247678 -0.004736
C69   C     C_3   0.481056 0.311763 0.441609 -0.453368
C70   C     C_R   0.824426 0.269306 0.750463 -0.116100
C71   C     C_R   0.220689 0.222781 0.296504 -0.114874
C72   C     C_R   0.212388 0.232187 0.703717 -0.116078
C73   C     C_R   0.139903 0.139780 0.749657 0.503109
C74   C     C_R   0.824200 0.269074 0.249174 -0.114495
C75   C     C_R   0.280103 0.724239 0.203719 -0.114763
C76   C     C_R   0.720476 0.722465 0.796212 -0.120091
C77   C     C_R   0.712000 0.732636 0.203737 -0.114894
C78   C     C_R   0.324265 0.769189 0.749002 -0.112836
C79   C     C_R   0.804316 0.195996 0.750088 0.012769
C80   C     C_R   0.196153 0.195452 0.249916 0.012691
C81   C     C_R   0.195430 0.195372 0.749125 0.009410
C82   C     C_R   0.804141 0.195763 0.250096 0.015639
C83   C     C_R   0.304795 0.696205 0.250256 0.015602
C84   C     C_R   0.140010 0.139932 0.249840 0.494525
C85   C     C_R   0.695427 0.696032 0.749599 0.014065
C86   C     C_R   0.695530 0.695293 0.249048 0.010571
C87   C     C_R   0.304248 0.695856 0.749931 0.015810
C88   C     C_R   0.731370 0.175715 0.749604 -0.121039
C89   C     C_R   0.224301 0.221346 0.203540 -0.124463
C90   C     C_R   0.231607 0.210688 0.794280 -0.130102
C91   C     C_R   0.731163 0.175475 0.251234 -0.120833
C92   C     C_R   0.276912 0.721109 0.296724 -0.123997
C93   C     C_R   0.723341 0.722682 0.703343 -0.126839
C94   C     C_R   0.732588 0.709704 0.294007 -0.128595
C95   C     C_R   0.860036 0.140033 0.750018 0.495796
C96   C     C_R   0.231299 0.675526 0.750862 -0.121218
C97   C     C_R   0.224277 0.776154 0.297647 -0.016582
C98   C     C_R   0.775503 0.778040 0.703033 -0.009751
C99   C     C_R   0.785672 0.763339 0.295277 -0.028226
C100  C     C_R   0.176482 0.728450 0.752317 -0.004433
C101  C     C_R   0.676778 0.228723 0.747978 -0.002547
C102  C     C_R   0.276143 0.276859 0.202842 -0.008386
C103  C     C_R   0.284433 0.264615 0.795581 -0.028486
C104  C     C_R   0.676377 0.228459 0.252754 -0.004460
C105  C     C_R   0.196964 0.803572 0.250113 0.058013
C106  C     C_R   0.360114 0.639892 0.749974 0.499378
C107  C     C_R   0.803987 0.802841 0.750605 0.058982
C108  C     C_R   0.803986 0.801901 0.249225 0.044832
C109  C     C_R   0.196489 0.803501 0.750020 0.064868
C110  C     C_R   0.696688 0.303613 0.749842 0.058194
C111  C     C_R   0.302988 0.303739 0.250248 0.051067
C112  C     C_R   0.303602 0.302289 0.749362 0.044284
C113  C     C_R   0.696450 0.303473 0.250195 0.065366
C114  C     C_R   0.022173 0.936006 0.027587 0.007219
C115  C     C_R   0.978039 0.064523 0.972724 0.001883
C116  C     C_R   0.982152 0.065722 0.027154 0.004661
C117  C     C_R   0.639914 0.639777 0.249642 0.504719
C118  C     C_R   0.023863 0.936564 0.973070 0.004050
C119  C     C_R   0.521369 0.435362 0.527576 0.005447
C120  C     C_R   0.478838 0.564552 0.472737 0.003395
C121  C     C_R   0.482918 0.565628 0.527158 0.004966
C122  C     C_R   0.521916 0.435601 0.473005 0.003788
C123  C     C_R   0.999935 0.000221 0.946325 0.037950
C124  C     C_R   0.001204 0.000569 0.053803 0.049782
C125  C     C_R   0.499636 0.499931 0.446319 0.038081
C126  C     C_R   0.501303 0.500262 0.553796 0.049170
C127  C     C_R   0.140124 0.859702 0.249960 0.488932
C128  C     C_R   0.639677 0.640223 0.749579 0.494062
C129  C     C_R   0.860313 0.859348 0.750597 0.482837
C130  C     C_R   0.859960 0.859348 0.249891 0.483700
C131  C     C_R   0.140024 0.859947 0.749974 0.501286
C132  C     C_R   0.640104 0.359815 0.749940 0.487087
C133  C     C_R   0.359747 0.359918 0.250113 0.482898
C134  C     C_R   0.359872 0.359438 0.749939 0.481004
C135  C     C_R   0.640034 0.359961 0.249984 0.501687
C136  C     C_R   0.000291 0.000339 0.110010 0.502476
C137  C     C_R   0.999868 0.000226 0.890034 0.492189
C138  C     C_R   0.500316 0.500121 0.610006 0.502943
C139  C     C_R   0.360290 0.640186 0.250206 0.498284
C140  C     C_R   0.499820 0.500231 0.390029 0.492601
C141  C     C_R   0.002731 0.999869 0.390270 0.532757
C142  C     C_R   0.000316 0.000570 0.609963 0.537976
C143  C     C_R   0.503298 0.499717 0.890246 0.534425
C144  C     C_R   0.500753 0.500611 0.109894 0.537778
C145  C     C_R   0.032337 0.135796 0.450650 -0.073435
C146  C     C_R   0.965556 0.133432 0.546318 -0.078100
C147  C     C_R   0.543285 0.633032 0.950011 -0.073179
C148  C     C_R   0.476465 0.635770 0.045568 -0.076193
C149  C     C_R   0.014478 0.202311 0.474188 0.041569
C150  C     C_R   0.224505 0.776698 0.202465 -0.005766
C151  C     C_R   0.975620 0.200823 0.521206 0.040785
C152  C     C_R   0.531890 0.700836 0.973846 0.042837
C153  C     C_R   0.493709 0.702414 0.021330 0.045219
C154  C     C_R   0.993102 0.067599 0.525341 -0.048811
C155  C     C_R   0.013440 0.067951 0.473427 -0.048047
C156  C     C_R   0.499383 0.568106 0.024920 -0.048738
C157  C     C_R   0.519754 0.566947 0.973068 -0.048019
C158  C     C_R   0.011003 0.000287 0.446626 -0.048513
C159  C     C_R   0.004485 0.001928 0.553965 -0.042883
C160  C     C_R   0.513440 0.499535 0.946499 -0.046250
H1    H     H_    0.063701 0.138167 0.415416 0.143497
H2    H     H_    0.697358 0.701264 0.831728 0.118552
H3    H     H_    0.101529 0.697648 0.841530 0.148385
H4    H     H_    0.060516 0.780320 0.816025 0.149982
H5    H     H_    0.011307 0.695694 0.814449 0.126775
H6    H     H_    0.063327 0.725202 0.726975 0.179231
H7    H     H_    0.095221 0.642008 0.753352 0.127721
H8    H     H_    0.566587 0.218626 0.821245 0.210333
H9    H     H_    0.510886 0.155183 0.786032 0.121529
H10   H     H_    0.600505 0.127897 0.806953 0.149811
H11   H     H_    0.562869 0.246099 0.725542 0.152212
H12   H     H_    0.597872 0.157864 0.712771 0.123765
H13   H     H_    0.681830 0.719189 0.169529 0.138394
H14   H     H_    0.403547 0.253082 0.148072 0.198572
H15   H     H_    0.330642 0.204494 0.116805 0.134045
H16   H     H_    0.369824 0.284464 0.086734 0.202547
H17   H     H_    0.248805 0.312816 0.126043 0.126493
H18   H     H_    0.319243 0.364622 0.153738 0.162281
H19   H     H_    0.426528 0.236766 0.834778 0.190072
H20   H     H_    0.394240 0.228791 0.900104 0.186557
H21   H     H_    0.360141 0.168113 0.852299 0.120413
H22   H     H_    0.335143 0.336794 0.850846 0.215462
H23   H     H_    0.274135 0.273594 0.877936 0.129828
H24   H     H_    0.381714 0.782184 0.748299 0.128403
H25   H     H_    0.601156 0.197906 0.342254 0.148789
H26   H     H_    0.561390 0.281108 0.316696 0.147937
H27   H     H_    0.510842 0.197299 0.315166 0.131592
H28   H     H_    0.563133 0.225202 0.227648 0.178740
H29   H     H_    0.594953 0.142155 0.254331 0.129651
H30   H     H_    0.966394 0.860943 0.122420 0.156482
H31   H     H_    0.930328 0.832294 0.061164 0.152416
H32   H     H_    0.992937 0.774723 0.096377 0.124756
H33   H     H_    0.070074 0.824821 0.035511 0.135489
H34   H     H_    0.086198 0.882526 0.087152 0.156428
H35   H     H_    0.717060 0.118227 0.748438 0.122766
H36   H     H_    0.060855 0.158052 0.913078 0.160392
H37   H     H_    0.995132 0.231339 0.907887 0.134798
H38   H     H_    0.033975 0.209328 0.969322 0.155140
H39   H     H_    0.929886 0.117540 0.904434 0.171562
H40   H     H_    0.905298 0.159002 0.960886 0.139867
H41   H     H_    0.029429 0.224535 0.092349 0.127645
H42   H     H_    0.059695 0.135578 0.111974 0.171598
H43   H     H_    0.082422 0.169341 0.048648 0.151773
H44   H     H_    0.942269 0.179981 0.035212 0.146064
H45   H     H_    0.929880 0.125577 0.089857 0.164568
H46   H     H_    0.203552 0.200209 0.167631 0.121387
H47   H     H_    0.938211 0.837851 0.923858 0.156166
H48   H     H_    0.005215 0.766254 0.915400 0.129914
H49   H     H_    0.974518 0.789575 0.978897 0.157323
H50   H     H_    0.064526 0.881215 0.903039 0.165345
H51   H     H_    0.099242 0.844889 0.958865 0.127183
H52   H     H_    0.467242 0.360294 0.623305 0.155035
H53   H     H_    0.429146 0.333357 0.562304 0.152133
H54   H     H_    0.491705 0.274116 0.596174 0.121210
H55   H     H_    0.569180 0.324066 0.535397 0.136134
H56   H     H_    0.586040 0.381481 0.587029 0.162133
H57   H     H_    0.217158 0.181508 0.829333 0.130137
H58   H     H_    0.562700 0.657408 0.413340 0.161631
H59   H     H_    0.497612 0.731236 0.407941 0.133358
H60   H     H_    0.535980 0.709009 0.469479 0.154923
H61   H     H_    0.431343 0.618124 0.404406 0.165495
H62   H     H_    0.406980 0.659727 0.460857 0.133278
H63   H     H_    0.531831 0.724228 0.591976 0.126136
H64   H     H_    0.561110 0.635139 0.612015 0.172091
H65   H     H_    0.584260 0.668068 0.548551 0.151887
H66   H     H_    0.443980 0.680200 0.535257 0.144552
H67   H     H_    0.431363 0.625960 0.589938 0.163384
H68   H     H_    0.717265 0.117891 0.252771 0.121233
H69   H     H_    0.431181 0.338664 0.426477 0.156402
H70   H     H_    0.495883 0.265645 0.415994 0.128905
H71   H     H_    0.469442 0.289181 0.480357 0.157515
H72   H     H_    0.557916 0.378680 0.402384 0.161123
H73   H     H_    0.594084 0.341708 0.457632 0.128269
H74   H     H_    0.298231 0.698882 0.332397 0.118819
H75   H     H_    0.702019 0.702495 0.667332 0.119924
H76   H     H_    0.718762 0.679914 0.328930 0.130240
H77   H     H_    0.934450 0.133655 0.581642 0.146785
H78   H     H_    0.217436 0.617927 0.752304 0.120944
H79   H     H_    0.939581 0.747358 0.486073 0.341604
H80   H     H_    0.073877 0.780646 0.609690 0.354229
H81   H     H_    0.454832 0.241737 0.984038 0.344887
H82   H     H_    0.572018 0.279938 0.110620 0.354124
H83   H     H_    0.980235 0.248584 0.375634 0.180119
H84   H     H_    0.926455 0.299908 0.421601 0.150088
H85   H     H_    0.998717 0.344181 0.385947 0.137104
H86   H     H_    0.040951 0.318662 0.474421 0.145957
H87   H     H_    0.091195 0.265957 0.429658 0.127611
H88   H     H_    0.573832 0.632213 0.914382 0.138902
H89   H     H_    0.006144 0.253523 0.618188 0.173469
H90   H     H_    0.052786 0.308884 0.570455 0.144448
H91   H     H_    0.976496 0.346177 0.605861 0.138044
H92   H     H_    0.935819 0.313464 0.518453 0.144812
H93   H     H_    0.892769 0.257176 0.565076 0.135726
H94   H     H_    0.613694 0.818705 0.012035 0.155853
H95   H     H_    0.670320 0.757691 0.974502 0.151663
H96   H     H_    0.647350 0.847381 0.950092 0.138681
H97   H     H_    0.574493 0.756497 0.906091 0.139937
H98   H     H_    0.515528 0.811069 0.943770 0.137191
H99   H     H_    0.443629 0.638143 0.080026 0.144089
H100  H     H_    0.490266 0.738829 0.127293 0.176858
H101  H     H_    0.568322 0.778023 0.094837 0.147473
H102  H     H_    0.494200 0.835864 0.115852 0.138496
H103  H     H_    0.481570 0.821903 0.024218 0.147057
H104  H     H_    0.410442 0.771346 0.054137 0.128536
H105  H     H_    0.275688 0.767232 0.095887 0.142755
H106  H     H_    0.203528 0.701051 0.108342 0.153148
H107  H     H_    0.186739 0.781018 0.069453 0.130754
H108  H     H_    0.132613 0.799667 0.153610 0.143117
H109  H     H_    0.208601 0.860932 0.144712 0.178984
H110  H     H_    0.881887 0.282245 0.750771 0.128281
H111  H     H_    0.798781 0.676936 0.880585 0.149884
H112  H     H_    0.886560 0.697809 0.852287 0.149975
H113  H     H_    0.861230 0.733104 0.914565 0.134613
H114  H     H_    0.854192 0.829255 0.848672 0.172132
H115  H     H_    0.765996 0.811918 0.875244 0.143285
H116  H     H_    0.778321 0.723434 0.102896 0.157927
H117  H     H_    0.703456 0.788923 0.098192 0.140842
H118  H     H_    0.789425 0.808263 0.068216 0.137965
H119  H     H_    0.770031 0.877537 0.150251 0.182464
H120  H     H_    0.850225 0.820056 0.148746 0.152506
H121  H     H_    0.197127 0.200882 0.331509 0.124856
H122  H     H_    0.409429 0.903333 0.758939 0.144399
H123  H     H_    0.386592 0.890314 0.691550 0.159247
H124  H     H_    0.379276 0.979305 0.720410 0.142851
H125  H     H_    0.258290 0.931098 0.712527 0.168875
H126  H     H_    0.281778 0.932577 0.779641 0.174234
H127  H     H_    0.887080 0.390283 0.806184 0.155923
H128  H     H_    0.909448 0.403480 0.738429 0.144578
H129  H     H_    0.879557 0.479354 0.776659 0.142375
H130  H     H_    0.781661 0.432932 0.718943 0.177066
H131  H     H_    0.758589 0.430955 0.786315 0.154525
H132  H     H_    0.182728 0.218107 0.669423 0.138950
H133  H     H_    0.225379 0.263067 0.404486 0.140564
H134  H     H_    0.298742 0.198090 0.391611 0.152318
H135  H     H_    0.314138 0.277234 0.430755 0.136643
H136  H     H_    0.367393 0.298979 0.346565 0.141543
H137  H     H_    0.290086 0.358841 0.355536 0.182004
H138  H     H_    0.277506 0.223845 0.602474 0.156340
H139  H     H_    0.202659 0.289572 0.598732 0.145649
H140  H     H_    0.288337 0.309025 0.568216 0.137360
H141  H     H_    0.270840 0.377514 0.650450 0.183341
H142  H     H_    0.350415 0.319164 0.648642 0.150943
H143  H     H_    0.881661 0.282018 0.248445 0.127421
H144  H     H_    0.909293 0.403069 0.259827 0.143837
H145  H     H_    0.887187 0.390302 0.192282 0.160151
H146  H     H_    0.879622 0.479195 0.221246 0.145830
H147  H     H_    0.758663 0.430970 0.212585 0.169384
H148  H     H_    0.781481 0.432523 0.279823 0.174216
H149  H     H_    0.201158 0.921791 0.331922 0.150356
H150  H     H_    0.210985 0.899290 0.398834 0.166667
H151  H     H_    0.286666 0.885347 0.355346 0.143740
H152  H     H_    0.140480 0.800858 0.354506 0.225195
H153  H     H_    0.222953 0.769630 0.381272 0.147655
H154  H     H_    0.303768 0.702910 0.168724 0.125411
H155  H     H_    0.901694 0.755915 0.646515 0.200294
H156  H     H_    0.828013 0.708480 0.615267 0.132978
H157  H     H_    0.866639 0.789380 0.586098 0.199270
H158  H     H_    0.746571 0.816556 0.627138 0.125824
H159  H     H_    0.817686 0.867334 0.654919 0.160601
H160  H     H_    0.927805 0.732401 0.329151 0.194341
H161  H     H_    0.902751 0.728455 0.396207 0.190272
H162  H     H_    0.862928 0.665521 0.352108 0.121360
H163  H     H_    0.837270 0.834047 0.350928 0.219015
H164  H     H_    0.778296 0.769088 0.378030 0.129768
O1    O     O_3   1.000000 1.000000 0.249960 -0.437432
O2    O     O_R   0.585480 0.646190 0.219690 -0.548550
O3    O     O_R   0.585480 0.646190 0.780310 -0.554737
O4    O     O_R   0.414520 0.646190 0.219690 -0.558498
O5    O     O_R   0.085470 0.853840 0.280350 -0.545561
O6    O     O_R   0.914530 0.853840 0.719650 -0.552472
O7    O     O_R   0.914530 0.853840 0.280350 -0.542773
O8    O     O_R   0.085470 0.853840 0.719650 -0.529285
O9    O     O_R   0.585470 0.353840 0.780350 -0.531884
O10   O     O_R   0.414530 0.353840 0.219650 -0.552104
O11   O     O_R   0.414530 0.353840 0.780350 -0.547284
O12   O     O_3   0.000000 1.000000 0.750040 -0.436916
O13   O     O_R   0.585470 0.353840 0.219650 -0.528841
O14   O     O_R   0.853820 0.914550 0.219610 -0.560140
O15   O     O_R   0.146180 0.914550 0.780390 -0.565373
O16   O     O_R   0.146180 0.914550 0.219610 -0.559379
O17   O     O_R   0.853820 0.914550 0.780390 -0.556207
O18   O     O_R   0.353820 0.414550 0.719610 -0.560475
O19   O     O_R   0.646180 0.414550 0.280390 -0.565515
O20   O     O_R   0.646180 0.414550 0.719610 -0.563842
O21   O     O_R   0.353820 0.414550 0.280390 -0.556381
O22   O     O_R   0.146180 0.085440 0.219600 -0.544749
O23   O     O_3   0.500000 0.500000 0.749960 -0.439212
O24   O     O_R   0.853820 0.085440 0.780400 -0.541022
O25   O     O_R   0.853820 0.085440 0.219600 -0.540500
O26   O     O_R   0.146180 0.085440 0.780400 -0.547978
O27   O     O_R   0.646180 0.585440 0.719600 -0.549702
O28   O     O_R   0.353820 0.585440 0.280400 -0.542457
O29   O     O_R   0.353820 0.585440 0.719600 -0.541931
O30   O     O_R   0.646180 0.585440 0.280400 -0.548400
O31   O     O_R   0.939280 0.999970 0.134160 -0.552064
O32   O     O_R   0.060720 0.999970 0.865840 -0.553003
O33   O     O_R   0.060720 0.999970 0.134160 -0.560009
O34   O     O_3   0.500000 0.500000 0.250040 -0.436126
O35   O     O_R   0.939280 0.999970 0.865840 -0.554261
O36   O     O_R   0.439280 0.499970 0.634160 -0.552238
O37   O     O_R   0.560720 0.499970 0.365840 -0.551744
O38   O     O_R   0.560720 0.499970 0.634160 -0.556588
O39   O     O_R   0.439280 0.499970 0.365840 -0.555811
O40   O     O_R   0.000000 0.060760 0.365770 -0.569363
O41   O     O_R   0.000000 0.060760 0.634230 -0.569389
O42   O     O_R   0.500000 0.560760 0.865770 -0.566525
O43   O     O_R   0.500000 0.560760 0.134230 -0.572373
O44   O     O_R   1.000000 0.939310 0.365780 -0.453243
O45   O     O_R   0.914520 0.146190 0.280310 -0.548000
O46   O     O_R   0.000000 0.939310 0.634220 -0.459544
O47   O     O_R   0.500000 0.439310 0.865780 -0.448194
O48   O     O_R   0.500000 0.439310 0.134220 -0.459122
O49   O     O_2   0.905559 0.866096 0.427125 -0.345061
O50   O     O_2   0.028934 0.814705 0.416529 -0.281639
O51   O     O_3   0.959723 0.791693 0.502282 -0.476610
O52   O     O_2   0.126041 0.830357 0.514528 -0.247672
O53   O     O_2   0.139573 0.907909 0.590069 -0.314579
O54   O     O_3   0.036994 0.810367 0.591188 -0.466910
O55   O     O_2   0.408387 0.364058 0.926393 -0.342310
O56   O     O_R   0.085480 0.146190 0.719690 -0.549991
O57   O     O_2   0.532882 0.315422 0.915532 -0.264831
O58   O     O_3   0.463460 0.289268 0.000923 -0.479587
O59   O     O_2   0.626024 0.328638 0.015639 -0.232493
O60   O     O_2   0.639104 0.406369 0.091089 -0.311689
O61   O     O_3   0.535669 0.309748 0.091669 -0.472239
O62   O     O_R   0.085480 0.146190 0.280310 -0.556359
O63   O     O_R   0.914520 0.146190 0.719690 -0.556244
O64   O     O_R   0.414520 0.646190 0.780310 -0.542469
S1    S     S_3+6 0.976448 0.849976 0.453422 0.032023
S2    S     S_3+6 0.085371 0.870760 0.555940 0.071047
S3    S     S_3+6 0.479440 0.348837 0.952699 0.035866
S4    S     S_3+6 0.585061 0.369570 0.056644 0.075431
Zn1   Zn    Zn3+2 0.000000 0.913250 0.293350 0.969152
Zn2   Zn    Zn3+2 0.586770 0.499990 0.293420 0.910847
Zn3   Zn    Zn3+2 0.586770 0.499990 0.706580 0.896927
Zn4   Zn    Zn3+2 0.413230 0.499990 0.293420 0.907357
Zn5   Zn    Zn3+2 0.000000 0.086780 0.293330 0.908620
Zn6   Zn    Zn3+2 0.000000 0.086780 0.706670 0.916305
Zn7   Zn    Zn3+2 0.500000 0.586780 0.793330 0.917144
Zn8   Zn    Zn3+2 0.500000 0.586780 0.206670 0.914479
Zn9   Zn    Zn3+2 0.000000 0.913250 0.706650 0.966137
Zn10  Zn    Zn3+2 0.500000 0.413250 0.793350 0.974422
Zn11  Zn    Zn3+2 0.500000 0.413250 0.206650 0.966932
Zn12  Zn    Zn3+2 0.913230 0.999990 0.206580 0.909933
Zn13  Zn    Zn3+2 0.086770 0.999990 0.793420 0.910030
Zn14  Zn    Zn3+2 0.086770 0.999990 0.206580 0.898490
Zn15  Zn    Zn3+2 0.913230 0.999990 0.793420 0.909189
Zn16  Zn    Zn3+2 0.413230 0.499990 0.706580 0.907365

loop_
_geom_bond_atom_site_label_1
_geom_bond_atom_site_label_2
_ccdc_geom_bond_type
O31   Zn12  S    
C6    S3    S    
C19   C20   S    
C107  C129  S    
C22   H117  S    
C11   H89   S    
C12   H98   S    
C38   H156  S    
O60   S4    D    
C70   H110  S    
C75   C150  A    
O1    Zn5   S    
O33   Zn14  S    
O25   Zn12  S    
C44   H8    S    
C71   C80   A    
C90   H57   S    
C27   H128  S    
C30   H142  S    
C133  O21   A    
C130  O7    A    
C142  O41   A    
C61   H56   S    
C53   H30   S    
C47   H16   S    
C59   H50   S    
O35   Zn15  S    
C97   C105  A    
O64   Zn7   S    
C70   C79   A    
C59   C60   S    
C21   C22   S    
C155  C158  A    
C62   H54   S    
C63   H62   S    
O56   Zn6   S    
C102  C111  A    
C73   C81   S    
C136  O31   A    
C45   C47   S    
C115  C123  A    
C3    C144  S    
C100  C109  A    
C36   H150  S    
C17   H109  S    
O7    Zn1   S    
C18   H106  S    
C33   H144  S    
C105  C127  S    
C120  C125  A    
C101  C110  A    
C82   C91   A    
C103  C112  A    
C43   C44   S    
O20   Zn3   S    
C37   C38   S    
C10   C151  S    
C48   H23   S    
O61   S4    S    
C39   H164  S    
C146  C154  A    
C56   H45   S    
C37   H158  S    
C56   C116  S    
C41   C100  S    
C13   C21   S    
C74   H143  S    
O34   Zn4   S    
C154  C155  A    
O10   Zn11  S    
C141  O40   A    
C81   C90   A    
C93   C98   A    
O8    Zn9   S    
C157  C160  A    
C148  C153  A    
H81   O58   S    
C2    C19   S    
C142  O46   A    
C26   H130  S    
C112  C134  S    
C4    C5    A    
C34   H153  S    
C6    C160  A    
C60   H47   S    
C6    C7    A    
O32   Zn13  S    
O2    Zn8   S    
C137  O35   A    
C106  O29   A    
C40   H162  S    
C30   C31   S    
C145  H1    S    
C73   O26   A    
C66   H65   S    
C3    C156  A    
C86   C117  S    
C10   H92   S    
C53   H32   S    
C143  O47   A    
C138  O38   A    
C47   H14   S    
C15   H103  S    
C45   C102  S    
C119  C126  A    
C26   C35   S    
C14   H96   S    
C58   H42   S    
C113  C135  S    
O1    Zn12  S    
C62   H52   S    
C76   C85   A    
O23   Zn10  S    
C49   H19   S    
O16   Zn14  S    
C78   C87   A    
C32   H147  S    
C132  O20   A    
C91   H68   S    
C10   H93   S    
C12   C152  S    
C50   H28   S    
C143  C160  S    
C55   H37   S    
O26   Zn13  S    
C99   C108  A    
C28   C46   S    
O51   S1    S    
O30   Zn2   S    
C149  C151  A    
C16   H100  S    
C42   H4    S    
C68   C74   A    
C115  C116  A    
C34   C97   S    
C65   H67   S    
O34   Zn2   S    
O39   Zn4   S    
C50   H29   S    
O37   Zn2   S    
C44   H9    S    
C85   C93   A    
C144  O43   A    
O13   Zn11  S    
C139  O28   A    
C23   C24   S    
C25   H123  S    
C108  C130  S    
C42   H5    S    
C55   H36   S    
C13   C108  A    
C129  O6    A    
C37   C98   S    
C59   H51   S    
C92   C97   A    
C125  C140  S    
O1    Zn1   S    
C140  O37   A    
C117  O2    A    
C29   H133  S    
C39   C40   S    
C43   H11   S    
C48   C103  S    
C54   H39   S    
C34   H152  S    
C69   H69   S    
C39   C99   S    
C14   H94   S    
C41   H6    S    
C17   C18   S    
C128  O3    A    
O63   Zn6   S    
C20   H111  S    
O50   S1    D    
O43   Zn8   S    
C49   H21   S    
C16   H101  S    
C45   H18   S    
C147  H88   S    
C59   C118  S    
O12   Zn6   S    
C12   H97   S    
C28   H136  S    
C9    H83   S    
C120  C121  A    
O3    Zn7   S    
O4    Zn8   S    
C54   C55   S    
C36   H149  S    
C64   H59   S    
C58   H43   S    
C96   H78   S    
C52   H33   S    
C66   H63   S    
O48   Zn11  S    
C22   H118  S    
C52   C114  S    
C123  C137  S    
C38   H157  S    
O36   Zn16  S    
C122  C125  A    
C8    H87   S    
C72   H132  S    
C154  C159  A    
C51   H26   S    
O38   Zn3   S    
C1    O45   A    
C96   C100  A    
C135  O13   A    
O29   Zn16  S    
C56   C58   S    
C137  O32   A    
C34   C36   S    
C61   C62   S    
C15   C153  S    
C10   C11   S    
C27   H127  S    
C104  C113  A    
C23   H126  S    
C7    S4    S    
C152  C153  A    
C85   C128  S    
C61   H55   S    
C33   H146  S    
C47   H15   S    
C140  O39   A    
C50   C104  S    
C127  O5    A    
C41   C42   S    
C63   H61   S    
O6    Zn9   S    
C17   C150  S    
C134  O18   A    
C142  C159  S    
C80   C84   S    
C73   O56   A    
O49   S1    D    
C29   H135  S    
C83   C139  S    
C132  O9    A    
C52   C53   S    
C105  C150  A    
O47   Zn10  S    
C26   C27   S    
C28   C29   S    
C17   H108  S    
C3    C7    A    
C69   H71   S    
C18   H107  S    
C19   H114  S    
C30   C57   S    
C80   C89   A    
O62   Zn5   S    
C20   H113  S    
O54   S2    S    
C133  O10   A    
C39   H163  S    
C67   H73   S    
C109  C131  S    
C110  C132  S    
O41   Zn6   S    
C65   C121  S    
C9    H85   S    
C60   H49   S    
C72   C81   A    
C40   H160  S    
C68   C113  A    
O57   S3    D    
C8    H86   S    
C36   H151  S    
C46   C111  A    
C88   H35   S    
C74   C82   A    
C84   O62   A    
C79   C88   A    
C22   H116  S    
O11   Zn10  S    
O23   Zn7   S    
O12   Zn13  S    
C11   H90   S    
C124  C136  S    
C38   H155  S    
C71   H121  S    
C26   H131  S    
O59   S4    D    
C1    O25   A    
C60   H48   S    
C135  O19   A    
C98   C107  A    
O55   S3    D    
C4    S1    S    
O17   Zn15  S    
C79   C95   S    
C31   H138  S    
O18   Zn16  S    
C136  O33   A    
C30   H141  S    
C89   H46   S    
O21   Zn4   S    
C54   C115  S    
C50   C51   S    
C27   H129  S    
C106  O64   A    
C53   H31   S    
C143  O42   A    
C46   C71   A    
C35   C110  A    
C144  O48   A    
H79   O51   S    
C48   C49   S    
C67   H72   S    
C62   H53   S    
O19   Zn2   S    
O22   Zn14  S    
C127  O16   A    
C2    C76   A    
C32   H148  S    
C77   H13   S    
C116  C124  A    
C24   C109  A    
O46   Zn9   S    
O28   Zn4   S    
C18   H105  S    
O14   Zn12  S    
H80   O54   S    
O27   Zn3   S    
C64   H58   S    
C32   C33   S    
C21   H119  S    
C8    C149  S    
C1    C82   S    
C131  O8    A    
C75   C83   A    
C84   O22   A    
C37   H159  S    
O45   Zn5   S    
C65   H66   S    
C118  C123  A    
C57   C72   A    
O42   Zn7   S    
C90   C103  A    
C51   H27   S    
C55   H38   S    
C141  C158  S    
C148  C156  A    
C25   H122  S    
C145  C149  A    
O12   Zn15  S    
C48   H22   S    
C89   C102  A    
C61   C119  S    
C76   H2    S    
C91   C104  A    
C138  O36   A    
C88   C101  A    
C93   H75   S    
C83   C92   A    
C134  O11   A    
O5    Zn1   S    
O1    Zn14  S    
C128  O27   A    
C156  C157  A    
C40   H161  S    
O23   Zn16  S    
C57   C112  A    
C15   C16   S    
C2    C107  A    
C54   H40   S    
C4    C158  A    
C15   H104  S    
C86   C94   A    
C19   H115  S    
C14   H95   S    
C35   C70   A    
C8    C9    S    
C5    C159  A    
O53   S2    D    
C20   H112  S    
C45   H17   S    
C32   C68   S    
C49   H20   S    
C114  C124  A    
C95   O24   A    
C5    S2    S    
O34   Zn8   S    
O40   Zn5   S    
C141  O44   A    
H82   O61   S    
C13   C77   A    
C130  O14   A    
C64   H60   S    
C52   H34   S    
C58   H41   S    
C66   H64   S    
C31   H140  S    
C21   H120  S    
C42   H3    S    
C111  C133  S    
C11   H91   S    
C63   C64   S    
C146  C151  A    
C67   C69   S    
C43   C101  S    
C51   H25   S    
O34   Zn11  S    
C146  H77   S    
C87   C96   A    
O24   Zn15  S    
C25   H124  S    
C114  C118  A    
C31   H139  S    
O23   Zn3   S    
C23   H125  S    
O12   Zn9   S    
C12   C14   S    
C77   C86   A    
C129  O17   A    
C117  O30   A    
C33   H145  S    
C147  C157  A    
C67   C122  S    
C28   H137  S    
C119  C122  A    
C24   C78   A    
C139  O4    A    
C126  C138  S    
C78   H24   S    
O44   Zn1   S    
C29   H134  S    
O58   S3    S    
C43   H12   S    
C56   H44   S    
C147  C152  A    
C16   H102  S    
C121  C126  A    
C69   H70   S    
C95   O63   A    
C63   C120  S    
C94   H76   S    
C87   C106  S    
C94   C99   A    
C41   H7    S    
C92   H74   S    
O52   S2    D    
C23   C25   S    
C131  O15   A    
C44   H10   S    
C75   H154  S    
C145  C155  A    
C65   C66   S    
C148  H99   S    
C9    H84   S    
O9    Zn10  S    
O15   Zn13  S    
