data_mof_unit_23538.cif
_audit_creation_date              2012-12-11T15:54:45-0500
_audit_creation_method            fapswitch 2.2
_symmetry_space_group_name_H-M    P1
_symmetry_Int_Tables_number       1
_space_group_crystal_system       triclinic
_cell_length_a                    6.931691
_cell_length_b                    14.513638
_cell_length_c                    16.090893
_cell_angle_alpha                 89.929485
_cell_angle_beta                  89.835849
_cell_angle_gamma                 90.110877
_cell_volume                      1618.79815488

loop_
_atom_site_label
_atom_site_type_symbol
_atom_type_description
_atom_site_fract_x
_atom_site_fract_y
_atom_site_fract_z
_atom_type_partial_charge
O1    O     O_R   0.638180 0.333920 0.163320 -0.518865
O2    O     O_R   0.361820 0.666080 0.836680 -0.518873
O3    O     O_R   0.308470 0.344960 0.336080 -0.544320
O4    O     O_R   0.691530 0.655040 0.663920 -0.544319
O5    O     O_R   0.138140 0.166110 0.336680 -0.534459
O6    O     O_R   0.861860 0.833890 0.663320 -0.534457
C1    C     C_R   0.477454 0.367111 0.365106 0.681916
C2    C     C_R   0.522546 0.632889 0.634894 0.681919
O7    O     O_R   0.308460 0.344950 0.163930 -0.553855
O8    O     O_R   0.691540 0.655050 0.836070 -0.553858
O9    O     O_R   0.138140 0.166100 0.163310 -0.545847
O10   O     O_R   0.861860 0.833900 0.836690 -0.545848
C3    C     C_R   0.477931 0.366170 0.134324 0.738383
C4    C     C_R   0.522069 0.633829 0.865676 0.738383
O11   O     O_R   0.638180 0.333930 0.336700 -0.545099
O12   O     O_R   0.361820 0.666070 0.663300 -0.545099
O13   O     O_3   0.471670 0.191340 0.250000 -0.367007
O14   O     O_3   0.528330 0.808660 0.750000 -0.367003
V1    V     V_3+5 0.196830 0.260900 0.250000 1.388054
V2    V     V_3+5 0.803170 0.739100 0.750000 1.388039
O15   O     O_R   0.808420 0.155070 0.163920 -0.536457
O16   O     O_R   0.191580 0.844930 0.836080 -0.536455
C5    C     C_R   0.977534 0.132731 0.135046 0.687994
C6    C     C_R   0.022466 0.867270 0.864953 0.687988
O17   O     O_R   0.808420 0.155080 0.336070 -0.538298
O18   O     O_R   0.191580 0.844920 0.663930 -0.538297
C7    C     C_R   0.977032 0.133046 0.364619 0.697860
C8    C     C_R   0.022968 0.866954 0.635381 0.697864
V3    V     V_3+5 0.696830 0.239130 0.250000 1.425822
V4    V     V_3+5 0.303170 0.760870 0.750000 1.425811
O19   O     O_3   0.971850 0.308690 0.250010 -0.373918
O20   O     O_3   0.028150 0.691310 0.749990 -0.373925
H1    H     H_    0.277851 0.847145 0.266170 0.111590
H2    H     H_    0.722149 0.152855 0.733830 0.111588
C9    C     C_R   0.831185 0.174809 0.529158 -0.140641
C10   C     C_R   0.168815 0.825191 0.470842 -0.140640
C11   C     C_R   0.761811 0.197546 0.607821 -0.124901
C12   C     C_R   0.238189 0.802454 0.392179 -0.124901
C13   C     C_R   0.774906 0.134579 0.672649 -0.122499
C14   C     C_R   0.225094 0.865421 0.327350 -0.122499
C15   C     C_R   0.857376 0.048362 0.659314 -0.130317
C16   C     C_R   0.142624 0.951638 0.340686 -0.130317
C17   C     C_R   0.927334 0.022790 0.579866 0.069512
C18   C     C_R   0.072666 0.977210 0.420134 0.069512
C19   C     C_R   0.914024 0.087397 0.513368 0.068911
C20   C     C_R   0.085976 0.912602 0.486632 0.068911
C21   C     C_R   0.013222 0.935336 0.566534 -0.186522
C22   C     C_R   0.986777 0.064664 0.433466 -0.186521
H3    H     H_    0.820247 0.226932 0.481328 0.107450
H4    H     H_    0.179753 0.773068 0.518671 0.107450
H5    H     H_    0.698817 0.264703 0.618628 0.117773
H6    H     H_    0.301183 0.735297 0.381372 0.117774
H7    H     H_    0.867114 0.002616 0.712244 0.104067
H8    H     H_    0.132886 0.997384 0.287756 0.104067
C23   C     C_R   0.179706 0.972973 0.968858 -0.148944
C24   C     C_R   0.820293 0.027028 0.031141 -0.148948
H9    H     H_    0.320670 0.953083 0.946026 0.117077
H10   H     H_    0.679330 0.046918 0.053973 0.117076
C25   C     C_R   0.168586 0.036518 0.034116 -0.164106
C26   C     C_R   0.831414 0.963482 0.965883 -0.164103
H11   H     H_    0.301527 0.063799 0.059379 0.119632
H12   H     H_    0.698473 0.936201 0.940620 0.119633
C27   C     C_R   0.988723 0.064416 0.066203 -0.047190
C28   C     C_R   0.011277 0.935584 0.933796 -0.047186
C29   C     C_R   0.321426 0.478403 0.464679 -0.159447
C30   C     C_R   0.678574 0.521597 0.535321 -0.159448
H13   H     H_    0.181410 0.462985 0.438400 0.117013
H14   H     H_    0.818590 0.537015 0.561600 0.117013
C31   C     C_R   0.332640 0.542190 0.529724 -0.160949
C32   C     C_R   0.667360 0.457810 0.470276 -0.160948
H15   H     H_    0.200715 0.574133 0.551370 0.116226
H16   H     H_    0.799285 0.425866 0.448630 0.116226
C33   C     C_R   0.511354 0.564614 0.566023 -0.044729
C34   C     C_R   0.488646 0.435386 0.433977 -0.044728
C35   C     C_R   0.362517 0.508784 0.063149 -0.297415
C36   C     C_R   0.637477 0.491212 0.936850 -0.297413
H17   H     H_    0.257059 0.517023 0.112421 0.133869
H18   H     H_    0.742932 0.482973 0.887576 0.133875
C37   C     C_R   0.369820 0.574282 0.998706 0.293810
C38   C     C_R   0.630173 0.425715 0.001293 0.293802
C39   C     C_R   0.509268 0.565866 0.934762 -0.115816
C40   C     C_R   0.490727 0.434133 0.065238 -0.115814
N1    N     N_2   0.243931 0.651482 0.001277 -0.528211
H19   H     H_    0.249535 0.686122 0.057163 0.242761
C41   C     C_3   0.047516 0.631168 0.977277 -0.477512
H20   H     H_    0.977794 0.585384 0.023957 0.172136
H21   H     H_    0.044250 0.597491 0.915330 0.211000
H22   H     H_    0.964040 0.696232 0.973657 0.184493
N2    N     N_2   0.756055 0.348512 0.998722 -0.528200
H23   H     H_    0.750390 0.313852 0.942847 0.242758
C42   C     C_3   0.952493 0.368827 0.022688 -0.477523
H24   H     H_    0.022182 0.414600 0.975991 0.172133
H25   H     H_    0.035971 0.303764 0.026306 0.184484
H26   H     H_    0.955808 0.402518 0.084629 0.210993

loop_
_geom_bond_atom_site_label_1
_geom_bond_atom_site_label_2
_ccdc_geom_bond_type
C7    C22   S    
C30   H14   S    
C8    C21   S    
C23   C25   A    
O13   V3    S    
O4    C2    A    
V1    O19   S    
C13   C15   A    
C41   H20   S    
O9    V1    S    
C9    C11   A    
C36   H18   S    
O3    C1    A    
C11   H5    S    
C19   C22   A    
C12   H6    S    
O12   V4    S    
C26   H12   S    
C38   N2    S    
C31   H15   S    
O7    C3    A    
O5    C7    A    
O7    V1    S    
O6    C8    A    
O8    V2    S    
C29   H13   S    
C9    H3    S    
C31   C33   A    
O14   V4    S    
N2    C42   S    
C5    C27   S    
C2    O12   A    
C15   C17   A    
C16   C18   A    
C18   C20   A    
O11   V3    S    
C1    C34   S    
C41   H21   S    
O17   V3    S    
C11   C13   A    
C25   H11   S    
H1    C14   S    
H2    C13   S    
V4    O20   S    
C38   C40   A    
O8    C4    A    
C42   H24   S    
C37   C39   A    
C1    O11   A    
C30   C33   A    
O15   V3    S    
C3    C40   S    
C29   C34   A    
C24   C26   A    
O4    V2    S    
C32   C34   A    
C42   H25   S    
C35   H17   S    
N1    H19   S    
C23   C28   A    
O10   V2    S    
O1    V3    S    
C24   C27   A    
O3    V1    S    
C17   C19   A    
C15   H7    S    
N1    C41   S    
O18   V4    S    
C23   H9    S    
O16   C6    A    
O1    C3    A    
C10   C12   A    
C9    C19   A    
C10   H4    S    
V2    O20   S    
C41   H22   S    
C20   C21   A    
O16   V4    S    
O18   C8    A    
C36   C38   A    
C14   C16   A    
C36   C39   A    
C35   C40   A    
O5    V1    S    
O17   C7    A    
O6    V2    S    
O10   C6    A    
C25   C27   A    
O2    V4    S    
C26   C28   A    
O15   C5    A    
V3    O19   S    
C16   H8    S    
C42   H26   S    
C12   C14   A    
C10   C20   A    
C30   C32   A    
C35   C37   A    
C29   C31   A    
O9    C5    A    
C2    C33   S    
O13   V1    S    
C24   H10   S    
O14   V2    S    
O2    C4    A    
C37   N1    S    
C6    C28   S    
C32   H16   S    
C4    C39   S    
N2    H23   S    
C17   C21   A    
C18   C22   A    
