data_mof_unit_47037.cif
_audit_creation_date              2013-03-05T16:12:27-0500
_audit_creation_method            fapswitch 2.2
_symmetry_space_group_name_H-M    P1
_symmetry_Int_Tables_number       1
_space_group_crystal_system       triclinic
_cell_length_a                    10.710733
_cell_length_b                    9.803539
_cell_length_c                    23.491161
_cell_angle_alpha                 90.167255
_cell_angle_beta                  90.227479
_cell_angle_gamma                 89.965924
_cell_volume                      2466.61409201

loop_
_atom_site_label
_atom_site_type_symbol
_atom_site_description
_atom_site_fract_x
_atom_site_fract_y
_atom_site_fract_z
_atom_type_partial_charge
O1    O     O_R   0.316770 0.614620 0.500000 -0.618941
O2    O     O_R   0.683230 0.385380 0.500000 -0.633332
O3    O     O_R   0.683230 0.614620 0.500000 -0.611585
O4    O     O_R   0.316770 0.385380 0.500000 -0.629056
C1    C     C_R   0.259769 0.500033 0.499928 0.880282
C2    C     C_R   0.740229 0.499984 0.499985 0.894984
O5    O     O_R   0.499970 0.614690 0.416160 -0.598498
O6    O     O_R   0.500030 0.385310 0.583840 -0.629309
O7    O     O_R   0.500030 0.614690 0.583840 -0.592474
O8    O     O_R   0.499970 0.385310 0.416160 -0.631260
C3    C     C_R   0.503299 0.499875 0.389286 0.941405
C4    C     C_R   0.497517 0.500451 0.610971 0.914775
Zn1   Zn    Zn3+2 0.500000 0.653120 0.500000 1.003071
Zn2   Zn    Zn3+2 0.500000 0.346880 0.500000 0.959615
C5    C     C_R   0.613015 0.454640 0.882226 0.519033
C6    C     C_R   0.386949 0.507840 0.118567 0.518860
N1    N     N_R   0.504237 0.472435 0.853035 -0.337848
N2    N     N_R   0.493378 0.477883 0.147794 -0.336741
C7    C     C_R   0.392053 0.487221 0.879723 0.499186
C8    C     C_R   0.601932 0.442982 0.121203 0.496755
C9    C     C_R   0.387105 0.499029 0.939456 -0.112666
C10   C     C_R   0.610378 0.449270 0.061406 -0.111031
C11   C     C_R   0.499125 0.474898 0.970454 -0.007059
C12   C     C_R   0.498764 0.475656 0.030390 -0.005563
C13   C     C_R   0.612041 0.450790 0.941530 -0.064416
C14   C     C_R   0.386489 0.503482 0.059273 -0.058867
C15   C     C_R   0.275792 0.532340 0.969343 -0.025049
C16   C     C_R   0.724166 0.428826 0.031431 -0.047667
C17   C     C_R   0.276967 0.531129 0.028792 -0.111982
C18   C     C_R   0.722488 0.427909 0.971986 -0.103834
O9    O     O_2   0.721513 0.441215 0.853667 -0.542664
O10   O     O_2   0.282240 0.541968 0.147111 -0.554647
O11   O     O_2   0.286866 0.488185 0.848020 -0.559700
O12   O     O_2   0.699420 0.400798 0.153078 -0.571011
H1    H     H_    0.192102 0.556699 0.051476 0.222636
H2    H     H_    0.809439 0.413073 0.949301 0.242831
C19   C     C_R   0.542389 0.605827 0.235075 0.114364
C20   C     C_R   0.500554 0.612283 0.766598 0.122281
C21   C     C_R   0.554275 0.608681 0.294872 -0.053674
C22   C     C_R   0.488369 0.620871 0.706957 -0.043504
C23   C     C_R   0.506094 0.498390 0.326974 -0.147586
C24   C     C_R   0.495642 0.499684 0.673708 -0.160318
C25   C     C_R   0.455785 0.384028 0.299374 -0.242335
C26   C     C_R   0.505514 0.372655 0.700795 -0.229638
H3    H     H_    0.419627 0.299549 0.324001 0.168702
H4    H     H_    0.509660 0.279473 0.675949 0.179514
C27   C     C_R   0.451011 0.376728 0.240417 0.203189
C28   C     C_R   0.508962 0.362845 0.759706 0.204503
C29   C     C_R   0.493141 0.488048 0.208364 0.324769
C30   C     C_R   0.507699 0.482627 0.792505 0.319006
C31   C     C_R   0.063892 0.378518 0.488508 -0.181571
C32   C     C_R   0.936099 0.621638 0.511105 -0.163984
C33   C     C_R   0.936039 0.378478 0.488553 -0.177767
C34   C     C_R   0.063948 0.621668 0.511082 -0.166708
H5    H     H_    0.112612 0.284110 0.479335 0.158739
H6    H     H_    0.887387 0.716057 0.520266 0.157655
H7    H     H_    0.887270 0.284046 0.479428 0.163008
H8    H     H_    0.112710 0.716094 0.520230 0.171181
C35   C     C_R   0.872596 0.500018 0.499883 -0.009325
C36   C     C_R   0.127394 0.500087 0.499825 -0.019264
C37   C     C_R   0.572743 0.072281 0.537641 -0.071053
C38   C     C_R   0.427228 0.927704 0.462374 -0.055825
C39   C     C_R   0.427209 0.071867 0.462379 -0.069213
C40   C     C_R   0.572738 0.928120 0.537642 -0.030545
H9    H     H_    0.630805 0.127331 0.567670 0.126380
H10   H     H_    0.369147 0.872638 0.432360 0.124148
H11   H     H_    0.369093 0.126593 0.432375 0.122292
H12   H     H_    0.630770 0.873386 0.567677 0.112512
N3    N     N_R   0.500000 0.857200 0.500000 -0.073048
N4    N     N_R   0.500000 0.142800 0.500000 -0.081206
C41   C     C_2   0.159903 0.581239 0.940958 0.506502
H13   H     H_    0.164297 0.639998 0.902029 0.116465
O13   O     O_2   0.057634 0.560329 0.962001 -0.556069
C42   C     C_2   0.848165 0.418952 0.059677 0.545784
H14   H     H_    0.868783 0.477794 0.097683 0.114833
O14   O     O_2   0.930486 0.347473 0.039587 -0.530218
C43   C     C_3   0.586045 0.726280 0.200010 -0.872376
H15   H     H_    0.534351 0.819369 0.213048 0.229725
H16   H     H_    0.687622 0.742530 0.206757 0.253529
H17   H     H_    0.570027 0.713516 0.153697 0.243935
C44   C     C_3   0.501690 0.741436 0.802388 -0.876453
H18   H     H_    0.579228 0.808530 0.788540 0.230679
H19   H     H_    0.411703 0.796410 0.797226 0.253194
H20   H     H_    0.516127 0.722600 0.848410 0.242681
C45   C     C_2   0.623486 0.723072 0.322329 0.445198
H21   H     H_    0.609871 0.827046 0.307940 0.060925
O15   O     O_2   0.700936 0.701203 0.359495 -0.550209
C46   C     C_2   0.462731 0.756325 0.681273 0.453029
H22   H     H_    0.523471 0.842183 0.690464 0.036798
O16   O     O_2   0.369492 0.774430 0.652167 -0.542135
C47   C     C_3   0.401996 0.249642 0.211822 -0.841418
H23   H     H_    0.317825 0.274401 0.186167 0.267484
H24   H     H_    0.474709 0.206115 0.183517 0.250689
H25   H     H_    0.375857 0.170270 0.243245 0.227441
C48   C     C_3   0.512327 0.224334 0.787430 -0.848752
H26   H     H_    0.599644 0.212649 0.812511 0.262305
H27   H     H_    0.430934 0.212831 0.816140 0.255852
H28   H     H_    0.508790 0.140519 0.755529 0.226668

loop_
_geom_bond_atom_site_label_1
_geom_bond_atom_site_label_2
_geom_bond_distance
_ccdc_geom_bond_type
C37   N4    1.365399 A    
C26   C28   1.387852 A    
C28   C48   1.508055 S    
C15   C17   1.396613 A    
Zn2   N4    2.000706 S    
C48   H26   1.109415 S    
O3    C2    1.278633 A    
C16   C42   1.485529 S    
C44   H18   1.110056 S    
C33   C35   1.396747 A    
C48   H28   1.111033 S    
C21   C23   1.418662 A    
C34   C36   1.396795 A    
C43   H15   1.110095 S    
O5    C3    1.289483 A    
C42   O14   1.221418 D    
O1    C1    1.278855 A    
C40   H12   1.081843 S    
C7    C9    1.408846 A    
C12   C14   1.409205 A    
C5    C13   1.393829 A    
O7    Zn1   2.006289 S    
C4    C24   1.474032 S    
C32   C34   1.369357 A    
C11   C12   1.407982 A    
C31   H5    1.083740 S    
O3    Zn1   1.998271 S    
C8    O12   1.347993 S    
C22   C24   1.422161 A    
C9    C15   1.423315 A    
C10   C16   1.423747 A    
C23   C25   1.400510 A    
O2    C2    1.279001 A    
C24   C26   1.403877 A    
C44   H19   1.110380 S    
C26   H4    1.083595 S    
C43   H16   1.110332 S    
C6    C14   1.393404 A    
C39   H11   1.081863 S    
C42   H14   1.083605 S    
C38   H10   1.081771 S    
C45   O15   1.221273 D    
C27   C29   1.403433 A    
O8    Zn2   2.006291 S    
C47   H23   1.109574 S    
C41   O13   1.221227 D    
C33   H7    1.083686 S    
C45   H21   1.084420 S    
C19   C43   1.516896 S    
C38   N3    1.365263 A    
C31   C33   1.369404 A    
C37   C40   1.413289 A    
C38   C39   1.413307 A    
C32   C35   1.396933 A    
C47   H24   1.110322 S    
C19   C29   1.413871 A    
C39   N4    1.365292 A    
O6    C4    1.294986 A    
C40   N3    1.365235 A    
C25   H3    1.084208 S    
C46   O16   1.221210 D    
C9    C11   1.421096 A    
C20   C44   1.517850 S    
C7    O11   1.348103 S    
C10   C12   1.421520 A    
O1    Zn1   1.998713 S    
C21   C45   1.488665 S    
C44   H20   1.107531 S    
C15   C41   1.486520 S    
C34   H8    1.083710 S    
C43   H17   1.107475 S    
C13   C18   1.398378 A    
C5    N1    1.360954 A    
O6    Zn2   2.004128 S    
C1    C36   1.417817 S    
C27   C47   1.507371 S    
C2    C35   1.417765 S    
C8    C10   1.409500 A    
O4    C1    1.278798 A    
N1    C30   1.426361 S    
C48   H27   1.110315 S    
C5    O9    1.350318 S    
C20   C30   1.412774 A    
C6    O10   1.350389 S    
C17   H1    1.084345 S    
C18   H2    1.084338 S    
C22   C46   1.485177 S    
C16   C18   1.396477 A    
C41   H13   1.083398 S    
C19   C21   1.410162 A    
C47   H25   1.110866 S    
C20   C22   1.409348 A    
Zn1   N3    2.000706 S    
C28   C30   1.402692 A    
N1    C7    1.364937 A    
C3    C23   1.464222 S    
N2    C8    1.364979 A    
C11   C13   1.409064 A    
O4    Zn2   1.998272 S    
O2    Zn2   1.998712 S    
O7    C4    1.290552 A    
O8    C3    1.290590 A    
C37   H9    1.081805 S    
O5    Zn1   2.004131 S    
C46   H22   1.084819 S    
C14   C17   1.398694 A    
C6    N2    1.360759 A    
C31   C36   1.396912 A    
C25   C27   1.387353 A    
C32   H6    1.083743 S    
N2    C29   1.426074 S    
