data_mof_unit_57810.cif
_audit_creation_date              2013-03-05T15:44:38-0500
_audit_creation_method            fapswitch 2.2
_symmetry_space_group_name_H-M    P1
_symmetry_Int_Tables_number       1
_space_group_crystal_system       triclinic
_cell_length_a                    18.831344
_cell_length_b                    10.973879
_cell_length_c                    18.752909
_cell_angle_alpha                 90.144414
_cell_angle_beta                  89.871212
_cell_angle_gamma                 89.947125
_cell_volume                      3875.31907902

loop_
_atom_site_label
_atom_site_type_symbol
_atom_site_description
_atom_site_fract_x
_atom_site_fract_y
_atom_site_fract_z
_atom_type_partial_charge
O1    O     O_R   0.787540 0.042690 0.170470 -0.513906
O2    O     O_R   0.212460 0.042690 0.829530 -0.513279
O3    O     O_R   0.287540 0.542690 0.170470 -0.513906
O4    O     O_R   0.712460 0.542690 0.829530 -0.513279
O5    O     O_R   0.765660 0.292160 0.175050 -0.537650
O6    O     O_R   0.234340 0.292160 0.824950 -0.537062
O7    O     O_R   0.265660 0.792160 0.175050 -0.537649
O8    O     O_R   0.734340 0.792160 0.824950 -0.537061
C1    C     C_R   0.731873 0.381897 0.147457 0.561584
C2    C     C_R   0.268112 0.382015 0.852523 0.561958
C3    C     C_R   0.231872 0.881897 0.147457 0.561584
C4    C     C_R   0.768112 0.882014 0.852523 0.561958
O9    O     O_R   0.670190 0.408980 0.168550 -0.451272
O10   O     O_R   0.329810 0.408980 0.831450 -0.451770
O11   O     O_R   0.170190 0.908980 0.168550 -0.451272
O12   O     O_R   0.829810 0.908980 0.831450 -0.451770
O13   O     O_R   0.556580 0.251450 0.175160 -0.509977
O14   O     O_R   0.443420 0.251450 0.824840 -0.509377
O15   O     O_R   0.056580 0.751450 0.175160 -0.509978
O16   O     O_R   0.943420 0.751450 0.824840 -0.509377
C5    C     C_R   0.530737 0.155198 0.147064 0.526839
C6    C     C_R   0.469268 0.155308 0.852950 0.529280
C7    C     C_R   0.030738 0.655198 0.147064 0.526839
C8    C     C_R   0.969268 0.655308 0.852950 0.529280
O17   O     O_R   0.545920 0.049510 0.170320 -0.527896
O18   O     O_R   0.454080 0.049510 0.829680 -0.525954
O19   O     O_R   0.045920 0.549510 0.170320 -0.527896
O20   O     O_R   0.954080 0.549510 0.829680 -0.525954
O21   O     O_R   0.681390 0.957840 0.176710 -0.456964
O22   O     O_R   0.318610 0.957840 0.823290 -0.456471
O23   O     O_R   0.181390 0.457840 0.176710 -0.456962
O24   O     O_R   0.818610 0.457840 0.823290 -0.456470
C9    C     C_R   0.726716 0.021624 0.140200 0.573246
C10   C     C_R   0.273197 0.021604 0.859920 0.573050
C11   C     C_R   0.226717 0.521623 0.140200 0.573242
C12   C     C_R   0.773197 0.521604 0.859920 0.573050
O25   O     O_R   0.787500 0.044280 0.330990 -0.524906
O26   O     O_R   0.212500 0.044280 0.669010 -0.524798
O27   O     O_R   0.287500 0.544280 0.330990 -0.524906
O28   O     O_R   0.712500 0.544280 0.669010 -0.524798
O29   O     O_R   0.765610 0.293630 0.323860 -0.510152
O30   O     O_R   0.234390 0.293630 0.676140 -0.509808
O31   O     O_R   0.265610 0.793630 0.323860 -0.510152
O32   O     O_R   0.734390 0.793630 0.676140 -0.509808
C13   C     C_R   0.730697 0.380211 0.351668 0.556143
C14   C     C_R   0.269371 0.380021 0.648277 0.556888
C15   C     C_R   0.230697 0.880211 0.351668 0.556143
C16   C     C_R   0.769371 0.880021 0.648277 0.556888
O33   O     O_R   0.670140 0.410570 0.329080 -0.513520
O34   O     O_R   0.329860 0.410570 0.670920 -0.510702
O35   O     O_R   0.170140 0.910570 0.329080 -0.513520
O36   O     O_R   0.829860 0.910570 0.670920 -0.510703
O37   O     O_R   0.556540 0.252920 0.323970 -0.508011
O38   O     O_R   0.443460 0.252920 0.676030 -0.503237
O39   O     O_R   0.056540 0.752920 0.323970 -0.508011
O40   O     O_R   0.943460 0.752920 0.676030 -0.503237
C17   C     C_R   0.531286 0.157817 0.352838 0.545626
C18   C     C_R   0.464535 0.156280 0.644544 0.546360
C19   C     C_R   0.031286 0.657817 0.352838 0.545626
C20   C     C_R   0.964535 0.656280 0.644544 0.546360
O41   O     O_R   0.545870 0.051100 0.330840 -0.520502
O42   O     O_R   0.454130 0.051100 0.669160 -0.525576
O43   O     O_R   0.045870 0.551100 0.330840 -0.520503
O44   O     O_R   0.954130 0.551100 0.669160 -0.525576
O45   O     O_R   0.681340 0.959300 0.325510 -0.488775
O46   O     O_R   0.318660 0.959300 0.674490 -0.494290
O47   O     O_R   0.181340 0.459300 0.325510 -0.488775
O48   O     O_R   0.818660 0.459300 0.674490 -0.494290
C21   C     C_R   0.740825 0.974486 0.355824 0.565050
C22   C     C_R   0.259161 0.974346 0.644154 0.563488
C23   C     C_R   0.240825 0.474486 0.355824 0.565050
C24   C     C_R   0.759161 0.474346 0.644154 0.563488
Cr1   Cr    Cr6+3 0.772000 0.169640 0.250110 1.012725
Cr2   Cr    Cr6+3 0.228000 0.169640 0.749890 1.013802
Cr3   Cr    Cr6+3 0.272000 0.669640 0.250110 1.012726
Cr4   Cr    Cr6+3 0.728000 0.669640 0.749890 1.013802
Cr5   Cr    Cr6+3 0.614960 0.323350 0.249260 1.048945
Cr6   Cr    Cr6+3 0.385040 0.323350 0.750740 1.051556
Cr7   Cr    Cr6+3 0.114960 0.823350 0.249260 1.048945
Cr8   Cr    Cr6+3 0.885040 0.823350 0.750740 1.051556
Cr9   Cr    Cr6+3 0.616670 0.010620 0.250840 1.058330
Cr10  Cr    Cr6+3 0.383330 0.010620 0.749160 1.055842
Cr11  Cr    Cr6+3 0.116670 0.510620 0.250840 1.058330
Cr12  Cr    Cr6+3 0.883330 0.510620 0.749160 1.055843
O49   O     O_3   0.667880 0.167870 0.250070 -0.279740
O50   O     O_3   0.332120 0.167870 0.749930 -0.281671
O51   O     O_3   0.167880 0.667870 0.250070 -0.279739
O52   O     O_3   0.832120 0.667870 0.749930 -0.281671
H1    H     H_    0.503186 0.965199 0.062492 0.153807
H2    H     H_    0.498197 0.965401 0.936699 0.153912
H3    H     H_    0.003185 0.465199 0.062492 0.153807
H4    H     H_    0.998197 0.465401 0.936699 0.153911
C25   C     C_R   0.498324 0.162781 0.925276 0.005477
C26   C     C_R   0.501756 0.162494 0.074732 0.005981
C27   C     C_R   0.998324 0.662781 0.925276 0.005477
C28   C     C_R   0.001756 0.662494 0.074732 0.005981
C29   C     C_R   0.502872 0.274944 0.962605 0.019244
C30   C     C_R   0.496639 0.274761 0.037863 0.019767
C31   C     C_R   0.002872 0.774944 0.962605 0.019244
C32   C     C_R   0.996639 0.774761 0.037862 0.019767
C33   C     C_R   0.500576 0.052991 0.036300 -0.154618
C34   C     C_R   0.500236 0.053139 0.963257 -0.154386
C35   C     C_R   0.000576 0.552991 0.036300 -0.154618
C36   C     C_R   0.000236 0.553139 0.963257 -0.154386
C37   C     C_R   0.513539 0.387102 0.927437 -0.078828
C38   C     C_R   0.485532 0.386702 0.073511 -0.078514
C39   C     C_R   0.013540 0.887102 0.927437 -0.078828
C40   C     C_R   0.985533 0.886702 0.073511 -0.078514
C41   C     C_R   0.008433 0.996698 0.964727 -0.051472
C42   C     C_R   0.990361 0.996498 0.036722 -0.051741
C43   C     C_R   0.508432 0.496698 0.964727 -0.051473
C44   C     C_R   0.490361 0.496498 0.036722 -0.051742
H5    H     H_    0.527431 0.390998 0.871506 0.139744
H6    H     H_    0.471648 0.390264 0.129466 0.139336
H7    H     H_    0.027432 0.890998 0.871506 0.139744
H8    H     H_    0.971648 0.890264 0.129465 0.139336
H9    H     H_    0.016895 0.082076 0.937249 0.164205
H10   H     H_    0.981763 0.081726 0.064602 0.163102
H11   H     H_    0.516894 0.582076 0.937249 0.164206
H12   H     H_    0.481762 0.581726 0.064602 0.163102
C45   C     C_R   0.679233 0.922258 0.029649 -0.112751
C46   C     C_R   0.320809 0.922488 0.970335 -0.111095
C47   C     C_R   0.179233 0.422257 0.029648 -0.112752
C48   C     C_R   0.820809 0.422487 0.970336 -0.111095
H13   H     H_    0.636596 0.881419 0.059821 0.204587
H14   H     H_    0.363711 0.882153 0.940124 0.204619
H15   H     H_    0.136596 0.381418 0.059820 0.204587
H16   H     H_    0.863711 0.382152 0.940124 0.204618
C49   C     C_R   0.687131 0.892221 0.957754 -0.177533
C50   C     C_R   0.312902 0.892314 0.042153 -0.177135
C51   C     C_R   0.187130 0.392221 0.957753 -0.177534
C52   C     C_R   0.812902 0.392314 0.042154 -0.177137
H17   H     H_    0.652087 0.825162 0.934369 0.140951
H18   H     H_    0.348174 0.825568 0.065411 0.141013
H19   H     H_    0.152086 0.325163 0.934368 0.140951
H20   H     H_    0.848175 0.325569 0.065411 0.141011
C53   C     C_R   0.742658 0.943257 0.917939 0.008179
C54   C     C_R   0.257186 0.943011 0.082077 0.007555
C55   C     C_R   0.242658 0.443257 0.917939 0.008179
C56   C     C_R   0.757186 0.443012 0.082077 0.007556
C57   C     C_R   0.782613 0.039835 0.948058 0.219213
C58   C     C_R   0.216949 0.039340 0.052124 0.219498
C59   C     C_R   0.282614 0.539834 0.948058 0.219213
C60   C     C_R   0.716949 0.539340 0.052124 0.219498
C61   C     C_R   0.777854 0.061907 0.021169 -0.124800
C62   C     C_R   0.221667 0.061335 0.979052 -0.124894
C63   C     C_R   0.277855 0.561905 0.021169 -0.124801
C64   C     C_R   0.721667 0.561335 0.979052 -0.124894
H21   H     H_    0.812315 0.128667 0.045462 0.146991
H22   H     H_    0.187016 0.127881 0.954916 0.146873
H23   H     H_    0.312317 0.628664 0.045463 0.146993
H24   H     H_    0.687016 0.627880 0.954916 0.146873
C65   C     C_R   0.728498 0.999452 0.062964 -0.024802
C66   C     C_R   0.271297 0.999271 0.937127 -0.024804
C67   C     C_R   0.228499 0.499449 0.062964 -0.024801
C68   C     C_R   0.771297 0.499270 0.937127 -0.024803
C69   C     C_R   0.471723 0.065294 0.454389 -0.132145
C70   C     C_R   0.463738 0.060757 0.527097 -0.124134
C71   C     C_R   0.971723 0.565294 0.454389 -0.132146
C72   C     C_R   0.963738 0.560757 0.527097 -0.124134
H25   H     H_    0.459849 0.984474 0.423286 0.129650
H26   H     H_    0.442981 0.977515 0.549909 0.137460
H27   H     H_    0.959849 0.484474 0.423286 0.129650
H28   H     H_    0.942981 0.477515 0.549909 0.137460
C73   C     C_R   0.481606 0.161920 0.569479 0.035861
C74   C     C_R   0.500292 0.169375 0.423042 0.031275
C75   C     C_R   0.981606 0.661920 0.569479 0.035861
C76   C     C_R   0.000292 0.669375 0.423042 0.031275
C77   C     C_R   0.504307 0.270234 0.537767 -0.135646
C78   C     C_R   0.514093 0.273850 0.464406 -0.129946
C79   C     C_R   0.004307 0.770234 0.537767 -0.135646
C80   C     C_R   0.014093 0.773850 0.464406 -0.129946
H29   H     H_    0.515789 0.350282 0.569629 0.124072
H30   H     H_    0.536456 0.355368 0.440909 0.135826
H31   H     H_    0.015789 0.850282 0.569629 0.124072
H32   H     H_    0.036456 0.855368 0.440909 0.135825
C81   C     C_R   0.797286 0.009064 0.470765 -0.129488
C82   C     C_R   0.204165 0.012137 0.528926 -0.133167
C83   C     C_R   0.297286 0.509064 0.470765 -0.129488
C84   C     C_R   0.704165 0.512137 0.528926 -0.133167
H33   H     H_    0.835754 0.069377 0.446429 0.129835
H34   H     H_    0.166686 0.074672 0.553159 0.128965
H35   H     H_    0.335754 0.569377 0.446429 0.129835
H36   H     H_    0.666686 0.574673 0.553159 0.128965
C85   C     C_R   0.797098 0.001140 0.543639 -0.129964
C86   C     C_R   0.204439 0.003748 0.456040 -0.135748
C87   C     C_R   0.297098 0.501140 0.543639 -0.129964
C88   C     C_R   0.704439 0.503748 0.456040 -0.135748
H37   H     H_    0.837015 0.051708 0.572888 0.133634
H38   H     H_    0.165470 0.055970 0.426569 0.130719
H39   H     H_    0.337015 0.551708 0.572888 0.133634
H40   H     H_    0.665470 0.555970 0.426569 0.130719
C89   C     C_R   0.750569 0.920798 0.577554 0.033978
C90   C     C_R   0.249802 0.920953 0.422348 0.034259
C91   C     C_R   0.250569 0.420798 0.577554 0.033978
C92   C     C_R   0.749802 0.420953 0.422348 0.034259
C93   C     C_R   0.698705 0.858394 0.538115 -0.133346
C94   C     C_R   0.300443 0.856043 0.461982 -0.141628
C95   C     C_R   0.198705 0.358394 0.538115 -0.133346
C96   C     C_R   0.800442 0.356043 0.461982 -0.141628
H41   H     H_    0.661907 0.796558 0.563684 0.122814
H42   H     H_    0.336353 0.792189 0.436565 0.120385
H43   H     H_    0.161907 0.296558 0.563684 0.122814
H44   H     H_    0.836353 0.292189 0.436565 0.120385
C97   C     C_R   0.697029 0.870183 0.464418 -0.134223
C98   C     C_R   0.301742 0.867545 0.535689 -0.146461
C99   C     C_R   0.197029 0.370183 0.464418 -0.134223
C100  C     C_R   0.801742 0.367545 0.535689 -0.146461
H45   H     H_    0.656729 0.822295 0.434242 0.124653
H46   H     H_    0.340808 0.817218 0.566067 0.117148
H47   H     H_    0.156729 0.322295 0.434242 0.124653
H48   H     H_    0.840808 0.317218 0.566067 0.117148
C101  C     C_R   0.747606 0.943475 0.430397 0.034406
C102  C     C_R   0.252424 0.943824 0.569472 0.035647
C103  C     C_R   0.247606 0.443475 0.430397 0.034406
C104  C     C_R   0.752424 0.443824 0.569472 0.035647
N1    N     N_R   0.827746 0.115684 0.905179 0.087825
O53   O     O_R   0.806153 0.153450 0.843155 -0.319427
O54   O     O_R   0.886092 0.159941 0.931470 -0.420645
N2    N     N_R   0.171653 0.115193 0.095153 0.087911
O55   O     O_R   0.193211 0.153298 0.157216 -0.320135
O56   O     O_R   0.113271 0.159370 0.068910 -0.420343
N3    N     N_R   0.327748 0.615683 0.905179 0.087825
O57   O     O_R   0.306156 0.653447 0.843154 -0.319426
O58   O     O_R   0.386091 0.659944 0.931472 -0.420648
N4    N     N_R   0.671653 0.615193 0.095153 0.087911
O59   O     O_R   0.693211 0.653298 0.157216 -0.320135
O60   O     O_R   0.613271 0.659370 0.068910 -0.420342

loop_
_geom_bond_atom_site_label_1
_geom_bond_atom_site_label_2
_geom_bond_distance
_ccdc_geom_bond_type
C18   O42   1.259540 A    
C99   H47   1.083289 S    
C79   C80   1.388273 A    
O4    C12   1.299855 A    
C86   H38   1.083985 S    
C69   C70   1.372447 A    
O39   C19   1.269270 A    
C16   C89   1.445470 S    
O20   Cr12  2.060122 S    
C39   C41   1.392829 A    
C77   C78   1.388273 A    
C58   C62   1.394656 A    
C15   C90   1.444172 S    
C93   C97   1.388828 A    
N3    O57   1.301620 A    
C23   C103  1.446008 S    
C60   C64   1.394656 A    
Cr6   O50   1.976769 S    
C42   H10   1.082221 S    
O29   Cr1   1.941156 S    
N2    O56   1.299448 A    
C29   C30   1.415913 A    
C41   H9    1.082174 S    
C14   C91   1.445470 S    
C38   C44   1.392864 A    
C7    C28   1.465608 S    
O7    C3    1.282668 A    
O5    C1    1.282667 A    
C33   C34   1.369807 A    
C45   C65   1.403573 A    
C38   H6    1.081434 S    
N3    O58   1.299369 A    
C72   H28   1.082653 S    
C37   H5    1.081395 S    
C3    C54   1.477284 S    
C11   C67   1.468391 S    
O25   C21   1.255891 A    
O26   Cr2   2.066495 S    
C1    C56   1.477284 S    
C27   C31   1.417222 A    
C52   H20   1.081633 S    
O47   C23   1.268251 A    
C83   C87   1.369569 A    
C5    C26   1.465608 S    
C26   C30   1.417577 A    
C81   C85   1.369569 A    
O21   C9    1.299291 A    
O8    Cr4   1.948030 S    
O23   Cr11  1.934015 S    
C71   C76   1.393789 A    
C48   C52   1.395389 A    
C43   H11   1.082173 S    
O30   C14   1.268007 A    
C72   C75   1.405270 A    
C75   C79   1.397357 A    
O32   Cr4   1.946191 S    
C18   C73   1.444717 S    
C1    O9    1.261242 A    
O44   Cr12  2.054524 S    
C61   H21   1.079779 S    
O25   Cr1   2.071221 S    
C84   C88   1.369690 A    
C57   N1    1.436453 S    
C62   H22   1.079843 S    
C3    O11   1.261241 A    
O11   Cr7   2.063363 S    
C4    O12   1.262071 A    
C26   C33   1.399888 A    
C40   C42   1.392864 A    
C94   H42   1.082359 S    
C84   H36   1.082447 S    
C93   H41   1.082389 S    
C7    O19   1.272629 A    
C96   H44   1.082359 S    
O3    Cr3   2.060034 S    
Cr4   O52   1.960800 S    
C83   H35   1.082603 S    
O2    Cr2   2.065482 S    
C92   C96   1.404921 A    
C48   H16   1.079641 S    
C29   C37   1.412142 A    
C98   C102  1.399226 A    
C13   C92   1.444172 S    
C37   C43   1.392829 A    
C97   C101  1.400831 A    
C100  C104  1.399226 A    
C95   H43   1.082389 S    
C46   C66   1.403905 A    
C60   N4    1.436594 S    
C50   H18   1.081633 S    
C55   C59   1.417300 A    
O34   Cr6   2.061270 S    
Cr7   O51   1.975247 S    
C100  H48   1.083260 S    
O6    Cr2   1.948030 S    
C91   C95   1.404199 A    
C10   C66   1.469424 S    
C73   C77   1.397357 A    
O24   Cr12  1.936785 S    
O9    Cr5   2.063363 S    
C32   C40   1.412246 A    
C20   C75   1.444717 S    
O30   Cr2   1.946191 S    
O22   C10   1.298716 A    
O1    C9    1.300126 A    
O48   Cr12  1.940619 S    
C64   H24   1.079844 S    
C84   C104  1.403832 A    
C21   C101  1.446008 S    
C6    O18   1.272320 A    
C95   C99   1.388828 A    
C54   C58   1.417933 A    
C8    C27   1.465805 S    
H3    C35   1.083625 S    
C44   H12   1.082220 S    
O16   Cr8   1.942402 S    
C82   C102  1.403832 A    
O7    Cr3   1.952768 S    
C17   C74   1.444154 S    
N1    O53   1.301618 A    
Cr10  O50   1.976049 S    
C79   H31   1.083373 S    
O13   C5    1.276482 A    
O40   C20   1.275082 A    
O43   Cr11  2.052357 S    
O48   C24   1.268575 A    
O12   Cr8   2.059006 S    
C22   C102  1.445058 S    
C46   H14   1.079639 S    
O15   C7    1.276481 A    
C45   H13   1.079609 S    
C47   C67   1.403573 A    
C81   C101  1.402877 A    
C94   C98   1.387931 A    
O46   Cr10  1.940619 S    
O39   Cr7   1.941810 S    
O3    C11   1.300128 A    
C98   H46   1.083260 S    
C25   C29   1.417222 A    
O45   Cr9   1.942016 S    
C71   C72   1.372447 A    
C62   C66   1.395819 A    
C97   H45   1.083289 S    
O8    C4    1.282260 A    
Cr11  O51   1.977667 S    
Cr1   O49   1.960835 S    
C47   C51   1.394739 A    
C99   C103  1.400831 A    
C13   O33   1.262160 A    
C53   C57   1.417299 A    
N4    O59   1.301624 A    
C89   C93   1.404199 A    
O47   Cr11  1.942016 S    
Cr2   O50   1.960800 S    
O15   Cr7   1.940381 S    
C58   N2    1.436593 S    
C82   H34   1.082447 S    
C96   C100  1.387931 A    
C85   H37   1.083946 S    
C49   H17   1.081634 S    
Cr3   O51   1.960835 S    
O26   C22   1.254379 A    
C24   C104  1.445058 S    
O21   Cr9   1.934015 S    
C59   C63   1.394346 A    
N4    O60   1.299446 A    
C48   C68   1.403905 A    
C2    O10   1.262070 A    
O37   Cr5   1.941810 S    
C6    C25   1.465805 S    
C71   H27   1.084044 S    
C19   O43   1.270252 A    
N1    O54   1.299365 A    
C2    C55   1.476113 S    
C50   C54   1.401493 A    
C69   H25   1.084045 S    
C47   H15   1.079611 S    
C8    O20   1.272320 A    
C63   C67   1.395893 A    
C27   C36   1.400221 A    
C12   C68   1.469423 S    
O31   Cr3   1.941156 S    
O14   Cr6   1.942402 S    
O38   C18   1.275082 A    
C76   C80   1.407367 A    
O45   C21   1.268251 A    
C5    O17   1.272629 A    
C45   C49   1.394740 A    
O37   C17   1.269270 A    
O22   Cr10  1.936785 S    
O28   C24   1.254379 A    
C43   C44   1.391612 A    
H1    C33   1.083625 S    
O14   C6    1.277092 A    
C25   C34   1.400222 A    
C87   H39   1.083946 S    
C86   C90   1.395597 A    
O5    Cr1   1.952768 S    
C56   C60   1.417933 A    
C85   C89   1.396903 A    
O17   Cr9   2.061188 S    
O40   Cr8   1.938188 S    
C69   C74   1.393789 A    
O6    C2    1.282260 A    
C15   O35   1.262160 A    
O24   C12   1.298717 A    
C17   O41   1.270252 A    
C78   H30   1.083336 S    
C57   C61   1.394344 A    
C52   C56   1.401493 A    
C46   C50   1.395390 A    
C31   C39   1.412143 A    
C14   O34   1.261903 A    
C51   H19   1.081635 S    
C30   C38   1.412245 A    
C31   C32   1.415911 A    
C88   H40   1.083985 S    
C20   O44   1.259540 A    
O1    Cr1   2.060034 S    
C40   H8    1.081433 S    
H2    C34   1.083646 S    
O19   Cr11  2.061188 S    
C61   C65   1.395893 A    
Cr8   O52   1.976769 S    
O32   C16   1.268007 A    
O29   C13   1.265603 A    
C41   C42   1.391610 A    
C59   N3    1.436452 S    
O13   Cr5   1.940381 S    
C77   H29   1.083373 S    
O2    C10   1.299855 A    
C90   C94   1.404921 A    
Cr12  O52   1.976049 S    
C81   H33   1.082603 S    
C63   H23   1.079780 S    
C28   C32   1.417578 A    
O23   C11   1.299292 A    
C74   C78   1.407367 A    
O33   Cr5   2.058654 S    
N2    O55   1.301624 A    
C39   H7    1.081395 S    
C9    C65   1.468396 S    
O10   Cr6   2.059006 S    
O42   Cr10  2.054524 S    
O35   Cr7   2.058654 S    
O4    Cr4   2.065482 S    
C51   C55   1.401503 A    
C70   H26   1.082653 S    
Cr5   O49   1.975247 S    
C82   C86   1.369690 A    
O28   Cr4   2.066495 S    
C16   O36   1.261903 A    
C49   C53   1.401503 A    
O46   C22   1.268575 A    
C88   C92   1.395597 A    
O18   Cr10  2.060122 S    
O27   Cr3   2.071221 S    
H4    C36   1.083647 S    
C28   C35   1.399887 A    
C83   C103  1.402877 A    
C35   C36   1.369809 A    
O27   C23   1.255891 A    
C4    C53   1.476116 S    
C87   C91   1.396903 A    
O41   Cr9   2.052357 S    
C64   C68   1.395820 A    
O36   Cr8   2.061270 S    
O31   C15   1.265603 A    
O16   C8    1.277092 A    
Cr9   O49   1.977667 S    
C19   C76   1.444154 S    
C80   H32   1.083337 S    
C70   C73   1.405270 A    
O38   Cr6   1.938188 S    
