data_mof_unit_44375.cif
_audit_creation_date              2012-12-11T17:14:05-0500
_audit_creation_method            fapswitch 2.2
_symmetry_space_group_name_H-M    P1
_symmetry_Int_Tables_number       1
_space_group_crystal_system       triclinic
_cell_length_a                    18.250936
_cell_length_b                    7.141262
_cell_length_c                    12.891922
_cell_angle_alpha                 89.999384
_cell_angle_beta                  73.192085
_cell_angle_gamma                 90.000436
_cell_volume                      1608.48333036

loop_
_atom_site_label
_atom_site_type_symbol
_atom_type_description
_atom_site_fract_x
_atom_site_fract_y
_atom_site_fract_z
_atom_type_partial_charge
O1    O     O_R   0.453880 0.506200 0.150010 -0.537891
O2    O     O_R   0.546120 0.006200 0.849990 -0.537914
O3    O     O_R   0.604080 0.177770 0.007280 -0.537817
O4    O     O_R   0.395920 0.677770 0.992720 -0.537808
C1    C     C_R   0.635833 0.344373 0.002033 0.732556
C2    C     C_R   0.364167 0.844372 0.997967 0.732581
O5    O     O_R   0.458010 0.176640 0.159130 -0.546652
O6    O     O_R   0.541990 0.676640 0.840870 -0.546632
O7    O     O_R   0.399010 0.004010 0.002930 -0.541846
O8    O     O_R   0.600990 0.504010 0.997070 -0.541850
C3    C     C_R   0.442173 0.344398 0.201727 0.749432
C4    C     C_R   0.557827 0.844401 0.798273 0.749410
O9    O     O_3   0.480810 0.338440 0.948570 -0.379621
O10   O     O_3   0.519190 0.838440 0.051430 -0.379607
V1    V     V_3+5 0.503560 0.064490 0.009540 1.369904
V2    V     V_3+5 0.496440 0.564490 0.990460 1.369958
C5    C     C_R   0.585485 0.772372 0.501748 0.415614
C6    C     C_R   0.414507 0.272314 0.498252 0.415819
H1    H     H_    0.490150 0.793835 0.644817 0.132411
H2    H     H_    0.509846 0.293844 0.355178 0.132161
H3    H     H_    0.667919 0.690197 0.297715 0.145917
H4    H     H_    0.332092 0.190317 0.702302 0.146126
C7    C     C_R   0.596265 0.845686 0.681186 -0.129991
C8    C     C_R   0.403734 0.345676 0.318813 -0.130282
C9    C     C_R   0.945620 0.961467 0.382553 -0.246512
C10   C     C_R   0.054381 0.461466 0.617444 -0.246528
C11   C     C_R   0.907936 0.032699 0.485172 0.493864
C12   C     C_R   0.092065 0.532702 0.514823 0.493856
C13   C     C_R   0.828867 0.022414 0.522096 -0.252469
C14   C     C_R   0.171135 0.522412 0.477896 -0.252440
C15   C     C_R   0.788117 0.902161 0.472440 0.033063
C16   C     C_R   0.211883 0.402164 0.527557 0.032991
C17   C     C_R   0.824472 0.843158 0.364616 0.071549
C18   C     C_R   0.175529 0.343175 0.635385 0.071545
C19   C     C_R   0.710493 0.852639 0.524160 0.000642
C20   C     C_R   0.289506 0.352637 0.475837 0.000806
C21   C     C_R   0.665282 0.790822 0.457724 0.010211
C22   C     C_R   0.334715 0.290808 0.542272 0.010481
C23   C     C_R   0.700797 0.744684 0.348746 -0.182516
C24   C     C_R   0.299205 0.244732 0.651261 -0.182423
C25   C     C_R   0.779608 0.763731 0.304055 -0.189504
C26   C     C_R   0.220395 0.263780 0.695954 -0.189593
C27   C     C_R   0.677221 0.852662 0.639555 0.061558
C28   C     C_R   0.322777 0.352647 0.360443 0.061523
C29   C     C_R   0.551578 0.808918 0.611677 -0.249164
C30   C     C_R   0.448421 0.308940 0.388328 -0.249100
C31   C     C_R   0.903968 0.876298 0.319001 -0.174587
C32   C     C_R   0.096032 0.376305 0.680998 -0.174551
H5    H     H_    0.006619 0.983013 0.349099 0.129438
H6    H     H_    0.993382 0.483009 0.650897 0.129427
H7    H     H_    0.800181 0.101013 0.594076 0.138635
H8    H     H_    0.199822 0.601008 0.405913 0.138631
H9    H     H_    0.804552 0.721291 0.220708 0.128831
H10   H     H_    0.195455 0.221380 0.779310 0.128850
C33   C     C_1   0.216329 0.858801 0.000186 -0.189051
C34   C     C_1   0.783671 0.358800 0.999815 -0.189066
C35   C     C_1   0.283658 0.852288 0.998838 -0.193861
C36   C     C_1   0.716341 0.352289 0.001163 -0.193909
O11   O     O_R   0.899030 0.205490 0.002790 -0.531471
O12   O     O_R   0.100970 0.705490 0.997210 -0.531470
O13   O     O_R   0.042000 0.536370 0.840840 -0.540571
O14   O     O_R   0.958000 0.036370 0.159160 -0.540574
C37   C     C_R   0.059119 0.369995 0.798512 0.718792
C38   C     C_R   0.940880 0.869992 0.201487 0.718794
O15   O     O_R   0.895930 0.535070 0.992690 -0.541694
O16   O     O_R   0.104070 0.035070 0.007310 -0.541693
O17   O     O_R   0.953870 0.707520 0.150040 -0.542284
O18   O     O_R   0.046130 0.207520 0.849960 -0.542279
C39   C     C_R   0.864240 0.366835 0.998632 0.730172
C40   C     C_R   0.135760 0.866836 0.001369 0.730177
O19   O     O_3   0.019200 0.374340 0.051340 -0.376806
O20   O     O_3   0.980800 0.874340 0.948660 -0.376803
V3    V     V_3+5 0.996440 0.648350 0.990470 1.404660
V4    V     V_3+5 0.003560 0.148350 0.009530 1.404659
O21   O     O_3   0.541605 0.692788 0.441857 -0.576411
C41   C     C_3   0.512138 0.832028 0.387139 0.097693
H11   H     H_    0.530364 0.798409 0.299268 0.133726
H12   H     H_    0.532988 0.976354 0.395352 0.137184
C42   C     C_3   0.424982 0.827776 0.426486 -0.665126
H13   H     H_    0.404484 0.862940 0.513965 0.230142
H14   H     H_    0.401021 0.929082 0.379707 0.183096
H15   H     H_    0.403642 0.686798 0.414939 0.213900
O22   O     O_3   0.458340 0.192518 0.558147 -0.576490
C43   C     C_3   0.488210 0.331678 0.612416 0.097525
H16   H     H_    0.470398 0.298028 0.700283 0.134075
H17   H     H_    0.467279 0.476026 0.604487 0.137258
C44   C     C_3   0.575346 0.327313 0.572256 -0.665626
H18   H     H_    0.595456 0.362617 0.484774 0.230050
H19   H     H_    0.599613 0.428497 0.618740 0.183147
H20   H     H_    0.596757 0.186263 0.583495 0.213857
C45   C     C_3   0.727593 0.840722 0.716596 -0.401334
C46   C     C_3   0.709866 0.679209 0.797090 -0.695316
H21   H     H_    0.671798 0.731690 0.874627 0.243936
H22   H     H_    0.684402 0.558376 0.765602 0.225686
H23   H     H_    0.762988 0.630403 0.814448 0.198601
H24   H     H_    0.787527 0.811895 0.671419 0.201429
H25   H     H_    0.724892 0.975268 0.760945 0.176314
C47   C     C_3   0.272403 0.340711 0.283402 -0.401317
C48   C     C_3   0.290132 0.179209 0.202905 -0.695296
H26   H     H_    0.328203 0.231696 0.125370 0.243939
H27   H     H_    0.315594 0.058370 0.234392 0.225653
H28   H     H_    0.237011 0.130408 0.185542 0.198600
H29   H     H_    0.212469 0.311878 0.328580 0.201421
H30   H     H_    0.275105 0.475261 0.239056 0.176305
O23   O     O_3   0.945674 0.129794 0.547141 -0.586596
C49   C     C_3   0.992799 0.008488 0.586045 0.067606
H31   H     H_    0.027031 0.094103 0.625654 0.155646
H32   H     H_    0.035271 0.936622 0.519385 0.173092
C50   C     C_3   0.946380 0.873693 0.672245 -0.724035
H33   H     H_    0.920880 0.761977 0.633903 0.200250
H34   H     H_    0.984320 0.808189 0.715419 0.207125
H35   H     H_    0.900276 0.950754 0.732313 0.220470
O24   O     O_3   0.054329 0.629799 0.452852 -0.586590
C51   C     C_3   0.007194 0.508494 0.413965 0.067615
H36   H     H_    0.972947 0.594109 0.374374 0.155627
H37   H     H_    0.964731 0.436616 0.480635 0.173080
C52   C     C_3   0.053607 0.373717 0.327746 -0.723910
H38   H     H_    0.079128 0.262006 0.366071 0.200227
H39   H     H_    0.015654 0.308201 0.284593 0.207107
H40   H     H_    0.099699 0.450800 0.267657 0.220452

loop_
_geom_bond_atom_site_label_1
_geom_bond_atom_site_label_2
_ccdc_geom_bond_type
C22   C24   A    
C44   H18   S    
C7    C29   A    
C11   C13   A    
O12   V3    S    
O1    C3    A    
C43   C44   S    
O2    C4    A    
C2    O7    A    
C51   H36   S    
O15   V3    S    
C23   C25   A    
O5    C3    A    
C4    C7    S    
C1    C36   S    
C16   C20   A    
C19   C21   A    
C5    C29   A    
C52   H39   S    
C47   H30   S    
C49   H31   S    
C11   O23   S    
O18   V4    S    
C47   H29   S    
O16   V4    S    
C3    C8    S    
C7    C27   A    
O13   C37   A    
O14   C38   A    
C50   H34   S    
C45   H24   S    
C44   H20   S    
C28   C47   S    
O22   C43   S    
C18   C26   A    
C41   C42   S    
O17   V3    S    
C19   C27   A    
C9    C31   A    
C10   C32   A    
C24   C26   A    
O6    V2    S    
C52   H40   S    
C2    C35   S    
C6    C30   A    
C41   H11   S    
C15   C17   A    
C33   C40   S    
C38   O17   A    
C43   H16   S    
O20   V4    S    
C50   H35   S    
C45   C46   S    
O19   V3    S    
C32   C37   S    
O13   V3    S    
C46   H23   S    
C27   C45   S    
C16   C18   A    
O4    V2    S    
O21   C41   S    
O19   V4    S    
C48   H26   S    
H3    C23   S    
O12   C40   A    
O6    C4    A    
H4    C24   S    
C46   H22   S    
C6    O22   S    
O1    V2    S    
C5    C21   A    
C45   H25   S    
O2    V1    S    
O11   V4    S    
C25   H9    S    
O11   C39   A    
O4    C2    A    
C48   H27   S    
C47   C48   S    
C33   C35   T    
C8    C28   A    
C15   C19   A    
C20   C28   A    
C18   C32   A    
C20   C22   A    
C31   C38   S    
O3    V1    S    
C42   H14   S    
O24   C51   S    
C13   H7    S    
C14   H8    S    
C37   O18   A    
O14   V4    S    
C41   H12   S    
O20   V3    S    
O3    C1    A    
C42   H15   S    
C51   H37   S    
H1    C29   S    
C9    C11   A    
O23   C49   S    
C10   C12   A    
C8    C30   A    
C10   H6    S    
C6    C22   A    
C17   C25   A    
C12   C14   A    
C13   C15   A    
O8    V2    S    
C52   H38   S    
C26   H10   S    
C14   C16   A    
O16   C40   A    
C49   H32   S    
O15   C39   A    
O5    V1    S    
C46   H21   S    
C17   C31   A    
C34   C36   T    
O7    V1    S    
C9    H5    S    
C51   C52   S    
C12   O24   S    
C42   H13   S    
C1    O8    A    
C48   H28   S    
C21   C23   A    
C34   C39   S    
O9    V2    S    
C5    O21   S    
C44   H19   S    
O10   V1    S    
C43   H17   S    
C50   H33   S    
H2    C30   S    
C49   C50   S    
