data_mof_unit_28654.cif
_audit_creation_date              2012-12-11T16:28:32-0500
_audit_creation_method            fapswitch 2.2
_symmetry_space_group_name_H-M    P1
_symmetry_Int_Tables_number       1
_space_group_crystal_system       triclinic
_cell_length_a                    16.888679
_cell_length_b                    7.252443
_cell_length_c                    14.912871
_cell_angle_alpha                 89.989602
_cell_angle_beta                  94.470365
_cell_angle_gamma                 90.06966
_cell_volume                      1821.03256178

loop_
_atom_site_label
_atom_site_type_symbol
_atom_type_description
_atom_site_fract_x
_atom_site_fract_y
_atom_site_fract_z
_atom_type_partial_charge
O1    O     O_R   0.663460 0.361760 0.165970 -0.533186
O2    O     O_R   0.336540 0.638240 0.834030 -0.533183
O3    O     O_R   0.836540 0.861760 0.334030 -0.530531
O4    O     O_R   0.163460 0.138240 0.665970 -0.530525
O5    O     O_R   0.827100 0.689870 0.163730 -0.540043
O6    O     O_R   0.172900 0.310130 0.836270 -0.540038
O7    O     O_R   0.672900 0.189870 0.336270 -0.531728
O8    O     O_R   0.327100 0.810130 0.663730 -0.531724
C1    C     C_R   0.854624 0.523388 0.145244 0.695837
C2    C     C_R   0.145376 0.476612 0.854756 0.695835
C3    C     C_R   0.645398 0.023245 0.354752 0.733572
C4    C     C_R   0.354602 0.976755 0.645248 0.733569
O9    O     O_R   0.663490 0.691370 0.155500 -0.533866
O10   O     O_R   0.336510 0.308630 0.844500 -0.533868
O11   O     O_R   0.836510 0.191370 0.344500 -0.526066
O12   O     O_R   0.163490 0.808630 0.655500 -0.526071
O13   O     O_R   0.671770 0.863320 0.325740 -0.527183
O14   O     O_R   0.328230 0.136680 0.674260 -0.527187
O15   O     O_R   0.828230 0.363320 0.174260 -0.533844
O16   O     O_R   0.171770 0.636680 0.825740 -0.533849
C5    C     C_R   0.638423 0.522498 0.130503 0.753078
C6    C     C_R   0.361577 0.477502 0.869497 0.753079
C7    C     C_R   0.862841 0.022864 0.367859 0.876305
C8    C     C_R   0.137159 0.977136 0.632141 0.876307
O17   O     O_3   0.752910 0.528800 0.305860 -0.368459
O18   O     O_3   0.247090 0.471200 0.694140 -0.368459
O19   O     O_3   0.747090 0.028800 0.194140 -0.375485
O20   O     O_3   0.252910 0.971200 0.805860 -0.375483
V1    V     V_3+5 0.749460 0.803010 0.239640 1.469281
V2    V     V_3+5 0.250540 0.196990 0.760360 1.469286
V3    V     V_3+5 0.750540 0.303010 0.260360 1.471328
V4    V     V_3+5 0.249460 0.696990 0.739640 1.471327
C9    C     C_1   0.469297 0.994571 0.530678 0.060134
C10   C     C_1   0.530703 0.005429 0.469322 0.060134
C11   C     C_1   0.030753 0.494424 0.969391 0.033197
C12   C     C_1   0.969247 0.505576 0.030609 0.033197
C13   C     C_R   0.025106 0.024261 0.310780 0.042372
C14   C     C_R   0.974894 0.975753 0.689222 0.042371
C15   C     C_R   0.478403 0.517154 0.190453 0.120987
C16   C     C_R   0.521597 0.482842 0.809546 0.120986
C17   C     C_R   0.102527 0.016451 0.282339 0.161987
C18   C     C_R   0.897472 0.983533 0.717661 0.161985
C19   C     C_R   0.402456 0.505841 0.221264 0.093775
C20   C     C_R   0.597546 0.494141 0.778736 0.093776
C21   C     C_R   0.167052 0.998934 0.344627 0.457305
C22   C     C_R   0.832946 0.001026 0.655372 0.457306
C23   C     C_R   0.336355 0.492857 0.160730 0.483355
C24   C     C_R   0.663647 0.507122 0.839270 0.483353
C25   C     C_R   0.156669 0.989202 0.436828 0.034565
C26   C     C_R   0.843329 0.010767 0.563171 0.034566
C27   C     C_R   0.344293 0.489841 0.068321 0.076749
C28   C     C_R   0.655707 0.510149 0.931679 0.076747
C29   C     C_R   0.078819 0.995146 0.469620 -0.039648
C30   C     C_R   0.921180 0.004844 0.530380 -0.039648
C31   C     C_R   0.421430 0.494601 0.032280 -0.105309
C32   C     C_R   0.578570 0.505395 0.967720 -0.105307
C33   C     C_R   0.011424 0.011167 0.405100 -0.015726
C34   C     C_R   0.988575 0.988837 0.594901 -0.015725
C35   C     C_R   0.490187 0.508316 0.095350 0.000012
C36   C     C_R   0.509813 0.491681 0.904650 0.000011
C37   C     C_R   0.067160 0.985733 0.564240 -0.084723
C38   C     C_R   0.932839 0.014267 0.435760 -0.084721
C39   C     C_R   0.431762 0.486884 0.937026 -0.070058
C40   C     C_R   0.568238 0.513115 0.062974 -0.070058
C41   C     C_1   0.417117 0.985772 0.582819 -0.192504
C42   C     C_1   0.582883 0.014228 0.417181 -0.192503
C43   C     C_1   0.082976 0.485470 0.917313 -0.146683
C44   C     C_1   0.917024 0.514530 0.082687 -0.146681
N1    N     N_3   0.226823 0.973195 0.496384 -0.673709
H1    H     H_    0.257143 0.853358 0.480454 0.261116
H2    H     H_    0.262935 0.087871 0.487263 0.255001
N2    N     N_3   0.773176 0.026761 0.503614 -0.673710
H3    H     H_    0.742849 0.146590 0.519546 0.261109
H4    H     H_    0.737067 0.912076 0.512733 0.255008
N3    N     N_3   0.270785 0.483157 0.014564 -0.614528
H5    H     H_    0.264287 0.601317 0.974862 0.235359
H6    H     H_    0.265821 0.358434 0.979918 0.242697
N4    N     N_3   0.729215 0.516834 0.985436 -0.614529
H7    H     H_    0.735713 0.398675 0.025139 0.235359
H8    H     H_    0.734179 0.641559 0.020081 0.242696
N5    N     N_3   0.116765 0.026932 0.188719 -0.549235
H9    H     H_    0.095027 0.152111 0.162333 0.253280
H10   H     H_    0.087470 0.918031 0.154268 0.237139
N6    N     N_3   0.883232 0.973050 0.811280 -0.549234
H11   H     H_    0.904982 0.847883 0.837669 0.253270
H12   H     H_    0.912516 0.081968 0.845729 0.237150
N7    N     N_3   0.393679 0.509766 0.316310 -0.652521
H13   H     H_    0.364996 0.388900 0.334222 0.289549
H14   H     H_    0.358353 0.622627 0.330660 0.297200
N8    N     N_3   0.606324 0.490206 0.683690 -0.652514
H15   H     H_    0.635008 0.611071 0.665776 0.289556
H16   H     H_    0.641649 0.377341 0.669343 0.297193
Cl1   Cl    Cl    0.736538 0.008885 0.694360 -0.610516
Cl2   Cl    Cl    0.263459 0.991044 0.305638 -0.610511
Cl3   Cl    Cl    0.759443 0.517249 0.798558 -0.571839
Cl4   Cl    Cl    0.240560 0.482715 0.201443 -0.571840
N9    N     N_3   0.961159 0.048299 0.242507 -0.658275
H17   H     H_    0.960289 0.937903 0.197411 0.230861
H18   H     H_    0.969246 0.171583 0.208111 0.233397
N10   N     N_3   0.038843 0.951766 0.757498 -0.658275
H19   H     H_    0.039702 0.062176 0.802585 0.230867
H20   H     H_    0.030768 0.828488 0.791902 0.233393
N11   N     N_3   0.542855 0.540397 0.258208 -0.622860
H21   H     H_    0.543785 0.428204 0.302350 0.254953
H22   H     H_    0.533531 0.660955 0.294366 0.254124
N12   N     N_3   0.457144 0.459612 0.741791 -0.622856
H23   H     H_    0.456219 0.571806 0.697649 0.254952
H24   H     H_    0.466463 0.339051 0.705632 0.254123

loop_
_geom_bond_atom_site_label_1
_geom_bond_atom_site_label_2
_ccdc_geom_bond_type
O17   V3    S    
N7    H13   S    
O1    C5    A    
C8    C37   S    
C16   C36   A    
C24   Cl3   S    
C31   C35   A    
O19   V1    S    
O13   V1    S    
O3    C7    A    
C11   C12   S    
O15   V3    S    
C10   C42   T    
C13   N9    S    
N5    H9    S    
C9    C41   T    
C33   C38   A    
C2    C43   S    
O7    C3    A    
C35   C40   A    
C26   C30   A    
C36   C39   A    
O9    V1    S    
C27   N3    S    
C14   C18   A    
C30   C34   A    
O4    C8    A    
N4    H8    S    
N12   H23   S    
O1    V3    S    
O2    V4    S    
C18   C22   A    
O3    V1    S    
C26   N2    S    
C5    C40   S    
N5    H10   S    
C6    C39   S    
C14   C34   A    
C29   C37   A    
C1    O15   A    
C7    C38   S    
C2    O16   A    
C31   C39   A    
O2    C6    A    
C23   Cl4   S    
C32   C40   A    
O14   V2    S    
C11   C43   T    
C16   C20   A    
C3    C42   S    
C34   C37   A    
O11   C7    A    
C15   C35   A    
O12   C8    A    
C25   N1    S    
O10   V2    S    
C28   N4    S    
C21   Cl2   S    
N9    H18   S    
N9    H17   S    
O5    V1    S    
O7    V3    S    
O8    V4    S    
C18   N6    S    
N6    H11   S    
N2    H4    S    
C29   C33   A    
O18   V4    S    
C15   C19   A    
C30   C38   A    
C32   C36   A    
N3    H5    S    
O5    C1    A    
N8    H16   S    
C21   C25   A    
O8    C4    A    
C17   N5    S    
N10   H20   S    
C9    C10   S    
O9    C5    A    
N11   H22   S    
C15   N11   S    
N3    H6    S    
C14   N10   S    
O6    V2    S    
N7    H14   S    
C20   N8    S    
C16   N12   S    
O16   V4    S    
C3    O13   A    
N4    H7    S    
N6    H12   S    
N2    H3    S    
O6    C2    A    
C23   C27   A    
C12   C44   T    
O11   V3    S    
O12   V4    S    
C4    C41   S    
C22   C26   A    
N1    H2    S    
C19   N7    S    
O10   C6    A    
O20   V2    S    
C1    C44   S    
N8    H15   S    
C22   Cl1   S    
N12   H24   S    
C25   C29   A    
N10   H19   S    
C27   C31   A    
C13   C17   A    
N1    H1    S    
O4    V2    S    
C28   C32   A    
C24   C28   A    
C4    O14   A    
N11   H21   S    
C17   C21   A    
C19   C23   A    
C13   C33   A    
C20   C24   A    
