data_mof_unit_28801.cif
_audit_creation_date              2012-12-10T18:12:38-0500
_audit_creation_method            fapswitch 2.2
_symmetry_space_group_name_H-M    P1
_symmetry_Int_Tables_number       1
_space_group_crystal_system       triclinic
_cell_length_a                    12.592091
_cell_length_b                    12.973528
_cell_length_c                    15.71449
_cell_angle_alpha                 90.615678
_cell_angle_beta                  102.973418
_cell_angle_gamma                 81.339839
_cell_volume                      2472.42024537

loop_
_atom_site_label
_atom_site_type_symbol
_atom_type_description
_atom_site_fract_x
_atom_site_fract_y
_atom_site_fract_z
_atom_type_partial_charge
C1    C     C_R   0.437721 0.692064 0.487821 0.894738
C2    C     C_3   0.507126 0.487441 0.917731 -0.113882
C3    C     C_3   0.523107 0.392611 0.032649 0.319403
C4    C     C_3   0.499386 0.492118 0.082923 -0.172520
C5    C     C_3   0.604777 0.443375 0.992532 -0.296899
C6    C     C_3   0.579087 0.543364 0.042967 0.364440
C7    C     C_1   0.509077 0.487994 0.827191 0.170200
C8    C     C_1   0.496936 0.495201 0.173501 0.170960
C9    C     C_R   0.625511 0.094051 0.677064 0.425036
C10   C     C_R   0.595723 0.201930 0.545756 -0.054043
C11   C     C_R   0.327590 0.834736 0.387734 0.134797
C12   C     C_R   0.502771 0.496120 0.661991 0.893953
C13   C     C_R   0.317012 0.937281 0.358772 -0.102921
C14   C     C_R   0.381132 0.005394 0.406656 -0.125869
C15   C     C_R   0.452939 0.973833 0.488206 0.083612
C16   C     C_R   0.447515 0.876843 0.524821 -0.025575
C17   C     C_R   0.525106 0.038272 0.536061 0.013564
C18   C     C_R   0.576838 0.014716 0.625695 -0.083658
C19   C     C_R   0.570834 0.916344 0.660530 0.194461
C20   C     C_R   0.497224 0.854384 0.613722 0.061934
C21   C     C_R   0.546011 0.126603 0.496249 -0.210409
C22   C     C_R   0.635323 0.185755 0.635520 -0.142398
C23   C     C_R   0.561425 0.308267 0.512744 0.867019
C24   C     C_R   0.396144 0.802959 0.470162 -0.121622
C25   C     C_R   0.099601 0.324050 0.400337 0.388076
C26   C     C_R   0.782577 0.654143 0.570842 0.046248
C27   C     C_R   0.867759 0.704856 0.559243 -0.229499
C28   C     C_R   0.949302 0.653356 0.520520 0.187972
C29   C     C_R   0.952786 0.544652 0.504941 -0.038291
C30   C     C_R   0.864244 0.496359 0.519778 0.125532
C31   C     C_R   0.037986 0.481354 0.474603 -0.041340
C32   C     C_R   0.020272 0.381954 0.440047 -0.035730
C33   C     C_R   0.933149 0.337106 0.458512 -0.227562
C34   C     C_R   0.498798 0.499655 0.338112 0.884517
C35   C     C_R   0.870119 0.388182 0.513012 0.347083
C36   C     C_R   0.144565 0.506432 0.487242 0.029184
C37   C     C_R   0.200807 0.358805 0.408842 -0.047732
C38   C     C_3   0.402608 0.535636 0.007596 0.089402
C39   C     C_3   0.483123 0.588362 0.967145 -0.271615
C40   C     C_1   0.507512 0.490918 0.751654 -0.071839
C41   C     C_1   0.496788 0.497509 0.248800 -0.067865
C42   C     C_3   0.426866 0.435630 0.956934 0.362918
H1    H     H_    0.467995 0.668751 0.938923 0.225113
H2    H     H_    0.516516 0.143268 0.427045 0.154154
H3    H     H_    0.370113 0.083358 0.379608 0.177640
H4    H     H_    0.263483 0.962949 0.296267 0.210414
H5    H     H_    0.265536 0.314228 0.382756 0.176936
H6    H     H_    0.930477 0.254856 0.448479 0.242607
H7    H     H_    0.170095 0.569180 0.528437 0.171195
H8    H     H_    0.715966 0.697763 0.594978 0.163195
H9    H     H_    0.864870 0.786891 0.573724 0.191580
H10   H     H_    0.687351 0.405932 0.985057 0.230011
H11   H     H_    0.662544 0.250068 0.674556 0.211045
N1    N     N_R   0.222180 0.444680 0.455580 -0.136188
N2    N     N_R   0.776980 0.554790 0.543960 -0.112811
O1    O     O_R   0.366730 0.627160 0.478790 -0.580229
O2    O     O_R   0.544830 0.662520 0.507160 -0.629969
O3    O     O_R   0.410960 0.482330 0.609040 -0.591868
O4    O     O_R   0.589060 0.517690 0.637410 -0.577409
O5    O     O_R   0.455170 0.337480 0.492840 -0.624482
O6    O     O_R   0.633270 0.372840 0.521210 -0.564816
O7    O     O_R   0.410940 0.482310 0.362590 -0.594055
O8    O     O_R   0.589040 0.517670 0.390960 -0.598613
Zn1   Zn    Zn3+2 0.381080 0.476390 0.481050 1.011863
Zn2   Zn    Zn3+2 0.618920 0.523610 0.518950 1.037027
I1    I     I_    0.246857 0.732195 0.297721 -0.178821
I2    I     I_    0.427017 0.758235 0.688435 -0.248258
S1    S     S_3+6 0.078474 0.206764 0.344765 0.037824
O9    O     O_2   0.962550 0.217452 0.290476 -0.212630
O10   O     O_2   0.158168 0.182443 0.286385 -0.295176
O11   O     O_3   0.098678 0.109078 0.418852 -0.555971
H12   H     H_    0.085151 0.046321 0.384041 0.402288
I3    I     I_    0.244556 0.609957 0.022304 -0.054403
I4    I     I_    0.040889 0.756033 0.472138 -0.220143
S2    S     S_3+6 0.873034 0.315913 0.608258 0.069930
O12   O     O_2   0.800163 0.373565 0.662419 -0.245670
O13   O     O_2   0.839259 0.211313 0.584337 -0.305345
O14   O     O_3   0.003138 0.297294 0.668595 -0.464510
H13   H     H_    0.046314 0.251633 0.633497 0.371351
S3    S     S_3+6 0.680424 0.615785 0.101492 0.104510
O15   O     O_2   0.624990 0.704737 0.145604 -0.219429
O16   O     O_2   0.762395 0.546370 0.169285 -0.239388
O17   O     O_3   0.745704 0.663357 0.031849 -0.454466
H14   H     H_    0.773776 0.601716 0.001098 0.362683
S4    S     S_3+6 0.551598 0.264661 0.080596 0.128588
O18   O     O_2   0.654061 0.256010 0.152446 -0.202839
O19   O     O_2   0.456755 0.244742 0.118377 -0.257880
O20   O     O_3   0.571538 0.176040 0.004714 -0.442379
H15   H     H_    0.499629 0.151364 0.984143 0.401456
S5    S     S_3+6 0.325482 0.364824 0.895593 0.097349
O21   O     O_2   0.243371 0.437554 0.830477 -0.247113
O22   O     O_2   0.380379 0.278892 0.848167 -0.243252
O23   O     O_3   0.260614 0.313804 0.963777 -0.478415
H16   H     H_    0.207309 0.274627 0.925827 0.409624
I5    I     I_    0.697601 0.836406 0.762771 -0.141788
S6    S     S_3+6 0.642367 0.100165 0.792355 0.106484
O24   O     O_2   0.759029 0.055713 0.835810 -0.211367
O25   O     O_2   0.620522 0.211728 0.818790 -0.251142
O26   O     O_3   0.553308 0.034008 0.825724 -0.500764
H17   H     H_    0.587789 0.013892 0.887486 0.412941

loop_
_geom_bond_atom_site_label_1
_geom_bond_atom_site_label_2
_ccdc_geom_bond_type
O8    Zn2   S    
C3    C42   S    
O23   H16   S    
C3    S4    S    
C20   I2    S    
C19   C20   A    
C4    C8    S    
C28   I4    S    
C26   N2    A    
S4    O18   D    
C10   C22   A    
C34   C41   S    
C35   S2    S    
C26   C27   A    
C30   C35   A    
C28   C29   A    
C1    O1    A    
C38   C42   S    
C26   H8    S    
C5    C6    S    
C9    C22   A    
C15   C16   A    
S6    O26   S    
C11   C24   A    
C34   O7    A    
C18   C19   A    
O7    Zn1   S    
C2    C7    S    
C25   C37   A    
C12   O4    A    
S5    O22   D    
C2    C39   S    
C31   C32   A    
S1    O9    D    
S6    O25   D    
C7    C40   T    
O1    Zn1   S    
C5    H10   S    
C37   H5    S    
C11   I1    S    
C12   O3    A    
C25   C32   A    
C16   C24   A    
C13   C14   A    
C25   S1    S    
S3    O17   S    
N2    Zn2   S    
C27   H9    S    
C22   H11   S    
S4    O19   D    
C10   C21   A    
O3    Zn1   S    
C23   O5    A    
C38   C39   S    
C8    C41   T    
S3    O16   D    
O14   H13   S    
C39   H1    S    
C17   C21   A    
C42   S5    S    
C12   C40   S    
S2    O12   D    
C29   C30   A    
C1    O2    A    
C21   H2    S    
C6    S3    S    
O17   H14   S    
C14   C15   A    
C16   C20   A    
S6    O24   D    
C17   C18   A    
S2    O13   D    
C9    S6    S    
C37   N1    A    
C4    C6    S    
C4    C38   S    
C2    C5    S    
C3    C4    S    
C19   I5    S    
S5    O23   S    
S4    O20   S    
C15   C17   A    
C31   C36   A    
O2    Zn2   S    
S3    O15   D    
C3    C5    S    
C14   H3    S    
C10   C23   S    
C30   N2    A    
O26   H17   S    
O5    Zn1   S    
C32   C33   A    
O11   H12   S    
C29   C31   A    
O4    Zn2   S    
C11   C13   A    
S5    O21   D    
C13   H4    S    
N1    Zn1   S    
C2    C42   S    
S1    O11   S    
C34   O8    A    
C33   C35   A    
S2    O14   S    
C36   N1    A    
O6    Zn2   S    
C9    C18   A    
C23   O6    A    
O20   H15   S    
C1    C24   S    
S1    O10   D    
C27   C28   A    
C33   H6    S    
C6    C39   S    
C36   H7    S    
C38   I3    S    
