data_mof_unit_50370.cif
_audit_creation_date              2012-12-10T19:51:57-0500
_audit_creation_method            fapswitch 2.2
_symmetry_space_group_name_H-M    P1
_symmetry_Int_Tables_number       1
_space_group_crystal_system       triclinic
_cell_length_a                    25.933223
_cell_length_b                    26.036251
_cell_length_c                    22.209928
_cell_angle_alpha                 89.834942
_cell_angle_beta                  125.895306
_cell_angle_gamma                 89.932815
_cell_volume                      12148.164969

loop_
_atom_site_label
_atom_site_type_symbol
_atom_type_description
_atom_site_fract_x
_atom_site_fract_y
_atom_site_fract_z
_atom_type_partial_charge
C1    C     C_R   0.650299 0.750072 0.300667 0.501542
C2    C     C_3   0.513228 0.799472 0.023974 0.033823
C3    C     C_R   0.233601 0.526480 0.441541 0.011622
C4    C     C_R   0.741609 0.945677 0.491421 0.036537
C5    C     C_R   0.742644 0.053830 0.493498 0.032337
C6    C     C_R   0.259510 0.445751 0.506845 0.032186
C7    C     C_R   0.257555 0.553938 0.506456 0.029300
C8    C     C_R   0.691525 0.972212 0.486933 -0.003334
C9    C     C_R   0.693226 0.027047 0.490427 -0.008416
C10   C     C_R   0.295443 0.472221 0.575931 -0.012241
C11   C     C_R   0.292636 0.527135 0.575746 -0.017803
C12   C     C_3   0.853236 0.028618 0.523829 -0.273549
C13   C     C_3   0.988597 0.706708 0.025081 0.028716
C14   C     C_3   0.852988 0.970222 0.523415 -0.273751
C15   C     C_3   0.169454 0.529115 0.368718 -0.275949
C16   C     C_3   0.170011 0.470748 0.368938 -0.272802
C17   C     C_R   0.610533 0.749143 0.501101 0.518926
C18   C     C_R   0.609036 0.249020 0.498078 0.495596
C19   C     C_R   0.110572 0.249047 0.501165 0.522831
C20   C     C_R   0.110531 0.750931 0.501265 0.531252
C21   C     C_R   0.748950 0.890051 0.498932 0.503716
C22   C     C_R   0.748892 0.109806 0.499184 0.504027
C23   C     C_R   0.251584 0.390076 0.501221 0.499894
C24   C     C_3   0.979830 0.289126 0.024508 0.034382
C25   C     C_R   0.250964 0.609845 0.500999 0.501969
C26   C     C_R   0.750249 0.609945 0.500245 0.534872
C27   C     C_R   0.749761 0.390062 0.500492 0.534336
C28   C     C_R   0.250136 0.109843 0.500571 0.530253
C29   C     C_R   0.249588 0.889942 0.501644 0.536955
C30   C     C_R   0.695933 0.526488 0.454658 -0.032861
C31   C     C_R   0.695984 0.474611 0.452751 -0.034805
C32   C     C_R   0.195675 0.025901 0.455158 -0.036145
C33   C     C_R   0.195392 0.974001 0.456307 -0.025837
C34   C     C_R   0.750919 0.554386 0.503760 -0.025984
C35   C     C_3   0.937981 0.747780 0.975155 -0.028008
C36   C     C_R   0.749527 0.445589 0.504595 -0.032222
C37   C     C_R   0.250523 0.054134 0.504733 -0.030753
C38   C     C_R   0.249071 0.945259 0.507230 -0.032094
C39   C     C_R   0.806916 0.526372 0.557721 0.240534
C40   C     C_R   0.804347 0.472580 0.561997 0.237753
C41   C     C_R   0.305993 0.026154 0.560660 0.239522
C42   C     C_R   0.303539 0.972212 0.564535 0.223454
C43   C     C_3   0.897838 0.559714 0.578119 0.051746
C44   C     C_3   0.945896 0.516552 0.599047 -0.257536
C45   C     C_3   0.990461 0.530516 0.577830 -0.510370
C46   C     C_3   0.937920 0.243770 0.975749 -0.025867
C47   C     C_3   0.849707 0.432953 0.674992 0.038410
C48   C     C_3   0.881218 0.472448 0.737768 -0.259309
C49   C     C_3   0.879307 0.455115 0.802130 -0.500764
C50   C     C_3   0.401653 0.057905 0.592801 0.048738
C51   C     C_3   0.448473 0.012987 0.617408 -0.256350
C52   C     C_3   0.500438 0.025374 0.607248 -0.512349
C53   C     C_3   0.348649 0.937983 0.679614 0.032005
C54   C     C_3   0.407262 0.909495 0.743594 -0.239090
C55   C     C_3   0.399914 0.895196 0.804881 -0.489148
C56   C     C_3   0.631124 0.734997 0.648067 -0.378932
C57   C     C_3   0.459119 0.209840 0.975978 -0.027200
C58   C     C_3   0.547974 0.147384 0.483492 -0.388619
C59   C     C_3   0.131186 0.235734 0.648262 -0.377563
C60   C     C_3   0.132094 0.749844 0.647972 -0.372484
C61   C     C_3   0.515990 0.745387 0.647407 -0.365581
C62   C     C_3   0.441315 0.148137 0.498772 -0.377568
C63   C     C_3   0.015983 0.246290 0.647372 -0.364196
C64   C     C_3   0.017795 0.760406 0.648740 -0.371459
C65   C     C_3   0.347357 0.729076 0.307965 -0.414930
C66   C     C_3   0.473464 0.368618 0.555485 -0.422420
C67   C     C_3   0.846877 0.228256 0.308303 -0.414762
C68   C     C_3   0.445734 0.776524 0.974869 -0.025442
C69   C     C_3   0.845914 0.776385 0.310644 -0.409279
C70   C     C_3   0.461244 0.733899 0.309044 -0.308570
C71   C     C_3   0.580520 0.369758 0.542253 -0.322435
C72   C     C_3   0.960736 0.229497 0.309276 -0.309254
C73   C     C_3   0.959280 0.784176 0.311381 -0.307011
C74   C     C_3   0.495944 0.850136 0.425761 0.009045
C75   C     C_3   0.463810 0.902144 0.393258 -0.263715
C76   C     C_3   0.475751 0.938877 0.453680 -0.493542
C77   C     C_3   0.451296 0.343490 0.341791 0.002085
C78   C     C_3   0.476182 0.307013 0.310145 -0.242023
C79   C     C_1   0.889457 0.749701 0.778702 0.015763
C80   C     C_3   0.425271 0.295329 0.228296 -0.500562
C81   C     C_3   0.995493 0.348869 0.420473 0.011096
C82   C     C_3   0.958396 0.398550 0.383721 -0.263925
C83   C     C_3   0.968485 0.437147 0.441279 -0.492105
C84   C     C_3   0.987932 0.654910 0.399607 0.004715
C85   C     C_3   0.041454 0.618429 0.417216 -0.247397
C86   C     C_3   0.046897 0.572472 0.463353 -0.490364
C87   C     C_3   0.636213 0.943121 0.476439 -0.379805
C88   C     C_3   0.642878 0.057252 0.489411 -0.385879
C89   C     C_3   0.337249 0.443011 0.648618 -0.374905
C90   C     C_1   0.888587 0.250484 0.778624 0.008876
C91   C     C_3   0.325878 0.557330 0.647642 -0.366632
C92   C     C_3   0.587628 0.462698 0.251281 0.053033
C93   C     C_3   0.569877 0.415882 0.201544 -0.273173
C94   C     C_3   0.540914 0.373904 0.220611 -0.418862
C95   C     C_3   0.599240 0.601003 0.292601 0.035798
C96   C     C_3   0.534399 0.588032 0.220594 -0.302566
C97   C     C_3   0.494172 0.636281 0.183863 -0.484671
C98   C     C_3   0.068852 0.946107 0.261696 0.043563
C99   C     C_3   0.045440 0.891175 0.235896 -0.260538
C100  C     C_3   0.979827 0.890549 0.161630 -0.506413
C101  C     C_1   0.389586 0.249378 0.778653 0.017046
C102  C     C_3   0.097489 0.093954 0.290758 0.034048
C103  C     C_3   0.030388 0.084509 0.220377 -0.290468
C104  C     C_3   0.994830 0.134993 0.186008 -0.480876
C105  C     C_3   0.583551 0.441562 0.384294 -0.335916
C106  C     C_3   0.583336 0.554507 0.397348 -0.399510
C107  C     C_3   0.086076 0.941569 0.406210 -0.378198
C108  C     C_3   0.082554 0.055135 0.400694 -0.400269
C109  C     C_3   0.868360 0.745818 0.946027 -0.413497
C110  C     C_3   0.869215 0.235163 0.947604 -0.411021
C111  C     C_3   0.413168 0.164938 0.947712 -0.412782
C112  C     C_R   0.650183 0.250125 0.300619 0.503958
C113  C     C_1   0.389255 0.749906 0.778642 0.003324
C114  C     C_3   0.384379 0.805695 0.945516 -0.416290
C115  C     C_3   0.569548 0.155279 0.056829 -0.384521
C116  C     C_3   0.528761 0.854682 0.051174 -0.380001
C117  C     C_3   0.976780 0.658215 0.053664 -0.385121
C118  C     C_3   0.959024 0.331822 0.052643 -0.380633
C119  C     C_3   0.059698 0.871174 0.003486 0.011095
C120  C     C_3   0.022408 0.918847 0.997644 -0.259373
C121  C     C_3   0.065091 0.956836 0.059838 -0.494705
C122  C     C_3   0.086826 0.148108 0.004589 0.011805
C123  C     C_3   0.097198 0.100214 0.973307 -0.250750
C124  C     C_1   0.609997 0.250302 0.221307 -0.013920
C125  C     C_3   0.156799 0.070937 0.033686 -0.495045
C126  C     C_3   0.434793 0.370463 0.994037 0.007084
C127  C     C_3   0.370022 0.374181 0.980777 -0.254786
C128  C     C_3   0.371647 0.411663 0.034538 -0.495134
C129  C     C_3   0.491302 0.617030 0.006572 0.009128
C130  C     C_3   0.489338 0.562936 0.978845 -0.243774
C131  C     C_3   0.512171 0.522864 0.039979 -0.503422
C132  C     C_3   0.079334 0.639095 0.002827 0.010224
C133  C     C_3   0.130965 0.645199 0.990179 -0.258932
C134  C     C_3   0.191604 0.616321 0.049089 -0.493514
C135  C     C_1   0.610407 0.750583 0.221391 -0.016776
C136  C     C_3   0.058060 0.371257 0.994669 0.008772
C137  C     C_3   0.048826 0.426679 0.967183 -0.254719
C138  C     C_3   0.108077 0.458934 0.019224 -0.492822
C139  C     C_3   0.637944 0.241799 0.005694 0.010198
C140  C     C_3   0.665045 0.289588 0.993559 -0.258739
C141  C     C_3   0.736716 0.293824 0.052730 -0.491365
C142  C     C_3   0.624478 0.798335 0.996591 0.009482
C143  C     C_3   0.652587 0.834687 0.968824 -0.251769
C144  C     C_3   0.725122 0.835946 0.022252 -0.493735
C145  C     C_1   0.110044 0.750088 0.221398 -0.012729
C146  C     C_1   0.110209 0.250619 0.221348 -0.016137
C147  C     C_3   0.013139 0.709054 0.976656 0.277272
C148  C     C_3   0.003125 0.296024 0.975248 0.268541
C149  C     C_3   0.536134 0.244582 0.977216 0.278126
C150  C     C_3   0.529992 0.772874 0.975730 0.266180
C151  C     C_3   0.962361 0.749588 0.926513 0.084390
C152  C     C_R   0.150276 0.250065 0.300651 0.504455
C153  C     C_3   0.960985 0.251106 0.926390 0.088270
C154  C     C_3   0.463239 0.248499 0.926436 0.086641
C155  C     C_3   0.462616 0.750391 0.926433 0.086543
C156  C     C_3   0.540151 0.290049 0.024505 -0.118361
C157  C     C_3   0.554312 0.724379 0.025930 -0.124092
C158  C     C_3   0.061388 0.751679 0.025743 -0.119989
C159  C     C_3   0.059928 0.258948 0.024824 -0.128345
C160  C     C_3   0.535344 0.250371 0.073537 -0.036591
C161  C     C_3   0.536207 0.751081 0.073675 -0.032397
C162  C     C_3   0.035660 0.749798 0.073737 -0.035000
C163  C     C_R   0.150186 0.750087 0.300651 0.506976
C164  C     C_3   0.035459 0.251397 0.073595 -0.032885
C165  C     C_3   0.009315 0.792033 0.976118 0.262119
C166  C     C_3   0.016425 0.213929 0.976356 0.257953
C167  C     C_3   0.466656 0.292671 0.974143 0.259958
C168  C     C_3   0.485922 0.702778 0.977014 0.259049
C169  C     C_R   0.849762 0.749916 0.699383 0.499135
C170  C     C_R   0.849549 0.250071 0.699342 0.495014
C171  C     C_R   0.349765 0.249871 0.699366 0.498091
C172  C     C_R   0.349644 0.749985 0.699346 0.492332
C173  C     C_3   0.461605 0.254359 0.023872 -0.115058
C174  C     C_3   0.631921 0.471828 0.378911 0.291068
C175  C     C_3   0.468173 0.728208 0.025470 -0.118625
C176  C     C_3   0.984595 0.791251 0.024768 -0.112186
C177  C     C_3   0.993147 0.205498 0.025713 -0.114902
C178  C     C_1   0.922546 0.749639 0.845431 0.013315
C179  C     C_1   0.921246 0.250795 0.845329 0.010617
C180  C     C_1   0.423050 0.248858 0.845366 0.015635
C181  C     C_1   0.422462 0.749944 0.845361 0.004459
C182  C     C_1   0.576072 0.250511 0.154575 -0.072348
C183  C     C_1   0.576873 0.751017 0.154675 -0.073468
C184  C     C_1   0.076303 0.750014 0.154705 -0.068253
C185  C     C_3   0.631122 0.532432 0.382851 0.295000
C186  C     C_1   0.076443 0.251103 0.154619 -0.073822
C187  C     C_R   0.496854 0.739263 0.441196 0.000365
C188  C     C_R   0.516331 0.289520 0.481243 0.009081
C189  C     C_R   0.997012 0.237993 0.441329 0.000523
C190  C     C_R   0.997505 0.765574 0.442231 0.005647
C191  C     C_R   0.557639 0.744346 0.506570 0.016405
C192  C     C_R   0.549815 0.245204 0.490639 0.007496
C193  C     C_R   0.057710 0.243973 0.506646 0.015987
C194  C     C_R   0.057652 0.755645 0.506866 0.018631
C195  C     C_R   0.565574 0.741414 0.575565 -0.018222
C196  C     C_3   0.128650 0.969032 0.388209 0.316202
C197  C     C_R   0.523235 0.197551 0.491540 -0.007679
C198  C     C_R   0.065617 0.241708 0.575649 -0.019322
C199  C     C_R   0.065598 0.754092 0.576019 -0.028796
C200  C     C_R   0.510417 0.743853 0.575451 -0.018252
C201  C     C_R   0.469929 0.197759 0.495295 -0.006588
C202  C     C_R   0.010427 0.244290 0.575444 -0.019037
C203  C     C_R   0.010493 0.756239 0.575998 -0.013448
C204  C     C_R   0.448950 0.745102 0.506176 0.012107
C205  C     C_R   0.442799 0.245634 0.494779 0.026213
C206  C     C_R   0.948969 0.245240 0.506123 0.011648
C207  C     C_3   0.128492 0.029551 0.385834 0.295530
C208  C     C_R   0.949121 0.755572 0.506706 0.015911
C209  C     C_R   0.443741 0.737602 0.440846 -0.037357
C210  C     C_R   0.466641 0.289938 0.485611 -0.052429
C211  C     C_R   0.943863 0.237101 0.440964 -0.039186
C212  C     C_R   0.944474 0.764419 0.441904 -0.041249
C213  C     C_3   0.401923 0.763741 0.366347 -0.100868
C214  C     C_3   0.460725 0.347286 0.483576 -0.098028
C215  C     C_3   0.902189 0.262667 0.365999 -0.101587
C216  C     C_3   0.902638 0.741591 0.365480 -0.108414
C217  C     C_R   0.890582 0.750627 0.500960 0.498744
C218  C     C_3   0.532361 0.205403 0.026507 0.028266
C219  C     C_R   0.890524 0.249476 0.500911 0.504380
C220  C     C_R   0.389615 0.249304 0.499358 0.508538
C221  C     C_R   0.390552 0.749397 0.501005 0.504015
C222  C     C_3   0.462022 0.766522 0.367169 0.280131
C223  C     C_3   0.517418 0.347024 0.476667 0.295476
C224  C     C_3   0.962142 0.263927 0.366355 0.282398
C225  C     C_3   0.962143 0.744325 0.364612 0.283358
C226  C     C_R   0.782495 0.973523 0.482531 0.009052
C227  C     C_R   0.782630 0.026249 0.482842 0.010213
C228  C     C_R   0.234012 0.473755 0.441679 0.009735
H1    H     H_    0.383838 0.801638 0.369472 0.130592
H2    H     H_    0.877062 0.952882 0.579693 0.133352
H3    H     H_    0.411666 0.896492 0.352517 0.166913
H4    H     H_    0.455159 0.923201 0.481860 0.157731
H5    H     H_    0.452901 0.976512 0.428295 0.142168
H6    H     H_    0.527564 0.945007 0.495544 0.141635
H7    H     H_    0.423835 0.374922 0.301058 0.142489
H8    H     H_    0.416979 0.322525 0.347153 0.115728
H9    H     H_    0.517968 0.324252 0.316191 0.191933
H10   H     H_    0.491420 0.270248 0.341441 0.169558
H11   H     H_    0.383541 0.276819 0.221388 0.146122
H12   H     H_    0.445078 0.268803 0.207495 0.148654
H13   H     H_    0.171488 0.546141 0.324199 0.143449
H14   H     H_    0.409632 0.331164 0.194630 0.137829
H15   H     H_    0.047202 0.357668 0.456233 0.161452
H16   H     H_    0.983246 0.334345 0.457604 0.120633
H17   H     H_    0.974068 0.415907 0.351154 0.171052
H18   H     H_    0.906794 0.389776 0.344957 0.164164
H19   H     H_    0.953138 0.420610 0.474579 0.157488
H20   H     H_    0.939655 0.472134 0.412526 0.141560
H21   H     H_    0.019455 0.448103 0.478980 0.148995
H22   H     H_    0.941980 0.634057 0.365072 0.129300
H23   H     H_    0.996035 0.666203 0.452708 0.125886
H24   H     H_    0.172452 0.454143 0.324610 0.143228
H25   H     H_    0.032179 0.604441 0.364450 0.161215
H26   H     H_    0.087443 0.639360 0.448463 0.193520
H27   H     H_    0.058452 0.585500 0.517557 0.153794
H28   H     H_    0.085444 0.546490 0.473972 0.151260
H29   H     H_    0.001492 0.550842 0.432959 0.139364
H30   H     H_    0.590721 0.958634 0.427393 0.116779
H31   H     H_    0.635561 0.901869 0.464263 0.153345
H32   H     H_    0.637325 0.946746 0.526967 0.130963
H33   H     H_    0.604541 0.033801 0.483197 0.113841
H34   H     H_    0.664927 0.078322 0.542420 0.164629
H35   H     H_    0.431555 0.258700 0.044087 0.100916
H36   H     H_    0.620082 0.084537 0.441915 0.118474
H37   H     H_    0.386553 0.458112 0.680355 0.116840
H38   H     H_    0.318137 0.447072 0.681888 0.143400
H39   H     H_    0.341940 0.401641 0.641446 0.151784
H40   H     H_    0.356326 0.533907 0.698523 0.117828
H41   H     H_    0.356876 0.587066 0.648310 0.134319
H42   H     H_    0.289903 0.576041 0.652294 0.165297
H43   H     H_    0.602749 0.492870 0.229372 0.166677
H44   H     H_    0.544403 0.476609 0.245656 0.108443
H45   H     H_    0.534582 0.427768 0.142744 0.096767
H46   H     H_    0.442707 0.710010 0.046275 0.099965
H47   H     H_    0.612717 0.400710 0.207427 0.173211
H48   H     H_    0.499436 0.388976 0.217663 0.122475
H49   H     H_    0.577126 0.359780 0.277479 0.214388
H50   H     H_    0.525145 0.341408 0.181419 0.133172
H51   H     H_    0.625443 0.624560 0.277010 0.161196
H52   H     H_    0.593999 0.626252 0.328567 0.177817
H53   H     H_    0.541667 0.569401 0.181241 0.143170
H54   H     H_    0.507768 0.561207 0.231708 0.146246
H55   H     H_    0.485839 0.655853 0.221829 0.149217
H56   H     H_    0.447434 0.625726 0.132223 0.133123
H57   H     H_    0.973191 0.825070 0.045178 0.103592
H58   H     H_    0.518557 0.662985 0.169243 0.153979
H59   H     H_    0.074504 0.964947 0.220957 0.160306
H60   H     H_    0.032131 0.968604 0.261410 0.113660
H61   H     H_    0.079695 0.870267 0.230080 0.182487
H62   H     H_    0.042710 0.870749 0.277899 0.171225
H63   H     H_    0.944709 0.911009 0.166301 0.141973
H64   H     H_    0.963933 0.850205 0.145309 0.149377
H65   H     H_    0.981644 0.909222 0.117889 0.140470
H66   H     H_    0.125225 0.113367 0.273737 0.152616
H67   H     H_    0.097027 0.121575 0.328016 0.174010
H68   H     H_    0.989150 0.167874 0.046217 0.102920
H69   H     H_    0.033803 0.063556 0.179284 0.152923
H70   H     H_    0.002683 0.060481 0.233195 0.148237
H71   H     H_    0.987741 0.155092 0.224677 0.146955
H72   H     H_    0.947534 0.127243 0.133352 0.140351
H73   H     H_    0.022120 0.160199 0.173835 0.157308
H74   H     H_    0.592158 0.446758 0.439109 0.115242
H75   H     H_    0.534172 0.453872 0.339986 0.104686
H76   H     H_    0.587354 0.399994 0.377516 0.196806
H77   H     H_    0.586188 0.533060 0.442431 0.092282
H78   H     H_    0.594277 0.594625 0.417384 0.153873
H79   H     H_    0.573060 0.323269 0.045129 0.091833
H80   H     H_    0.533689 0.551980 0.346981 0.103147
H81   H     H_    0.088531 0.899360 0.402095 0.175701
H82   H     H_    0.101340 0.950157 0.463446 0.086929
H83   H     H_    0.035587 0.953385 0.366464 0.087325
H84   H     H_    0.087367 0.037140 0.449066 0.093315
H85   H     H_    0.093398 0.096097 0.416040 0.153316
H86   H     H_    0.032377 0.051124 0.351838 0.102448
H87   H     H_    0.864792 0.744995 0.993429 0.130699
H88   H     H_    0.843119 0.780274 0.911261 0.135032
H89   H     H_    0.845972 0.710779 0.911983 0.135094
H90   H     H_    0.598724 0.702356 0.047800 0.084734
H91   H     H_    0.866609 0.230964 0.995498 0.129180
H92   H     H_    0.839641 0.268431 0.913076 0.135007
H93   H     H_    0.850887 0.199747 0.913569 0.139828
H94   H     H_    0.420682 0.143472 0.995514 0.131387
H95   H     H_    0.363474 0.179470 0.912061 0.131916
H96   H     H_    0.421541 0.138873 0.914776 0.139378
H97   H     H_    0.384724 0.819879 0.992814 0.134984
H98   H     H_    0.380211 0.838832 0.911393 0.129365
H99   H     H_    0.343076 0.779833 0.910813 0.133476
H100  H     H_    0.559757 0.131140 0.010114 0.141055
H101  H     H_    0.112240 0.753907 0.047298 0.091453
H102  H     H_    0.621291 0.163275 0.094817 0.119733
H103  H     H_    0.554790 0.134330 0.087976 0.131229
H104  H     H_    0.507624 0.881158 0.002885 0.134922
H105  H     H_    0.508809 0.863516 0.082585 0.130674
H106  H     H_    0.581087 0.860073 0.088147 0.126721
H107  H     H_    0.942120 0.633491 0.006055 0.139408
H108  H     H_    0.022034 0.636802 0.090965 0.118819
H109  H     H_    0.957298 0.668714 0.085089 0.132251
H110  H     H_    0.919600 0.354071 0.004792 0.139263
H111  H     H_    0.942413 0.314886 0.084379 0.128990
H112  H     H_    0.414804 0.361593 0.433710 0.146742
H113  H     H_    0.110267 0.264806 0.045835 0.080051
H114  H     H_    0.999557 0.357822 0.089571 0.123748
H115  H     H_    0.096322 0.883027 0.995270 0.145474
H116  H     H_    0.086091 0.854732 0.060834 0.118502
H117  H     H_    0.001566 0.937967 0.943099 0.174918
H118  H     H_    0.982827 0.907390 0.000811 0.157826
H119  H     H_    0.084792 0.938951 0.114831 0.147950
H120  H     H_    0.036966 0.991286 0.053462 0.142122
H121  H     H_    0.104897 0.969055 0.057508 0.148542
H122  H     H_    0.081603 0.135715 0.048841 0.124177
H123  H     H_    0.129212 0.173386 0.029240 0.130515
H124  H     H_    0.924358 0.596251 0.601889 0.171695
H125  H     H_    0.055239 0.074560 0.948948 0.171467
H126  H     H_    0.102128 0.111558 0.928620 0.173221
H127  H     H_    0.199661 0.095285 0.057037 0.145702
H128  H     H_    0.162313 0.035875 0.009571 0.143366
H129  H     H_    0.152958 0.059279 0.079068 0.145943
H130  H     H_    0.448149 0.409133 0.986432 0.144476
H131  H     H_    0.471812 0.358870 0.052704 0.117550
H132  H     H_    0.333724 0.387402 0.922868 0.178033
H133  H     H_    0.355891 0.335644 0.987940 0.156833
H134  H     H_    0.405228 0.397784 0.092535 0.142842
H135  H     H_    0.866458 0.565197 0.516488 0.111515
H136  H     H_    0.323485 0.414666 0.021863 0.143271
H137  H     H_    0.386528 0.450386 0.029132 0.143409
H138  H     H_    0.459179 0.618628 0.024352 0.132793
H139  H     H_    0.541089 0.624943 0.055309 0.125830
H140  H     H_    0.439854 0.553727 0.931057 0.172141
H141  H     H_    0.520384 0.561325 0.959608 0.172082
H142  H     H_    0.561184 0.531799 0.088962 0.140265
H143  H     H_    0.512855 0.484472 0.018939 0.138669
H144  H     H_    0.479671 0.521649 0.057160 0.133758
H145  H     H_    0.066905 0.597776 0.998194 0.143914
H146  H     H_    0.974527 0.509211 0.659893 0.189733
H147  H     H_    0.098539 0.650791 0.060734 0.118402
H148  H     H_    0.113156 0.630180 0.934342 0.176425
H149  H     H_    0.142247 0.686566 0.992011 0.162453
H150  H     H_    0.211078 0.631608 0.105259 0.146184
H151  H     H_    0.227904 0.621286 0.038074 0.144623
H152  H     H_    0.181694 0.574684 0.047674 0.143671
H153  H     H_    0.099278 0.354195 0.998532 0.134785
H154  H     H_    0.068327 0.371585 0.050934 0.128051
H155  H     H_    0.037940 0.427139 0.910739 0.174551
H156  H     H_    0.007921 0.444016 0.963613 0.163893
H157  H     H_    0.920199 0.480849 0.569357 0.197385
H158  H     H_    0.119087 0.459910 0.075664 0.142880
H159  H     H_    0.099579 0.498843 0.997511 0.139893
H160  H     H_    0.149485 0.442832 0.022800 0.144520
H161  H     H_    0.661300 0.207202 0.002419 0.146912
H162  H     H_    0.650489 0.242516 0.063119 0.116460
H163  H     H_    0.655401 0.287785 0.937797 0.176865
H164  H     H_    0.641290 0.324398 0.995609 0.161601
H165  H     H_    0.747379 0.296725 0.108899 0.145108
H166  H     H_    0.754923 0.328773 0.042291 0.147372
H167  H     H_    0.761597 0.259747 0.050931 0.142027
H168  H     H_    0.962639 0.538015 0.517142 0.142984
H169  H     H_    0.643783 0.759066 0.001906 0.133276
H170  H     H_    0.639174 0.811727 0.052189 0.127423
H171  H     H_    0.638306 0.821904 0.913293 0.172396
H172  H     H_    0.633548 0.874072 0.963108 0.167026
H173  H     H_    0.740507 0.849432 0.077893 0.143254
H174  H     H_    0.744025 0.862712 0.000588 0.144711
H175  H     H_    0.745241 0.797090 0.027713 0.143192
H176  H     H_    0.023899 0.498222 0.592230 0.154182
H177  H     H_    0.018541 0.565232 0.608443 0.148123
H178  H     H_    0.873679 0.395266 0.698207 0.176715
H179  H     H_    0.798896 0.427389 0.653536 0.091325
H180  H     H_    0.884840 0.301006 0.368783 0.129039
H181  H     H_    0.931611 0.477863 0.758420 0.182374
H182  H     H_    0.856005 0.509862 0.716379 0.195715
H183  H     H_    0.829259 0.450435 0.782998 0.143845
H184  H     H_    0.902540 0.484446 0.846722 0.148225
H185  H     H_    0.905031 0.418055 0.825353 0.183042
H186  H     H_    0.429572 0.093168 0.620799 0.164023
H187  H     H_    0.375059 0.064668 0.531738 0.111390
H188  H     H_    0.470937 0.003940 0.676893 0.194265
H189  H     H_    0.422690 0.978599 0.583477 0.200293
H190  H     H_    0.479169 0.031368 0.547474 0.141017
H191  H     H_    0.886629 0.702363 0.366790 0.111150
H192  H     H_    0.534422 0.992700 0.627802 0.152716
H193  H     H_    0.526965 0.060315 0.638954 0.151075
H194  H     H_    0.305653 0.914167 0.659122 0.116142
H195  H     H_    0.344114 0.975239 0.700788 0.145373
H196  H     H_    0.414798 0.873876 0.722224 0.207729
H197  H     H_    0.449926 0.934197 0.767246 0.159817
H198  H     H_    0.393377 0.930274 0.828098 0.137271
H199  H     H_    0.443316 0.874678 0.850289 0.179480
H200  H     H_    0.358330 0.869492 0.782696 0.140505
H201  H     H_    0.669061 0.727361 0.640668 0.149949
H202  H     H_    0.867198 0.045589 0.489363 0.144662
H203  H     H_    0.643884 0.769978 0.682532 0.135178
H204  H     H_    0.631529 0.701021 0.678651 0.116194
H205  H     H_    0.582672 0.152890 0.470573 0.144557
H206  H     H_    0.570265 0.124250 0.535204 0.136327
H207  H     H_    0.508478 0.125602 0.435480 0.110915
H208  H     H_    0.169166 0.227885 0.641003 0.149783
H209  H     H_    0.143778 0.270977 0.682190 0.138960
H210  H     H_    0.131743 0.202018 0.679346 0.115265
H211  H     H_    0.152489 0.711516 0.651584 0.163718
H212  H     H_    0.162967 0.780234 0.649733 0.126214
H213  H     H_    0.866741 0.953568 0.488655 0.144480
H214  H     H_    0.134248 0.753918 0.698905 0.114138
H215  H     H_    0.500186 0.783461 0.653312 0.163467
H216  H     H_    0.485909 0.714885 0.647043 0.133172
H217  H     H_    0.564798 0.739489 0.698114 0.115234
H218  H     H_    0.452007 0.144427 0.554670 0.147535
H219  H     H_    0.388997 0.148311 0.455802 0.126330
H220  H     H_    0.459863 0.113163 0.489616 0.108938
H221  H     H_    0.000121 0.284462 0.652874 0.166874
H222  H     H_    0.985968 0.215881 0.647333 0.133436
H223  H     H_    0.064789 0.240567 0.698154 0.116078
H224  H     H_    0.132563 0.545838 0.373612 0.125240
H225  H     H_    0.972826 0.769150 0.641760 0.155725
H226  H     H_    0.037895 0.724139 0.680943 0.136358
H227  H     H_    0.049598 0.793013 0.681524 0.116785
H228  H     H_    0.327159 0.744158 0.251403 0.122325
H229  H     H_    0.363214 0.688737 0.312307 0.139309
H230  H     H_    0.308948 0.729221 0.315980 0.169760
H231  H     H_    0.430492 0.363168 0.554457 0.148371
H232  H     H_    0.513964 0.348782 0.605600 0.135143
H233  H     H_    0.483399 0.410387 0.559384 0.132853
H234  H     H_    0.826910 0.242602 0.251450 0.118644
H235  H     H_    0.133469 0.453526 0.373998 0.132575
H236  H     H_    0.861886 0.187571 0.313376 0.139377
H237  H     H_    0.808517 0.229742 0.316354 0.170454
H238  H     H_    0.826523 0.765427 0.252750 0.118985
H239  H     H_    0.807585 0.771112 0.318212 0.170963
H240  H     H_    0.859195 0.817629 0.319156 0.140422
H241  H     H_    0.423621 0.748093 0.252275 0.121555
H242  H     H_    0.507712 0.737271 0.317383 0.166889
H243  H     H_    0.453144 0.692579 0.313326 0.083158
H244  H     H_    0.617591 0.365414 0.532357 0.147710
H245  H     H_    0.574398 0.411372 0.547228 0.116622
H246  H     H_    0.877525 0.045249 0.580361 0.133051
H247  H     H_    0.597922 0.350143 0.595499 0.085707
H248  H     H_    0.923143 0.242985 0.252061 0.119755
H249  H     H_    0.007126 0.231780 0.317248 0.168077
H250  H     H_    0.952215 0.188574 0.315088 0.082233
H251  H     H_    0.005513 0.785082 0.318839 0.168741
H252  H     H_    0.921900 0.773347 0.252909 0.119367
H253  H     H_    0.949558 0.823538 0.321644 0.080214
H254  H     H_    0.548247 0.855742 0.464050 0.154274
H255  H     H_    0.480349 0.835315 0.459515 0.122023
H256  H     H_    0.482219 0.919477 0.363562 0.168446
O1    O     O_3   0.749980 0.749980 0.500000 -0.432158
O2    O     O_R   0.612630 0.280380 0.456900 -0.551069
O3    O     O_R   0.112630 0.219620 0.456900 -0.555266
O4    O     O_R   0.112630 0.780380 0.456900 -0.553065
O5    O     O_R   0.698160 0.780350 0.335610 -0.540259
O6    O     O_R   0.698160 0.219650 0.335610 -0.542027
O7    O     O_R   0.198160 0.280350 0.335610 -0.535222
O8    O     O_R   0.198160 0.719650 0.335610 -0.545290
O9    O     O_R   0.801810 0.780340 0.664390 -0.542696
O10   O     O_R   0.801810 0.219660 0.664390 -0.535059
O11   O     O_R   0.301810 0.280340 0.664390 -0.544979
O12   O     O_3   0.749980 0.250020 0.500000 -0.433991
O13   O     O_R   0.301810 0.719660 0.664390 -0.543899
O14   O     O_R   0.637440 0.719620 0.335610 -0.573442
O15   O     O_R   0.637440 0.280380 0.335610 -0.563455
O16   O     O_R   0.137440 0.219620 0.335610 -0.568968
O17   O     O_R   0.137440 0.780380 0.335610 -0.545240
O18   O     O_R   0.862520 0.719620 0.664390 -0.532475
O19   O     O_R   0.862520 0.280380 0.664390 -0.550161
O20   O     O_R   0.362520 0.219620 0.664390 -0.529918
O21   O     O_R   0.362520 0.780380 0.664390 -0.552948
O22   O     O_R   0.844240 0.780350 0.456900 -0.544260
O23   O     O_3   0.249980 0.249980 0.500000 -0.432397
O24   O     O_R   0.844240 0.219650 0.456900 -0.543246
O25   O     O_R   0.344240 0.280350 0.456900 -0.549573
O26   O     O_R   0.344240 0.719650 0.456900 -0.542041
O27   O     O_R   0.655730 0.780340 0.543100 -0.552721
O28   O     O_R   0.655730 0.219660 0.543100 -0.545354
O29   O     O_R   0.155730 0.280340 0.543100 -0.547253
O30   O     O_R   0.155730 0.719660 0.543100 -0.558361
O31   O     O_R   0.758800 0.865790 0.456890 -0.538365
O32   O     O_R   0.758800 0.134210 0.456890 -0.537644
O33   O     O_R   0.258800 0.365790 0.456890 -0.541971
O34   O     O_3   0.249980 0.750020 0.500000 -0.433879
O35   O     O_R   0.258800 0.634210 0.456890 -0.535447
O36   O     O_R   0.698070 0.634180 0.456910 -0.561578
O37   O     O_R   0.698070 0.365820 0.456910 -0.548678
O38   O     O_R   0.198070 0.134180 0.456910 -0.568980
O39   O     O_R   0.198070 0.865820 0.456910 -0.539335
O40   O     O_R   0.741170 0.865780 0.543090 -0.543563
O41   O     O_R   0.741170 0.134220 0.543090 -0.551456
O42   O     O_R   0.241170 0.365780 0.543090 -0.544670
O43   O     O_R   0.241170 0.634220 0.543090 -0.556136
O44   O     O_R   0.801880 0.634180 0.543110 -0.515490
O45   O     O_R   0.887330 0.719620 0.543100 -0.560204
O46   O     O_R   0.801880 0.365820 0.543110 -0.507041
O47   O     O_R   0.301880 0.134180 0.543110 -0.516241
O48   O     O_R   0.301880 0.865820 0.543110 -0.503497
O49   O     O_3   0.863893 0.550807 0.609134 -0.538800
O50   O     O_3   0.857976 0.446979 0.619466 -0.541930
O51   O     O_3   0.361381 0.050783 0.615784 -0.534917
O52   O     O_3   0.356363 0.946308 0.622496 -0.547077
O53   O     O_3   0.482600 0.817494 0.367025 -0.570345
O54   O     O_3   0.502720 0.366988 0.408157 -0.576983
O55   O     O_3   0.983604 0.314118 0.364441 -0.569992
O56   O     O_R   0.887330 0.280380 0.543100 -0.548260
O57   O     O_3   0.986845 0.697075 0.358385 -0.566170
O58   O     O_3   0.639763 0.451239 0.325389 -0.519258
O59   O     O_3   0.636495 0.556292 0.328550 -0.557867
O60   O     O_3   0.129306 0.944800 0.331415 -0.513249
O61   O     O_3   0.128489 0.046762 0.324519 -0.545686
O62   O     O_3   0.018132 0.836276 0.946291 -0.566237
O63   O     O_3   0.031977 0.174204 0.946459 -0.565442
O64   O     O_3   0.430040 0.337617 0.940476 -0.567135
O65   O     O_3   0.470358 0.652477 0.948196 -0.565597
O66   O     O_3   0.023953 0.666076 0.946776 -0.565484
O67   O     O_R   0.387330 0.219620 0.543100 -0.554953
O68   O     O_3   0.002556 0.343193 0.943373 -0.578992
O69   O     O_3   0.571928 0.238443 0.948430 -0.565701
O70   O     O_3   0.557672 0.797911 0.944709 -0.575834
O71   O     O_R   0.387330 0.780380 0.543100 -0.550838
O72   O     O_R   0.612630 0.719620 0.456900 -0.556717
Zn1   Zn    Zn3+2 0.824140 0.706600 0.561580 0.930904
Zn2   Zn    Zn3+2 0.737390 0.206640 0.561570 0.918142
Zn3   Zn    Zn3+2 0.237390 0.293360 0.561570 0.925654
Zn4   Zn    Zn3+2 0.237390 0.706640 0.561570 0.906822
Zn5   Zn    Zn3+2 0.675820 0.706600 0.438430 0.895218
Zn6   Zn    Zn3+2 0.675820 0.293400 0.438430 0.904668
Zn7   Zn    Zn3+2 0.175820 0.206600 0.438430 0.896535
Zn8   Zn    Zn3+2 0.175820 0.793400 0.438430 0.921745
Zn9   Zn    Zn3+2 0.824140 0.293400 0.561580 0.933015
Zn10  Zn    Zn3+2 0.324140 0.206600 0.561580 0.932262
Zn11  Zn    Zn3+2 0.324140 0.793400 0.561580 0.927054
Zn12  Zn    Zn3+2 0.762580 0.793360 0.438420 0.924070
Zn13  Zn    Zn3+2 0.762580 0.206640 0.438420 0.923903
Zn14  Zn    Zn3+2 0.262580 0.293360 0.438420 0.924022
Zn15  Zn    Zn3+2 0.262580 0.706640 0.438420 0.927392
Zn16  Zn    Zn3+2 0.737390 0.793360 0.561570 0.924632

loop_
_geom_bond_atom_site_label_1
_geom_bond_atom_site_label_2
_ccdc_geom_bond_type
C168  C175  S    
C205  C220  S    
C126  C127  S    
C63   C202  S    
C153  C166  S    
C190  C225  S    
C39   O49   S    
O1    Zn1   S    
C47   H178  S    
C117  H109  S    
O27   Zn16  S    
C16   H24   S    
C63   H222  S    
C71   H247  S    
C69   H240  S    
C43   H135  S    
C17   C191  S    
C145  C184  T    
C18   C192  S    
C104  H73   S    
C67   H234  S    
C52   H192  S    
C59   H208  S    
C22   O41   A    
C112  C124  S    
C164  C186  S    
O48   Zn11  S    
C9    C88   S    
C128  H134  S    
C138  H160  S    
C95   O59   S    
C107  H82   S    
C143  C144  S    
C72   C224  S    
C108  H85   S    
C77   H7    S    
C87   H30   S    
C89   H38   S    
C122  H122  S    
C20   C194  S    
C48   H182  S    
O39   Zn8   S    
O46   Zn9   S    
C70   H241  S    
C188  C210  A    
C54   H196  S    
C141  H165  S    
C19   O29   A    
C138  H158  S    
C62   H219  S    
C50   H187  S    
C58   H205  S    
C35   C109  S    
C118  H110  S    
O21   Zn11  S    
C68   C155  S    
C74   H254  S    
C83   H21   S    
C220  O67   A    
C27   O37   A    
C112  O6    A    
C72   H249  S    
C157  C168  S    
C51   H189  S    
C190  C194  A    
C131  H144  S    
O10   Zn2   S    
O9    Zn16  S    
C189  C224  S    
O15   Zn6   S    
C51   C52   S    
C110  H91   S    
C13   C162  S    
C71   C223  S    
C140  C141  S    
C74   C75   S    
C97   H56   S    
C87   H31   S    
C92   H43   S    
C30   C34   A    
C12   C227  S    
O30   Zn4   S    
C196  O60   S    
C209  C213  S    
O25   Zn14  S    
O44   Zn1   S    
C53   O52   S    
C75   C76   S    
C62   C201  S    
C65   C213  S    
C56   C195  S    
C213  C222  S    
O8    Zn15  S    
C208  C212  A    
O14   Zn5   S    
C166  C177  S    
C150  O70   S    
C57   C173  S    
C106  H80   S    
C75   H256  S    
C214  H112  S    
C46   C110  S    
C189  C211  A    
O24   Zn13  S    
C25   O35   A    
C154  C167  S    
C224  O55   S    
C148  C153  S    
C213  H1    S    
C208  C217  S    
C46   C153  S    
C16   C228  S    
C26   C34   S    
C53   H195  S    
C65   H230  S    
C128  H136  S    
C139  C140  S    
C14   C226  S    
C58   H207  S    
C187  C222  S    
C129  H138  S    
C57   C154  S    
C33   C38   A    
C223  O54   S    
C24   C46   S    
C130  C131  S    
C40   O50   S    
C163  O17   A    
C118  H114  S    
C123  H126  S    
C169  O9    A    
C64   H225  S    
C81   H15   S    
C57   C111  S    
C141  H167  S    
C55   H199  S    
C139  H161  S    
C132  H145  S    
C14   H2    S    
C123  C125  S    
C115  H102  S    
C11   C91   S    
C177  H68   S    
O23   Zn7   S    
C98   C99   S    
C83   H19   S    
C108  H84   S    
C31   C36   A    
C28   O47   A    
C76   H6    S    
O34   Zn8   S    
C50   O51   S    
C114  H97   S    
C158  C165  S    
C120  H117  S    
C117  H107  S    
C131  H142  S    
C2    C150  S    
C103  H70   S    
C135  C183  T    
C150  C157  S    
C204  C221  S    
C65   H228  S    
C42   O52   S    
C160  C173  S    
C116  H105  S    
C54   H197  S    
C129  O65   S    
C111  H96   S    
C97   H58   S    
C88   H34   S    
C23   O42   A    
C85   C86   S    
C5    C9    A    
C27   O46   A    
C26   O44   A    
C81   H16   S    
C166  O63   S    
C47   H179  S    
C172  O13   A    
C13   C35   S    
C2    C68   S    
C29   O39   A    
C63   H223  S    
C170  O19   A    
C119  H115  S    
C57   C218  S    
C86   H28   S    
C114  H98   S    
C136  H154  S    
C10   C89   S    
C17   O27   A    
C60   H214  S    
C128  H137  S    
C125  H127  S    
C106  H78   S    
C160  C218  S    
C122  O63   S    
C99   C100  S    
C33   C196  S    
C107  H83   S    
C29   C38   S    
C76   H4    S    
O23   Zn3   S    
C159  H113  S    
O28   Zn2   S    
C71   H245  S    
C200  C204  A    
C171  O20   A    
C105  H74   S    
C14   H213  S    
C84   H23   S    
C46   C177  S    
C130  H140  S    
C69   C216  S    
C2    C116  S    
O43   Zn4   S    
C107  C196  S    
C126  H130  S    
C113  C172  S    
C45   H177  S    
C156  H79   S    
C82   H18   S    
C34   C39   A    
C30   C185  S    
C156  C160  S    
C64   H227  S    
C39   C40   A    
C145  C163  S    
C151  C165  S    
C19   O3    A    
C5    C227  A    
C20   O30   A    
C32   C207  S    
C60   H212  S    
C147  C151  S    
C132  H147  S    
C93   H45   S    
C20   O4    A    
C94   H50   S    
C45   H176  S    
C115  H100  S    
C49   H184  S    
C104  H72   S    
C152  O7    A    
C32   C37   A    
C121  H119  S    
O7    Zn14  S    
C168  O65   S    
C134  H151  S    
O13   Zn4   S    
O47   Zn10  S    
C144  H174  S    
C150  C155  S    
C109  H88   S    
C13   C147  S    
C133  H148  S    
C120  C121  S    
C88   H36   S    
O12   Zn6   S    
C129  C130  S    
O19   Zn9   S    
C54   C55   S    
C163  O8    A    
C136  O68   S    
C142  C143  S    
O34   Zn15  S    
C112  O15   A    
O37   Zn6   S    
O6    Zn13  S    
C1    O5    A    
C136  C137  S    
C63   H221  S    
O42   Zn3   S    
C69   H239  S    
C77   O54   S    
C203  C208  A    
C96   H53   S    
C47   O50   S    
C188  C192  A    
C101  C180  T    
C61   H217  S    
C205  C210  A    
C107  H81   S    
C222  O53   S    
C3    C228  A    
C108  H86   S    
C89   H37   S    
C122  H123  S    
O5    Zn12  S    
C37   C41   A    
C102  C103  S    
C191  C195  A    
O1    Zn5   S    
C10   C11   A    
C56   H203  S    
C70   H242  S    
C188  C223  S    
C189  C193  A    
C92   O58   S    
C226  C227  A    
C18   O2    A    
C23   O33   A    
C159  C164  S    
C21   O31   A    
C62   H220  S    
C111  H94   S    
C18   O28   A    
C1    C135  S    
C147  C158  S    
C140  H163  S    
C61   H216  S    
C31   C174  S    
C115  H103  S    
C59   H210  S    
O12   Zn2   S    
C15   H13   S    
C58   C197  S    
C74   H255  S    
C154  C180  S    
C41   C42   A    
O34   Zn11  S    
C142  O70   S    
C91   H42   S    
C72   H250  S    
C215  C224  S    
C43   H124  S    
C142  H169  S    
C119  H116  S    
C102  H66   S    
C131  H143  S    
C77   C78   S    
C98   H59   S    
C165  C176  S    
C85   H26   S    
C35   C151  S    
C66   H231  S    
C80   H11   S    
C110  H92   S    
C116  H104  S    
C93   H47   S    
C3    C7    A    
C97   H55   S    
C174  C185  S    
C94   H48   S    
C30   C31   A    
C92   H44   S    
C143  H171  S    
C127  H133  S    
O38   Zn7   S    
C59   C198  S    
C193  C198  A    
C190  C212  A    
C121  H121  S    
C221  O26   A    
C221  O71   A    
C73   H252  S    
C100  H65   S    
C6    C228  A    
C204  C209  A    
C115  C218  S    
C95   H52   S    
C4    C226  A    
C99   H62   S    
C176  H57   S    
O17   Zn8   S    
C4    C8    A    
C167  C173  S    
O23   Zn14  S    
O22   Zn12  S    
C185  O59   S    
C199  C203  A    
C137  H155  S    
C171  O11   A    
C73   H253  S    
O35   Zn15  S    
C68   C175  S    
C67   H237  S    
O3    Zn7   S    
C215  H180  S    
C130  H141  S    
C84   H22   S    
C133  H149  S    
C53   H194  S    
C65   H229  S    
C84   C85   S    
C58   H206  S    
O16   Zn7   S    
O12   Zn13  S    
O29   Zn3   S    
C109  H89   S    
C53   C54   S    
O20   Zn10  S    
C77   H8    S    
C81   C82   S    
C165  O62   S    
C89   H39   S    
C148  C159  S    
C66   C214  S    
C149  C154  S    
C162  C184  S    
C24   C164  S    
C64   H226  S    
C155  C168  S    
C141  H166  S    
C155  C181  S    
C50   C51   S    
C62   H218  S    
C192  C197  A    
C50   H186  S    
C217  O45   A    
C119  O62   S    
C127  H132  S    
C64   C203  S    
C139  O69   S    
C78   H9    S    
C133  C134  S    
C126  O64   S    
C26   O36   A    
C35   C176  S    
C127  C128  S    
C174  O58   S    
C157  C161  S    
C172  O21   A    
C28   O38   A    
C44   C45   S    
C120  H118  S    
C140  H164  S    
C103  H69   S    
C158  H101  S    
C21   O40   A    
C24   C118  S    
C146  C186  T    
C116  H106  S    
C106  C185  S    
C111  H95   S    
C87   H32   S    
C6    C10   A    
C13   C117  S    
O56   Zn9   S    
O12   Zn9   S    
C27   C36   S    
C216  C225  S    
C7    C25   S    
C32   C33   A    
C79   C169  S    
C29   O48   A    
C170  O10   A    
C220  O25   A    
O4    Zn8   S    
C110  H93   S    
O2    Zn6   S    
O45   Zn1   S    
C12   H246  S    
C92   C93   S    
C70   C222  S    
C80   H14   S    
C101  C171  S    
C78   C80   S    
C114  H99   S    
C148  O68   S    
C17   O72   A    
C82   C83   S    
C217  O22   A    
C103  C104  S    
C157  H90   S    
C149  C218  S    
C143  H172  S    
C167  O64   S    
O36   Zn5   S    
C132  O66   S    
C225  O57   S    
O72   Zn5   S    
C8    C9    A    
C211  C215  S    
C161  C183  S    
C93   C94   S    
C41   O51   S    
C52   H193  S    
C55   H200  S    
C67   C215  S    
C95   C96   S    
C43   O49   S    
C44   H146  S    
C43   C44   S    
C126  H131  S    
C78   H10   S    
C86   H29   S    
C48   H181  S    
C129  H139  S    
C7    C11   A    
C25   O43   A    
O34   Zn4   S    
O33   Zn14  S    
C102  O61   S    
C123  H125  S    
C15   H224  S    
C28   C37   S    
O26   Zn15  S    
C149  C156  S    
C38   C42   A    
C100  H63   S    
C219  O24   A    
C104  H71   S    
C105  H75   S    
O41   Zn2   S    
C161  C175  S    
O67   Zn10  S    
C162  C176  S    
C15   C16   S    
C216  H191  S    
C136  H153  S    
C12   H202  S    
C139  H162  S    
C60   C199  S    
C206  C211  A    
C49   H183  S    
C5    C22   S    
C212  C216  S    
C132  C133  S    
O32   Zn13  S    
C214  C223  S    
C197  C201  A    
C76   H5    S    
C147  O66   S    
O1    Zn16  S    
C187  C191  A    
C134  H152  S    
C117  H108  S    
C100  H64   S    
C118  H111  S    
C108  C207  S    
C149  O69   S    
C2    C161  S    
C160  C182  S    
C98   H60   S    
C88   H33   S    
C125  H129  S    
C113  C181  T    
C95   H51   S    
C1    O14   A    
C47   C48   S    
C187  C209  A    
C36   C40   A    
O18   Zn1   S    
C24   C148  S    
C134  H150  S    
C144  H173  S    
C151  C178  S    
C69   H238  S    
C156  C167  S    
C86   H27   S    
C210  C214  S    
C96   H54   S    
C67   H236  S    
C52   H190  S    
C105  H76   S    
O40   Zn16  S    
C83   H20   S    
C84   O57   S    
C198  C202  A    
C125  H128  S    
O31   Zn12  S    
C106  H77   S    
C194  C199  A    
C81   O55   S    
C16   H235  S    
C96   C97   S    
C90   C170  S    
C79   C178  T    
C119  C120  S    
C75   H3    S    
O1    Zn12  S    
C56   H204  S    
C146  C152  S    
C70   H243  S    
O71   Zn11  S    
C12   C14   S    
C19   C193  S    
C105  C174  S    
O11   Zn3   S    
C51   H188  S    
C61   H215  S    
C3    C15   S    
C73   H251  S    
C195  C200  A    
C59   H209  S    
C90   C179  T    
C48   C49   S    
C201  C205  A    
C82   H17   S    
C138  H159  S    
C74   O53   S    
C153  C179  S    
C91   H41   S    
C71   H244  S    
C142  H170  S    
C152  O16   A    
C102  H67   S    
C169  O18   A    
O23   Zn10  S    
C137  C138  S    
C56   H201  S    
C55   H198  S    
C85   H25   S    
C159  C166  S    
C8    C87   S    
C66   H232  S    
C80   H12   S    
C60   H211  S    
C44   H157  S    
C175  H46   S    
C219  O56   A    
C94   H49   S    
C73   C225  S    
C4    C21   S    
C49   H185  S    
C207  O61   S    
C144  H175  S    
C6    C23   S    
C98   O60   S    
C196  C207  S    
C61   C200  S    
C72   H248  S    
C121  H120  S    
C173  H35   S    
C158  C162  S    
C137  H156  S    
C124  C182  T    
C202  C206  A    
C66   H233  S    
C22   O32   A    
C122  C123  S    
C99   H61   S    
C45   H168  S    
C109  H87   S    
C164  C177  S    
C91   H40   S    
C206  C219  S    
C68   C114  S    
