data_mof_unit_26630.cif
_audit_creation_date              2012-12-10T17:35:50-0500
_audit_creation_method            fapswitch 2.2
_symmetry_space_group_name_H-M    P1
_symmetry_Int_Tables_number       1
_space_group_crystal_system       triclinic
_cell_length_a                    10.719548
_cell_length_b                    12.049765
_cell_length_c                    13.088072
_cell_angle_alpha                 89.183021
_cell_angle_beta                  90.292502
_cell_angle_gamma                 85.242447
_cell_volume                      1684.53103464

loop_
_atom_site_label
_atom_site_type_symbol
_atom_type_description
_atom_site_fract_x
_atom_site_fract_y
_atom_site_fract_z
_atom_type_partial_charge
C1    C     C_R   0.494227 0.517985 0.699975 0.949272
C2    C     C_R   0.622971 0.151991 0.570754 0.534193
C3    C     C_R   0.546876 0.853425 0.542375 -0.029580
C4    C     C_R   0.442983 0.147287 0.466072 0.004107
C5    C     C_R   0.545842 0.971496 0.530573 -0.187195
C6    C     C_R   0.457354 0.027928 0.465102 -0.151999
C7    C     C_R   0.742788 0.499510 0.499785 1.042209
C8    C     C_R   0.256695 0.500656 0.501475 0.987932
C9    C     C_3   0.959470 0.469941 0.594956 0.419561
C10   C     C_3   0.036914 0.530884 0.411740 0.403725
C11   C     C_3   0.030666 0.573051 0.573304 0.386106
C12   C     C_R   0.500085 0.482195 0.299913 1.023278
C13   C     C_3   0.967220 0.427143 0.433479 0.342440
C14   C     C_3   0.121115 0.501522 0.504817 -0.300387
C15   C     C_3   0.877452 0.498959 0.500981 -0.283317
C16   C     C_3   0.050632 0.396103 0.527834 -0.343390
C17   C     C_3   0.947002 0.603766 0.479440 -0.334366
C18   C     C_R   0.485724 0.477485 0.190118 -0.287015
C19   C     C_R   0.485033 0.525054 0.809980 -0.255680
C20   C     C_R   0.486055 0.648619 0.952668 0.602984
C21   C     C_R   0.443856 0.361512 0.049175 0.588076
C22   C     C_R   0.511504 0.626386 0.851166 -0.315342
C23   C     C_R   0.441949 0.439874 0.873601 0.365392
C24   C     C_R   0.439554 0.382119 0.152295 -0.349748
C25   C     C_3   0.981508 0.399493 0.761336 0.184952
C26   C     C_3   0.013863 0.274451 0.747015 -0.765318
C27   C     C_3   0.989804 0.596985 0.246784 0.120285
C28   C     C_3   0.942149 0.720180 0.257708 -0.730559
C29   C     C_3   0.388596 0.823984 0.912395 0.038282
C30   C     C_3   0.305112 0.915755 0.961948 -0.649601
C31   C     C_3   0.575335 0.205399 0.038573 0.144692
C32   C     C_3   0.587771 0.082278 0.012974 -0.691642
C33   C     C_3   0.687361 0.235087 0.715748 0.120769
C34   C     C_R   0.516141 0.563951 0.122995 0.454726
C35   C     C_3   0.744162 0.144605 0.788667 -0.860925
C36   C     C_3   0.260105 0.772666 0.300853 0.180562
C37   C     C_3   0.246692 0.721384 0.195690 -0.676505
C38   C     C_R   0.455994 0.451177 0.980047 -0.185861
C39   C     C_R   0.483391 0.556414 0.019540 -0.189079
C40   C     C_R   0.400079 0.963676 0.391040 0.317370
C41   C     C_R   0.639638 0.033217 0.572229 0.315064
C42   C     C_R   0.410998 0.844198 0.400856 0.481135
H1    H     H_    0.096529 0.312022 0.545151 0.232667
H2    H     H_    0.065799 0.446261 0.766519 0.199787
H3    H     H_    0.952234 0.241685 0.688477 0.299629
H4    H     H_    0.111034 0.256920 0.720651 0.294632
H5    H     H_    0.004250 0.228733 0.820450 0.233015
H6    H     H_    0.911679 0.542817 0.249846 0.220691
H7    H     H_    0.029272 0.585798 0.169006 0.171677
H8    H     H_    0.919544 0.758005 0.181288 0.246226
H9    H     H_    0.856336 0.730031 0.304008 0.274888
H10   H     H_    0.011616 0.768362 0.295895 0.240385
H11   H     H_    0.634109 0.829901 0.196592 0.376501
H12   H     H_    0.901618 0.687951 0.464769 0.254962
H13   H     H_    0.259734 0.448806 0.709789 0.346377
H14   H     H_    0.324460 0.774779 0.867216 0.175658
H15   H     H_    0.453128 0.863675 0.859503 0.165039
H16   H     H_    0.362297 0.975030 0.000182 0.298239
H17   H     H_    0.247672 0.962592 0.902204 0.210148
H18   H     H_    0.240920 0.879975 0.017256 0.251054
H19   H     H_    0.602578 0.212017 0.120416 0.185269
H20   H     H_    0.642114 0.249806 0.991768 0.110943
H21   H     H_    0.545872 0.068534 0.937033 0.264160
H22   H     H_    0.688176 0.051090 0.012288 0.205974
H23   H     H_    0.415840 0.316233 0.203362 0.257059
H24   H     H_    0.540454 0.034359 0.072032 0.298933
H25   H     H_    0.586154 0.247768 0.730245 0.197694
H26   H     H_    0.726683 0.314454 0.734784 0.208165
H27   H     H_    0.838755 0.112433 0.765062 0.298065
H28   H     H_    0.754363 0.179301 0.865520 0.211262
H29   H     H_    0.682733 0.075128 0.793072 0.270209
H30   H     H_    0.205614 0.855103 0.301965 0.164940
H31   H     H_    0.220594 0.719712 0.360035 0.191591
H32   H     H_    0.258641 0.629243 0.201551 0.238440
H33   H     H_    0.155363 0.748751 0.160022 0.194522
H34   H     H_    0.539374 0.693338 0.802497 0.190496
H35   H     H_    0.319575 0.748068 0.143533 0.318615
H36   H     H_    0.166503 0.099144 0.219900 0.410060
H37   H     H_    0.874550 0.905327 0.740630 0.397210
H38   H     H_    0.369550 0.192584 0.421823 0.222528
H39   H     H_    0.607886 0.809381 0.598166 0.217101
H40   H     H_    0.100618 0.851089 0.651253 0.382529
H41   H     H_    0.023322 0.356384 0.204741 0.356884
H42   H     H_    0.934095 0.410951 0.836156 0.177497
N1    N     N_R   0.523490 0.207800 0.519350 -0.177602
N2    N     N_R   0.476510 0.792200 0.480650 -0.163291
O1    O     O_R   0.506270 0.421700 0.658830 -0.614967
O2    O     O_2   0.190745 0.643618 0.715224 -0.388985
O3    O     O_3   0.080071 0.797420 0.598340 -0.500949
O4    O     O_2   0.903223 0.219487 0.401552 -0.172222
O5    O     O_2   0.805153 0.365920 0.289397 -0.340694
O6    O     O_3   0.039994 0.300184 0.260096 -0.508795
O7    O     O_3   0.897027 0.443872 0.685831 -0.631531
O8    O     O_3   0.086446 0.563431 0.317393 -0.655514
O9    O     O_2   0.696639 0.616644 0.253151 -0.356442
O10   O     O_2   0.724727 0.659780 0.072716 -0.315108
O11   O     O_3   0.564662 0.786584 0.173932 -0.428951
O12   O     O_R   0.493730 0.578300 0.341170 -0.535620
O13   O     O_2   0.407085 0.224725 0.826493 -0.284293
O14   O     O_2   0.231238 0.337760 0.897571 -0.296300
O15   O     O_3   0.287744 0.368956 0.708857 -0.565472
O16   O     O_3   0.459722 0.757518 0.986733 -0.555913
O17   O     O_3   0.451340 0.251597 0.019366 -0.520771
O18   O     O_3   0.715008 0.211630 0.612334 -0.551220
O19   O     O_3   0.388500 0.779368 0.318291 -0.536357
O20   O     O_2   0.431205 0.121277 0.248585 -0.332870
O21   O     O_2   0.351874 0.952117 0.187601 -0.302592
O22   O     O_3   0.200461 0.087695 0.290131 -0.509174
O23   O     O_R   0.491200 0.609310 0.646410 -0.627180
O24   O     O_2   0.817782 0.877601 0.516229 -0.267219
O25   O     O_2   0.891042 0.042883 0.593156 -0.255170
O26   O     O_3   0.790111 0.898632 0.711514 -0.562047
O27   O     O_R   0.508800 0.390690 0.353590 -0.617386
O28   O     O_R   0.693580 0.406210 0.506230 -0.546945
O29   O     O_R   0.306420 0.593790 0.493770 -0.612403
O30   O     O_R   0.678510 0.593830 0.493810 -0.616641
O31   O     O_R   0.321490 0.406170 0.506190 -0.608714
O32   O     O_2   0.966313 0.690994 0.739959 -0.260068
S1    S     S_3+6 0.068626 0.676629 0.662095 0.023830
S2    S     S_3+6 0.923946 0.325513 0.344682 0.066572
S3    S     S_3+6 0.630238 0.656821 0.157014 0.051020
S4    S     S_3+6 0.341420 0.339602 0.827166 0.022267
S5    S     S_3+6 0.347744 0.031288 0.274811 0.001995
S6    S     S_3+6 0.790088 0.963426 0.596806 0.048724
Zn1   Zn    Zn3+2 0.510060 0.374730 0.508290 1.067515
Zn2   Zn    Zn3+2 0.489940 0.625270 0.491710 1.056153

loop_
_geom_bond_atom_site_label_1
_geom_bond_atom_site_label_2
_ccdc_geom_bond_type
C27   H6    S    
C1    O1    A    
C37   H32   S    
C25   O7    S    
N2    Zn2   S    
C33   O18   S    
C31   H19   S    
N1    Zn1   S    
O21   S5    D    
C11   S1    S    
H41   O6    S    
H40   O3    S    
O10   S3    D    
C18   C24   A    
C7    O28   A    
C36   C37   S    
C9    C16   S    
O26   S6    S    
O29   Zn2   S    
C38   C39   A    
C33   C35   S    
C11   C14   S    
O27   Zn1   S    
C10   O8    S    
C10   C17   S    
C2    N1    A    
H36   O22   S    
C24   H23   S    
O32   S1    D    
O11   S3    S    
C8    O29   A    
O24   S6    D    
C28   H8    S    
C21   C38   A    
O3    S1    S    
C35   H28   S    
C30   H18   S    
O20   S5    D    
C3    H39   S    
C25   H42   S    
C42   N2    A    
C22   H34   S    
C12   O12   A    
C26   H3    S    
C1    O23   A    
O9    S3    D    
C40   C42   A    
C37   H33   S    
C35   H29   S    
O30   Zn2   S    
C3    N2    A    
C31   H20   S    
C25   H2    S    
C8    O31   A    
C23   S4    S    
C1    C19   S    
C34   C39   A    
C19   C22   A    
C32   H22   S    
O14   S4    D    
C4    C6    A    
C10   C14   S    
C20   C39   A    
C4    N1    A    
H11   O11   S    
C25   C26   S    
C37   H35   S    
O4    S2    D    
C7    O30   A    
C19   C23   A    
C29   C30   S    
C18   C34   A    
C31   C32   S    
C2    O18   S    
C30   H17   S    
O2    S1    D    
C9    C11   S    
C16   H1    S    
C26   H5    S    
O13   S4    D    
H37   O26   S    
C20   C22   A    
C34   S3    S    
C13   C15   S    
C14   C16   S    
C21   C24   A    
O22   S5    S    
C9    O7    S    
O1    Zn1   S    
C13   S2    S    
C33   H25   S    
C32   H24   S    
C12   O27   A    
O28   Zn1   S    
C40   S5    S    
C5    C41   A    
C11   C17   S    
C8    C14   S    
C36   O19   S    
C4    H38   S    
C32   H21   S    
C29   H15   S    
C3    C5    A    
C10   C13   S    
C15   C17   S    
C29   H14   S    
C23   C38   A    
H13   O15   S    
O15   S4    S    
O6    S2    S    
C28   H10   S    
C5    C6    A    
C41   S6    S    
C30   H16   S    
C7    C15   S    
C28   H9    S    
C29   O16   S    
C6    C40   A    
C9    C15   S    
C42   O19   S    
C36   H31   S    
C26   H4    S    
C21   O17   S    
C36   H30   S    
O23   Zn2   S    
O12   Zn2   S    
C20   O16   S    
C35   H27   S    
C13   C16   S    
C12   C18   S    
C27   C28   S    
O5    S2    D    
C27   O8    S    
C2    C41   A    
O25   S6    D    
O31   Zn1   S    
C17   H12   S    
C27   H7    S    
C33   H26   S    
C31   O17   S    
