data_mof_unit_58496.cif
_audit_creation_date              2012-12-10T19:13:32-0500
_audit_creation_method            fapswitch 2.2
_symmetry_space_group_name_H-M    P1
_symmetry_Int_Tables_number       1
_space_group_crystal_system       triclinic
_cell_length_a                    9.839576
_cell_length_b                    10.816364
_cell_length_c                    16.637114
_cell_angle_alpha                 88.673165
_cell_angle_beta                  84.897905
_cell_angle_gamma                 87.82595
_cell_volume                      1762.0287363

loop_
_atom_site_label
_atom_site_type_symbol
_atom_type_description
_atom_site_fract_x
_atom_site_fract_y
_atom_site_fract_z
_atom_type_partial_charge
C1    C     C_R   0.499140 0.743200 0.501349 0.971354
C2    C     C_R   0.529396 0.550651 0.263293 -0.128123
C3    C     C_3   0.416593 0.937237 0.432804 0.092911
C4    C     C_R   0.480452 0.499391 0.653331 0.927241
C5    C     C_3   0.404658 0.079894 0.434357 0.790284
C6    C     C_3   0.462139 0.935454 0.589444 0.601994
C7    C     C_3   0.652252 0.928037 0.474826 0.171736
C8    C     C_3   0.502360 0.881947 0.501690 -0.173371
C9    C     C_3   0.506234 0.124453 0.495060 -0.164356
C10   C     C_3   0.467110 0.078912 0.583199 -0.671086
C11   C     C_3   0.653106 0.071753 0.469688 0.136603
C12   C     C_R   0.354198 0.576565 0.776803 -0.296858
C13   C     C_3   0.914160 0.626183 0.484080 -0.018168
C14   C     C_3   0.074481 0.630615 0.494117 0.667973
C15   C     C_3   0.911945 0.451345 0.579500 0.314051
C16   C     C_R   0.502747 0.259144 0.496655 0.961168
C17   C     C_3   0.932720 0.418749 0.438406 -0.248737
C18   C     C_3   0.073681 0.443160 0.575677 -0.305326
C19   C     C_3   0.093720 0.430418 0.433325 -0.292343
C20   C     C_R   0.518942 0.508072 0.347051 0.903312
C21   C     C_R   0.465271 0.506999 0.740916 -0.093154
C22   C     C_R   0.562234 0.449450 0.788140 0.413908
C23   C     C_R   0.430692 0.670034 0.156457 0.439233
C24   C     C_R   0.547806 0.464849 0.872675 0.125895
C25   C     C_R   0.441380 0.544818 0.906171 0.096652
C26   C     C_R   0.343214 0.596408 0.858891 -0.182816
C27   C     C_3   0.793753 0.549556 0.083885 -0.914569
C28   C     C_3   0.323403 0.898557 0.631407 -0.914589
C29   C     C_3   0.878164 0.678886 0.400057 -0.791639
C30   C     C_3   0.090439 0.706444 0.570474 -0.945230
C31   C     C_3   0.640970 0.392675 0.926042 -0.937826
C32   C     C_R   0.422029 0.623547 0.235553 -0.313825
C33   C     C_R   0.651048 0.532989 0.214234 -0.209208
C34   C     C_R   0.661729 0.577311 0.134536 0.157141
C35   C     C_R   0.547025 0.639508 0.104283 0.112291
C36   C     C_2   0.433459 0.579253 0.990282 -0.160242
C37   C     C_2   0.533200 0.643265 0.017431 -0.121398
H1    H     H_    0.474194 0.911165 0.374551 0.176790
H2    H     H_    0.906980 0.320450 0.450676 0.213076
H3    H     H_    0.736805 0.482103 0.237409 0.173169
H4    H     H_    0.894673 0.439169 0.378544 0.169325
H5    H     H_    0.129514 0.473515 0.374294 0.192072
H6    H     H_    0.143143 0.336485 0.433485 0.219231
H7    H     H_    0.110827 0.344668 0.578542 0.216752
H8    H     H_    0.614386 0.678031 0.975449 0.151480
H9    H     H_    0.260265 0.655321 0.885299 0.171274
H10   H     H_    0.278701 0.620155 0.740738 0.170009
H11   H     H_    0.353170 0.540239 0.031193 0.174027
H12   H     H_    0.369681 0.124358 0.608328 0.196245
H13   H     H_    0.740874 0.362555 0.784980 0.352259
H14   H     H_    0.798411 0.594382 0.023349 0.238691
H15   H     H_    0.880224 0.583626 0.114752 0.249659
H16   H     H_    0.808453 0.448019 0.076615 0.252649
H17   H     H_    0.233649 0.902316 0.477841 0.353403
H18   H     H_    0.414940 0.213796 0.352613 0.350231
H19   H     H_    0.239889 0.099126 0.511427 0.309933
H20   H     H_    0.235090 0.932019 0.600191 0.205936
H21   H     H_    0.325636 0.797872 0.643084 0.247382
H22   H     H_    0.307959 0.940803 0.691969 0.236590
H23   H     H_    0.682750 0.892680 0.413381 0.146082
H24   H     H_    0.767606 0.937042 0.567373 0.370055
H25   H     H_    0.798496 0.093621 0.384240 0.341122
H26   H     H_    0.543884 0.930012 0.693962 0.342076
H27   H     H_    0.946503 0.638996 0.349823 0.224005
H28   H     H_    0.773437 0.662911 0.386980 0.277716
H29   H     H_    0.887965 0.780578 0.396933 0.232739
H30   H     H_    0.100038 0.771362 0.419367 0.362611
H31   H     H_    0.014119 0.683226 0.621178 0.180825
H32   H     H_    0.189739 0.684421 0.592928 0.278682
H33   H     H_    0.074293 0.806663 0.558275 0.237123
H34   H     H_    0.331140 0.644287 0.275350 0.204538
H35   H     H_    0.766645 0.336703 0.609528 0.406997
H36   H     H_    0.250341 0.751466 0.171155 0.341287
H37   H     H_    0.644750 0.293239 0.910482 0.258222
H38   H     H_    0.745346 0.429079 0.917481 0.237620
H39   H     H_    0.605203 0.396534 0.991016 0.266629
H40   H     H_    0.723493 0.108062 0.511828 0.157169
H41   H     H_    0.544196 0.111865 0.622216 0.209464
H42   H     H_    0.858226 0.686360 0.529185 0.234648
H43   H     H_    0.872397 0.512940 0.629684 0.114689
H44   H     H_    0.108538 0.483365 0.630699 0.143121
N1    N     N_3   0.861190 0.500250 0.501720 -0.115990
N2    N     N_3   0.138550 0.503270 0.501080 -0.077944
O1    O     O_R   0.383960 0.685090 0.500020 -0.555994
O2    O     O_3   0.290657 0.885338 0.427732 -0.702482
O3    O     O_3   0.443437 0.124902 0.355661 -0.699662
O4    O     O_3   0.267784 0.121224 0.454614 -0.768017
O5    O     O_3   0.752356 0.879726 0.523754 -0.751245
O6    O     O_3   0.698557 0.112094 0.391207 -0.731005
O7    O     O_3   0.559814 0.889053 0.640902 -0.738333
O8    O     O_3   0.144298 0.688963 0.427143 -0.697916
O9    O     O_3   0.866400 0.331213 0.597468 -0.765604
O10   O     O_3   0.324336 0.739624 0.127204 -0.759097
O11   O     O_R   0.616040 0.685320 0.499960 -0.595501
O12   O     O_R   0.370240 0.499890 0.615830 -0.661043
O13   O     O_R   0.602330 0.500120 0.615770 -0.602673
O14   O     O_R   0.383960 0.314680 0.500040 -0.622895
O15   O     O_R   0.616040 0.314910 0.499980 -0.614729
O16   O     O_R   0.397670 0.499880 0.384230 -0.596322
O17   O     O_R   0.629760 0.500110 0.384170 -0.644581
O18   O     O_3   0.665250 0.375783 0.750091 -0.796781
Zn1   Zn    Zn3+2 0.345040 0.499850 0.500040 0.960423
Zn2   Zn    Zn3+2 0.654960 0.500150 0.499960 0.948904

loop_
_geom_bond_atom_site_label_1
_geom_bond_atom_site_label_2
_ccdc_geom_bond_type
C15   C18   S    
C13   H42   S    
N2    Zn1   S    
C3    O2    S    
C1    C8    S    
O1    Zn1   S    
H36   O10   S    
C10   H41   S    
C7    C8    S    
C28   H20   S    
C1    O1    A    
C7    C11   S    
C22   O18   S    
C13   C29   S    
C36   C37   D    
C35   C37   S    
C9    C16   S    
C17   N1    S    
H35   O9    S    
C16   O14   A    
O15   Zn2   S    
H25   O6    S    
C18   H44   S    
C2    C32   A    
C34   C35   A    
C17   H2    S    
C11   H40   S    
C15   O9    S    
C4    O13   A    
C6    C28   S    
C15   H43   S    
C3    H1    S    
C27   H14   S    
C1    O11   A    
N1    Zn2   S    
C15   N1    S    
C9    C10   S    
O14   Zn1   S    
O12   Zn1   S    
C29   H27   S    
C13   C14   S    
C14   N2    S    
C14   C30   S    
C12   H10   S    
C19   N2    S    
C30   H33   S    
C19   H6    S    
C33   C34   A    
C32   H34   S    
C27   C34   S    
C33   H3    S    
C2    C20   S    
C24   C25   A    
C3    C8    S    
H19   O4    S    
C6    C8    S    
C25   C26   A    
C6    O7    S    
C12   C21   A    
O17   Zn2   S    
C23   O10   S    
C12   C26   A    
C5    C9    S    
H24   O5    S    
C18   H7    S    
C4    O12   A    
C11   O6    S    
C31   H38   S    
C7    O5    S    
C20   O17   A    
H30   O8    S    
C18   N2    S    
C9    C11   S    
C29   H28   S    
C5    O3    S    
C2    C33   A    
O11   Zn2   S    
C23   C35   A    
C22   C24   A    
C37   H8    S    
C7    H23   S    
C30   H32   S    
C27   H15   S    
C28   H22   S    
C3    C5    S    
C6    C10   S    
H17   O2    S    
C27   H16   S    
C28   H21   S    
C23   C32   A    
H18   O3    S    
C24   C31   S    
C4    C21   S    
C19   H5    S    
C16   O15   A    
C31   H39   S    
C20   O16   A    
C13   N1    S    
H26   O7    S    
C17   C19   S    
C36   H11   S    
C31   H37   S    
C17   H4    S    
C14   O8    S    
C26   H9    S    
C25   C36   S    
C29   H29   S    
C5    O4    S    
O16   Zn1   S    
H13   O18   S    
O13   Zn2   S    
C21   C22   A    
C10   H12   S    
C30   H31   S    
