data_mof_unit_41466.cif
_audit_creation_date              2013-03-05T15:43:09-0500
_audit_creation_method            fapswitch 2.2
_symmetry_space_group_name_H-M    P1
_symmetry_Int_Tables_number       1
_space_group_crystal_system       triclinic
_cell_length_a                    7.024425
_cell_length_b                    14.412371
_cell_length_c                    17.688746
_cell_angle_alpha                 114.439936
_cell_angle_beta                  96.000638
_cell_angle_gamma                 90.089515
_cell_volume                      1619.40158754

loop_
_atom_site_label
_atom_site_type_symbol
_atom_site_description
_atom_site_fract_x
_atom_site_fract_y
_atom_site_fract_z
_atom_type_partial_charge
O1    O     O_R   0.484560 0.544530 0.414330 -0.562512
O2    O     O_R   0.197040 0.638810 0.585080 -0.550112
O3    O     O_R   0.026800 0.455470 0.585670 -0.575059
C1    C     C_R   0.374971 0.683944 0.606555 0.865551
O4    O     O_R   0.155000 0.556150 0.414940 -0.548947
O5    O     O_R   0.984450 0.372220 0.414320 -0.517313
C2    C     C_R   0.317819 0.564675 0.386586 0.885893
O6    O     O_R   0.526900 0.627780 0.585680 -0.562318
O7    O     O_3   0.339170 0.439750 0.499990 -0.257447
V1    V     V_3+5 0.064350 0.511180 0.500000 1.172367
O8    O     O_R   0.654880 0.361190 0.414920 -0.522182
C3    C     C_R   0.816762 0.326217 0.384733 0.872393
O9    O     O_R   0.696930 0.443850 0.585060 -0.568190
C4    C     C_R   0.872767 0.418793 0.602568 0.766076
V2    V     V_3+5 0.564340 0.488820 0.500000 1.178496
O10   O     O_3   0.839390 0.560250 0.500010 -0.302204
C5    C     C_R   0.048117 0.873704 0.826332 -0.073199
C6    C     C_R   0.907787 0.385050 0.673142 -0.073787
C7    C     C_R   0.954026 0.839402 0.680840 -0.089577
C8    C     C_R   0.010231 0.807054 0.742416 -0.141497
C9    C     C_R   0.059614 0.979530 0.844115 -0.011608
C10   C     C_R   0.004890 0.017939 0.781318 0.049019
C11   C     C_R   0.950604 0.942608 0.698893 0.022744
C12   C     C_R   0.006406 0.124960 0.793716 -0.045552
C13   C     C_R   0.961038 0.148281 0.720972 -0.033741
C14   C     C_R   0.910896 0.067848 0.642373 -0.043932
C15   C     C_R   0.903931 0.968190 0.632057 -0.035997
C16   C     C_R   0.047323 0.210508 0.873536 0.294607
C17   C     C_R   0.065727 0.308753 0.876916 -0.162842
C18   C     C_R   0.018395 0.329988 0.807687 -0.008647
C19   C     C_R   0.961340 0.251658 0.728365 0.060208
C20   C     C_R   0.020719 0.431754 0.819705 -0.049883
C21   C     C_R   0.966259 0.459234 0.754088 0.023501
C22   C     C_R   0.905955 0.281218 0.660536 -0.126350
H1    H     H_    0.865555 0.909339 0.569495 0.130096
H2    H     H_    0.862335 0.226578 0.597546 0.053942
H3    H     H_    0.100947 0.372515 0.937164 0.122414
H4    H     H_    0.921867 0.782301 0.617143 0.105539
H5    H     H_    0.034850 0.728543 0.721414 0.136173
H6    H     H_    0.118558 0.027295 0.906191 0.141047
H7    H     H_    0.876169 0.078934 0.586150 0.123601
H8    H     H_    0.068024 0.490902 0.881195 0.091978
H9    H     H_    0.844448 0.032724 0.199517 0.096876
C23   C     C_2   0.133014 0.040258 0.177414 -0.154789
C24   C     C_2   0.974365 0.080679 0.213332 -0.124142
H10   H     H_    0.695007 0.170428 0.305531 0.073460
C25   C     C_2   0.816787 0.222700 0.316260 -0.257018
C26   C     C_2   0.968673 0.189458 0.271662 0.341127
H11   H     H_    0.265550 0.086030 0.192070 0.131897
C27   C     C_R   0.413667 0.800313 0.673125 -0.218257
C28   C     C_R   0.529750 0.470875 0.818396 -0.131902
C29   C     C_R   0.506828 0.925898 0.821305 0.277955
C30   C     C_R   0.471092 0.824205 0.758654 0.265927
C31   C     C_R   0.406123 0.887636 0.653165 -0.162344
C32   C     C_R   0.452778 0.993494 0.715204 0.018300
C33   C     C_R   0.493601 0.010645 0.801581 -0.093743
C34   C     C_R   0.454424 0.085340 0.698206 -0.033561
C35   C     C_R   0.518524 0.183196 0.765825 -0.053648
C36   C     C_R   0.587267 0.186138 0.841945 -0.062116
C37   C     C_R   0.533125 0.112836 0.866161 0.106314
C38   C     C_R   0.397597 0.087566 0.619239 0.345330
C39   C     C_R   0.380278 0.181175 0.612992 -0.149003
C40   C     C_R   0.428070 0.274765 0.681492 -0.008359
C41   C     C_R   0.506104 0.278718 0.758928 0.069184
C42   C     C_R   0.394974 0.365020 0.673021 -0.047075
C43   C     C_R   0.436952 0.459122 0.740386 -0.099018
C44   C     C_R   0.558349 0.378769 0.827519 -0.093157
H12   H     H_    0.615210 0.389298 0.889523 0.033791
H13   H     H_    0.402074 0.522447 0.727845 0.153134
H14   H     H_    0.329368 0.180491 0.552705 0.117588
H15   H     H_    0.361520 0.869171 0.588748 0.159732
H16   H     H_    0.670250 0.250996 0.887201 0.094916
H17   H     H_    0.331606 0.363022 0.613901 0.115925
H18   H     H_    0.335941 0.666258 0.194310 0.115014
H19   H     H_    0.612785 0.590449 0.307478 0.114711
C45   C     C_2   0.315293 0.601512 0.318828 -0.164501
C46   C     C_2   0.475892 0.610313 0.284950 -0.059597
H20   H     H_    0.770241 0.636330 0.206325 0.080147
C47   C     C_2   0.633607 0.655865 0.183284 -0.206017
C48   C     C_2   0.472910 0.646543 0.216900 -0.064631
H21   H     H_    0.178732 0.621140 0.295809 0.074222
O11   O     O_R   0.421600 0.630430 0.917010 -0.535973
O12   O     O_R   0.793840 0.702190 0.087630 -0.570497
O13   O     O_R   0.964010 0.886170 0.088190 -0.551296
C49   C     C_R   0.631039 0.693270 0.115845 0.808309
O14   O     O_R   0.751460 0.619510 0.917500 -0.559492
O15   O     O_R   0.921330 0.802900 0.916840 -0.504170
C50   C     C_R   0.572480 0.578417 0.890521 0.849162
O16   O     O_R   0.464290 0.713700 0.088350 -0.576291
O17   O     O_3   0.609200 0.818520 0.002630 -0.160821
V3    V     V_3+5 0.884140 0.747190 0.002530 1.190220
O18   O     O_R   0.251150 0.814630 0.917340 -0.466617
C51   C     C_R   0.075806 0.830962 0.892829 0.880688
O19   O     O_R   0.293530 0.897310 0.087470 -0.547284
C52   C     C_R   0.130957 0.933974 0.114795 0.841893
V4    V     V_3+5 0.384070 0.769710 0.002370 1.246971
O20   O     O_3   0.109180 0.698190 0.002460 -0.325465
N1    N     N_R   0.121746 0.259176 0.277242 0.101149
O21   O     O_R   0.290808 0.255962 0.313608 -0.368522
O22   O     O_R   0.089106 0.329138 0.249637 -0.347424
C53   C     C_3   0.507027 0.152377 0.960446 -0.107840
C54   C     C_3   0.527949 0.268625 0.013838 -0.366819
H22   H     H_    0.679907 0.296896 0.025107 0.176217
H23   H     H_    0.440366 0.310701 0.983655 0.134201
H24   H     H_    0.480668 0.286362 0.076144 0.187481
H25   H     H_    0.362436 0.128919 0.965757 0.145826
H26   H     H_    0.609274 0.122599 0.995101 0.239893
N2    N     N_R   0.571368 0.942580 0.905821 0.108488
O23   O     O_R   0.751569 0.963991 0.932736 -0.359260
O24   O     O_R   0.451070 0.965775 0.961065 -0.398503
N3    N     N_R   0.471117 0.743621 0.784079 0.034202
O25   O     O_R   0.328729 0.678893 0.755421 -0.505641
O26   O     O_R   0.571432 0.750438 0.851338 -0.312809
N4    N     N_R   0.364542 0.997690 0.543043 0.059324
O27   O     O_R   0.510842 0.949466 0.508652 -0.400151
O28   O     O_R   0.199093 0.980641 0.497861 -0.390537
C55   C     C_3   0.995714 0.567838 0.769234 -0.252439
C56   C     C_3   0.818909 0.611853 0.743487 -0.312214
H27   H     H_    0.813514 0.607375 0.679530 0.150284
H28   H     H_    0.690091 0.578190 0.750677 0.151304
H29   H     H_    0.821989 0.691832 0.782482 0.153669
H30   H     H_    0.054505 0.616518 0.834648 0.168621
H31   H     H_    0.099558 0.566163 0.727957 0.180983
N5    N     N_R   0.040748 0.205161 0.952913 0.049897
O29   O     O_R   0.909287 0.148154 0.960787 -0.390590
O30   O     O_R   0.119289 0.278648 0.021487 -0.383552

loop_
_geom_bond_atom_site_label_1
_geom_bond_atom_site_label_2
_geom_bond_distance
_ccdc_geom_bond_type
C23   H11   1.084085 S    
C53   H26   1.096555 S    
C32   C33   1.439959 A    
C40   C42   1.386901 A    
C21   C55   1.484913 S    
C53   C54   1.543187 S    
O15   V3    2.024744 S    
C4    C6    1.514584 S    
O2    C1    1.350299 A    
N3    O25   1.275693 A    
C1    O6    1.329764 A    
N4    O27   1.300888 A    
O17   V3    2.189104 S    
C23   C24   1.352309 D    
C14   C15   1.371024 A    
C27   C31   1.440609 A    
C16   C17   1.397484 A    
O14   V3    1.982018 S    
O5    C3    1.297108 A    
C18   C19   1.405033 A    
O14   C50   1.340706 A    
C46   C48   1.495610 S    
C43   H13   1.048366 S    
C14   H7    1.074695 S    
V2    O10   2.187755 S    
O18   V4    2.016721 S    
C5    C8    1.390548 A    
C42   H17   1.081798 S    
N2    O23   1.294362 A    
C39   H14   1.084769 S    
C54   H24   1.110842 S    
C56   H27   1.102769 S    
C31   C32   1.475527 A    
O8    V2    1.991490 S    
C31   H15   1.068417 S    
C7    C8    1.374933 A    
O1    V2    2.021339 S    
O13   V3    1.982452 S    
C11   C15   1.386050 A    
C17   C18   1.388920 A    
O7    V1    2.189201 S    
C38   C39   1.402945 A    
C36   H16   1.065797 S    
O19   V4    1.991370 S    
C30   N3    1.408299 S    
C36   C37   1.360692 A    
H18   C48   1.086524 S    
O9    C4    1.328871 A    
C54   H22   1.109992 S    
C3    C25   1.482448 S    
C56   H28   1.069627 S    
C35   C41   1.433498 A    
C27   C30   1.418111 A    
O11   V4    1.988883 S    
C44   H12   1.075165 S    
C41   C44   1.464097 A    
C12   C13   1.463801 A    
O4    C2    1.321066 A    
C8    H5    1.055688 S    
C49   O16   1.302186 A    
H20   C47   1.086531 S    
C15   H1    1.084880 S    
C35   C36   1.365542 A    
O17   V4    1.728602 S    
V3    O20   1.732270 S    
C33   C37   1.446180 A    
C1    C27   1.603373 S    
O13   C52   1.298145 A    
C28   C50   1.549925 S    
C7    C11   1.386985 A    
C55   H30   1.108645 S    
C39   C40   1.400492 A    
C7    H4    1.084775 S    
C6    C22   1.418625 A    
C25   C26   1.361980 D    
V4    O20   2.187882 S    
C19   C22   1.448562 A    
N3    O26   1.284300 A    
C28   C44   1.414172 A    
C45   C46   1.360759 D    
C54   H23   1.109814 S    
H19   C46   1.086536 S    
O3    C4    1.317588 A    
O12   C49   1.321128 A    
C42   C43   1.390768 A    
O6    V2    1.987570 S    
N1    O22   1.300943 A    
O9    V2    2.016724 S    
C10   C12   1.465218 A    
C47   C48   1.360815 D    
C5    C51   1.533939 S    
C28   C43   1.405676 A    
C37   C53   1.554881 S    
O2    V1    1.981891 S    
C47   C49   1.497208 S    
O12   V3    2.023644 S    
C29   C30   1.426855 A    
N5    O30   1.301019 A    
C24   C26   1.481340 S    
C53   H25   1.095386 S    
H10   C25   1.086771 S    
O1    C2    1.302219 A    
C13   C19   1.440698 A    
C12   C16   1.438690 A    
C45   H21   1.086510 S    
O5    V1    1.982408 S    
N4    O28   1.300852 A    
O8    C3    1.318439 A    
C16   N5    1.443119 S    
C34   C38   1.425491 A    
C2    C45   1.496935 S    
C26   N1    1.438017 S    
C20   C21   1.392274 A    
O16   V4    2.029872 S    
C32   C34   1.474037 A    
C13   C14   1.401281 A    
O4    V1    2.023691 S    
H9    C24   1.087135 S    
C23   C52   1.471777 S    
V1    O10   1.732247 S    
C55   C56   1.508488 S    
C18   C20   1.392055 A    
C34   C35   1.453265 A    
C9    H6    1.062842 S    
O11   C50   1.311649 A    
O15   C51   1.326098 A    
O18   C51   1.316872 A    
N2    O24   1.297674 A    
C22   H2    1.075774 S    
C55   H31   1.078237 S    
O19   C52   1.312602 A    
C6    C21   1.403880 A    
C5    C9    1.424446 A    
C40   C41   1.399387 A    
C29   N2    1.434866 S    
N1    O21   1.300524 A    
C17   H3    1.084066 S    
C38   N4    1.427354 S    
O3    V1    2.024942 S    
C20   H8    1.084640 S    
C10   C11   1.422156 A    
C9    C10   1.451981 A    
C56   H29   1.069499 S    
C29   C33   1.402985 A    
O7    V2    1.731542 S    
N5    O29   1.290885 A    
