data_mof_unit_19038.cif
_audit_creation_date              2012-12-10T18:03:33-0500
_audit_creation_method            fapswitch 2.2
_symmetry_space_group_name_H-M    P1
_symmetry_Int_Tables_number       1
_space_group_crystal_system       triclinic
_cell_length_a                    10.834813
_cell_length_b                    9.512513
_cell_length_c                    19.392705
_cell_angle_alpha                 89.999552
_cell_angle_beta                  90.156835
_cell_angle_gamma                 90.0001
_cell_volume                      1998.72685388

loop_
_atom_site_label
_atom_site_type_symbol
_atom_type_description
_atom_site_fract_x
_atom_site_fract_y
_atom_site_fract_z
_atom_type_partial_charge
C1    C     C_R   0.871796 0.500000 0.500056 -0.020207
C2    C     C_R   0.128204 0.500000 0.499945 -0.020208
C3    C     C_R   0.503321 0.629232 0.963663 -0.081098
C4    C     C_R   0.503319 0.370421 0.036348 -0.081174
C5    C     C_R   0.496599 0.629230 0.036333 -0.081075
C6    C     C_R   0.496768 0.370417 0.963651 -0.081193
C7    C     C_R   0.499924 0.499826 0.072642 0.016836
C8    C     C_R   0.500080 0.499825 0.927356 0.016832
C9    C     C_R   0.262035 0.500000 0.499954 0.784585
C10   C     C_R   0.737965 0.500000 0.500046 0.784586
C11   C     C_R   0.499948 0.499997 0.367937 0.788075
C12   C     C_R   0.500051 0.499996 0.632062 0.788062
C13   C     C_R   0.063845 0.372249 0.499960 -0.180171
C14   C     C_R   0.936154 0.627752 0.500034 -0.180562
C15   C     C_R   0.936154 0.372249 0.500040 -0.180169
C16   C     C_R   0.063846 0.627752 0.499966 -0.180557
C17   C     C_R   0.595918 0.433886 0.743090 -0.176525
C18   C     C_R   0.595708 0.566067 0.257171 -0.168681
C19   C     C_R   0.404137 0.433785 0.256909 -0.176510
C20   C     C_R   0.404237 0.565960 0.742827 -0.168676
C21   C     C_R   0.597140 0.436047 0.814922 -0.070100
C22   C     C_R   0.596927 0.563786 0.185347 -0.072430
C23   C     C_R   0.402913 0.435947 0.185077 -0.070110
C24   C     C_R   0.403022 0.563681 0.814651 -0.072424
C25   C     C_R   0.500084 0.499843 0.851085 0.216354
C26   C     C_R   0.499918 0.499845 0.148914 0.216342
C27   C     C_R   0.421270 0.074442 0.458242 -0.010892
C28   C     C_R   0.578737 0.925564 0.541753 -0.013096
C29   C     C_R   0.578730 0.074441 0.541758 -0.010883
C30   C     C_R   0.421263 0.925565 0.458247 -0.013108
C31   C     C_R   0.500082 0.499970 0.707021 -0.022455
C32   C     C_R   0.499918 0.499973 0.292978 -0.022495
Cu1   Cu    Cu3+1 0.500000 0.640660 0.500000 0.953251
Cu2   Cu    Cu3+1 0.500000 0.359340 0.500000 0.955357
H1    H     H_    0.358243 0.130603 0.424786 0.120926
H2    H     H_    0.641782 0.869411 0.575198 0.126424
H3    H     H_    0.641757 0.130601 0.575214 0.120933
H4    H     H_    0.358218 0.869413 0.424802 0.126425
H5    H     H_    0.111873 0.272368 0.499920 0.150543
H6    H     H_    0.888127 0.727632 0.500066 0.150387
H7    H     H_    0.888126 0.272369 0.500081 0.150544
H8    H     H_    0.111874 0.727632 0.499935 0.150388
H9    H     H_    0.670582 0.383085 0.715624 0.128852
H10   H     H_    0.670359 0.616947 0.284836 0.135502
H11   H     H_    0.329515 0.382904 0.284374 0.128877
H12   H     H_    0.329544 0.616760 0.715162 0.135469
H13   H     H_    0.672912 0.387074 0.842438 0.122870
H14   H     H_    0.672666 0.612782 0.158044 0.123551
H15   H     H_    0.327181 0.386896 0.157561 0.122877
H16   H     H_    0.327246 0.612598 0.841955 0.123543
N1    N     N_R   0.500000 0.852070 0.500000 -0.162383
N2    N     N_R   0.500000 0.147930 0.500000 -0.160457
O1    O     O_R   0.319640 0.618740 0.500000 -0.590216
O2    O     O_R   0.680360 0.381260 0.500000 -0.589726
O3    O     O_R   0.680360 0.618740 0.500000 -0.590220
O4    O     O_R   0.319640 0.381260 0.500000 -0.589728
O5    O     O_R   0.500020 0.618830 0.400190 -0.574231
O6    O     O_R   0.499980 0.381170 0.599810 -0.572733
O7    O     O_R   0.499980 0.618830 0.599810 -0.574220
O8    O     O_R   0.500020 0.381170 0.400190 -0.572740
C33   C     C_2   0.511980 0.765764 0.926051 0.322693
H17   H     H_    0.460587 0.856655 0.943789 0.071874
O9    O     O_2   0.579296 0.779054 0.876075 -0.521981
C34   C     C_2   0.511963 0.233897 0.073993 0.322481
H18   H     H_    0.460645 0.142977 0.056065 0.071426
O10   O     O_2   0.579189 0.220642 0.124213 -0.519955
C35   C     C_2   0.487851 0.765754 0.073943 0.322695
H19   H     H_    0.539193 0.856685 0.056208 0.071812
O11   O     O_2   0.420517 0.778991 0.123914 -0.522003
C36   C     C_2   0.488214 0.233885 0.926008 0.322475
H20   H     H_    0.539584 0.143007 0.943941 0.071481
O12   O     O_2   0.421005 0.220573 0.875784 -0.519937

loop_
_geom_bond_atom_site_label_1
_geom_bond_atom_site_label_2
_ccdc_geom_bond_type
Cu1   O3    S    
C19   C23   A    
C30   N1    A    
C17   H9    S    
Cu2   O4    S    
C36   H20   S    
C1    C15   A    
C18   H10   S    
Cu1   N1    S    
C2    C16   A    
C4    C34   S    
Cu2   N2    S    
C5    C35   S    
C12   O6    A    
C34   H18   S    
C3    C5    A    
C13   C15   A    
Cu1   Cu2   S    
C18   C32   A    
Cu1   O7    S    
C9    O4    A    
C11   O5    A    
C24   C25   A    
C27   C30   A    
Cu2   O8    S    
C8    C25   S    
C2    C9    S    
C24   H16   S    
C15   H7    S    
C7    C26   S    
C27   H1    S    
C4    C7    A    
C6    C8    A    
C10   O3    A    
C4    C6    A    
C28   C29   A    
C19   H11   S    
Cu1   O5    S    
C22   H14   S    
Cu2   O2    S    
C11   C32   S    
C3    C33   S    
C12   C31   S    
Cu1   O1    S    
C33   H17   S    
C17   C31   A    
C28   N1    A    
C14   C16   A    
C23   H15   S    
C13   H5    S    
C19   C32   A    
C10   O2    A    
C14   H6    S    
C35   H19   S    
C6    C36   S    
C20   C31   A    
C16   H8    S    
C9    O1    A    
C27   N2    A    
C28   H2    S    
C5    C7    A    
C3    C8    A    
C22   C26   A    
C23   C26   A    
C29   H3    S    
Cu2   O6    S    
C2    C13   A    
C21   C25   A    
C36   O12   D    
C1    C14   A    
C30   H4    S    
C35   O11   D    
C18   C22   A    
C12   O7    A    
C20   C24   A    
C33   O9    D    
C20   H12   S    
C1    C10   S    
C11   O8    A    
C34   O10   D    
C21   H13   S    
C29   N2    A    
C17   C21   A    
