data_mof_unit_19490.cif
_audit_creation_date              2012-12-10T17:36:47-0500
_audit_creation_method            fapswitch 2.2
_symmetry_space_group_name_H-M    P1
_symmetry_Int_Tables_number       1
_space_group_crystal_system       triclinic
_cell_length_a                    10.641516
_cell_length_b                    12.345852
_cell_length_c                    13.226825
_cell_angle_alpha                 116.650376
_cell_angle_beta                  77.036844
_cell_angle_gamma                 101.723453
_cell_volume                      1502.99336736

loop_
_atom_site_label
_atom_site_type_symbol
_atom_type_description
_atom_site_fract_x
_atom_site_fract_y
_atom_site_fract_z
_atom_type_partial_charge
C1    C     C_R   0.512844 0.854615 0.286551 0.775913
C2    C     C_3   0.013164 0.898220 0.507508 -0.008992
C3    C     C_3   0.957985 0.899325 0.409275 -0.269395
C4    C     C_3   0.876544 0.001058 0.499639 -0.025132
C5    C     C_R   0.376780 0.267040 0.031404 -0.179466
C6    C     C_R   0.466957 0.226955 0.835305 -0.036504
C7    C     C_R   0.617833 0.813065 0.089258 -0.249110
C8    C     C_R   0.673261 0.730990 0.984286 -0.113751
C9    C     C_R   0.642401 0.605591 0.950552 0.158608
C10   C     C_R   0.538179 0.560524 0.017039 0.035925
C11   C     C_R   0.483314 0.645320 0.125327 0.039042
C12   C     C_R   0.740104 0.000456 0.500228 0.824397
C13   C     C_R   0.488651 0.435013 0.982596 0.065615
C14   C     C_R   0.409529 0.393381 0.063219 0.113620
C15   C     C_R   0.357086 0.479033 0.169764 -0.051062
C16   C     C_R   0.384388 0.602373 0.194293 -0.212755
C17   C     C_R   0.505007 0.351468 0.867928 -0.245730
C18   C     C_R   0.408654 0.184187 0.918473 -0.164590
C19   C     C_R   0.531086 0.771104 0.164056 -0.087846
C20   C     C_R   0.707747 0.345185 0.326542 -0.271417
C21   C     C_R   0.323198 0.755971 0.645532 0.177423
C22   C     C_R   0.285822 0.657315 0.674377 -0.253611
C23   C     C_R   0.482317 0.144979 0.713393 0.823079
C24   C     C_R   0.352478 0.555612 0.618497 -0.182804
C25   C     C_R   0.458924 0.550207 0.531973 0.001084
C26   C     C_R   0.494184 0.653007 0.504024 0.256816
C27   C     C_R   0.531117 0.446550 0.472636 -0.042756
C28   C     C_R   0.636568 0.446429 0.385005 0.115849
C29   C     C_R   0.669214 0.547369 0.357704 -0.079195
C30   C     C_R   0.599827 0.647858 0.417012 -0.226239
C31   C     C_R   0.503249 0.342081 0.496811 0.032670
C32   C     C_R   0.675236 0.246237 0.354608 0.080661
C33   C     C_R   0.259996 0.998931 0.498917 0.813464
C34   C     C_3   0.987413 0.098706 0.490555 0.157121
C35   C     C_3   0.070391 0.999159 0.399780 -0.225688
C36   C     C_3   0.123482 0.997457 0.498650 -0.118479
C37   C     C_3   0.041744 0.098330 0.588177 -0.021303
C38   C     C_3   0.931883 0.999146 0.595886 0.095613
Cu1   Cu    Cu3+1 0.529830 0.098270 0.475420 0.947695
Cu2   Cu    Cu3+1 0.470170 0.901730 0.524580 0.945921
H1    H     H_    0.129401 0.000671 0.319652 0.154872
H2    H     H_    0.540059 0.383678 0.802277 0.160910
H3    H     H_    0.653669 0.909022 0.116475 0.162469
H4    H     H_    0.750048 0.765195 0.933009 0.158031
H5    H     H_    0.327822 0.664408 0.269257 0.178701
H6    H     H_    0.730010 0.168697 0.309426 0.117690
H7    H     H_    0.788682 0.341698 0.259300 0.158202
H8    H     H_    0.425318 0.334420 0.561821 0.126342
H9    H     H_    0.317877 0.482739 0.645091 0.151008
H10   H     H_    0.204153 0.658994 0.740792 0.159209
H11   H     H_    0.632387 0.720773 0.391869 0.207636
H12   H     H_    0.921178 0.817953 0.336442 0.165913
H13   H     H_    0.379991 0.087752 0.895281 0.163182
H14   H     H_    0.322264 0.231945 0.092208 0.144744
N1    N     N_R   0.575030 0.246270 0.438190 -0.182173
N2    N     N_R   0.425760 0.754330 0.561190 -0.224951
O1    O     O_R   0.537510 0.972500 0.318130 -0.586085
O2    O     O_R   0.487140 0.806530 0.359650 -0.607977
O3    O     O_R   0.708330 0.082950 0.479220 -0.571381
O4    O     O_R   0.657960 0.916980 0.520740 -0.608179
O5    O     O_R   0.512860 0.193470 0.640350 -0.590054
O6    O     O_R   0.462490 0.027500 0.681870 -0.584155
O7    O     O_R   0.342040 0.083020 0.479260 -0.586835
O8    O     O_R   0.291670 0.917050 0.520780 -0.580608
N3    N     N_3   0.733515 0.530744 0.861082 -0.592658
H15   H     H_    0.742471 0.454538 0.872758 0.246138
H16   H     H_    0.707973 0.506903 0.781301 0.222341
C39   C     C_1   0.774763 0.551200 0.268180 0.225546
N4    N     N_1   0.858980 0.554339 0.196588 -0.279658
C40   C     C_1   0.249514 0.858433 0.707053 0.300164
N5    N     N_1   0.189010 0.939980 0.757029 -0.328295
N6    N     N_3   0.972288 0.208814 0.481934 -0.552222
H17   H     H_    0.064140 0.258594 0.480159 0.230286
H18   H     H_    0.944283 0.181772 0.402406 0.223375
C41   C     C_1   0.088643 0.206466 0.685126 0.260558
N7    N     N_1   0.125892 0.291608 0.761412 -0.280725
N8    N     N_3   0.854975 0.999797 0.702193 -0.581484
H19   H     H_    0.918652 0.997012 0.750493 0.234014
H20   H     H_    0.792368 0.918368 0.681251 0.230889
C42   C     C_1   0.024419 0.785859 0.515538 0.269071
N9    N     N_1   0.033038 0.697067 0.521556 -0.270376
C43   C     C_1   0.267713 0.443469 0.252680 0.243203
N10   N     N_1   0.196412 0.415279 0.319233 -0.281370

loop_
_geom_bond_atom_site_label_1
_geom_bond_atom_site_label_2
_ccdc_geom_bond_type
C30   H11   S    
Cu2   O4    S    
C34   C37   S    
C35   C36   S    
C7    C8    A    
N8    H19   S    
C11   C19   A    
C29   C30   A    
C36   C37   S    
C15   C16   A    
Cu1   O1    S    
C33   C36   S    
Cu2   O6    S    
C34   C35   S    
C17   H2    S    
C18   H13   S    
C39   N4    T    
C12   O3    A    
C23   O6    A    
Cu1   N1    S    
C8    C9    A    
Cu2   N2    S    
C40   N5    T    
C7    H3    S    
C4    C12   S    
C9    C10   A    
C32   N1    A    
C22   H10   S    
C37   C41   S    
C21   C22   A    
Cu1   O5    S    
C15   C43   S    
N8    H20   S    
C6    C18   A    
C4    C34   S    
C1    C19   S    
Cu2   O2    S    
C27   C31   A    
C5    H14   S    
C24   C25   A    
N6    H18   S    
Cu1   Cu2   S    
N6    H17   S    
C5    C18   A    
C20   C28   A    
N3    H16   S    
C25   C26   A    
C41   N7    T    
C37   C38   S    
C1    O1    A    
C29   C39   S    
C11   C16   A    
C2    C38   S    
C3    C35   S    
C33   O7    A    
Cu1   O3    S    
C5    C14   A    
C4    C38   S    
C26   C30   A    
C7    C19   A    
C31   H8    S    
C22   C24   A    
C3    C4    S    
C34   N6    S    
C20   C32   A    
C2    C36   S    
C24   H9    S    
C6    C17   A    
C28   C29   A    
C32   H6    S    
C8    H4    S    
C42   N9    T    
C10   C13   A    
C26   N2    A    
C16   H5    S    
C21   N2    A    
C3    H12   S    
C38   N8    S    
C25   C27   A    
Cu1   O7    S    
Cu2   O8    S    
C13   C17   A    
C21   C40   S    
C2    C3    S    
C1    O2    A    
C33   O8    A    
C6    C23   S    
N3    H15   S    
C35   H1    S    
C9    N3    S    
C20   H7    S    
C2    C42   S    
C10   C11   A    
C12   O4    A    
C23   O5    A    
C43   N10   T    
C27   C28   A    
C14   C15   A    
C31   N1    A    
C13   C14   A    
