data_mof_unit_18846.cif
_audit_creation_date              2013-03-05T16:00:16-0500
_audit_creation_method            fapswitch 2.2
_symmetry_space_group_name_H-M    P1
_symmetry_Int_Tables_number       1
_space_group_crystal_system       triclinic
_cell_length_a                    11.70426
_cell_length_b                    14.729245
_cell_length_c                    14.709249
_cell_angle_alpha                 65.183705
_cell_angle_beta                  103.090167
_cell_angle_gamma                 102.77138
_cell_volume                      2218.94398264

loop_
_atom_site_label
_atom_site_type_symbol
_atom_site_description
_atom_site_fract_x
_atom_site_fract_y
_atom_site_fract_z
_atom_type_partial_charge
O1    O     O_R   0.459870 0.022090 0.338120 -0.538264
O2    O     O_R   0.540130 0.977910 0.661880 -0.546844
O3    O     O_R   0.511290 0.160150 0.379180 -0.601300
O4    O     O_R   0.488710 0.839850 0.620820 -0.599964
C1    C     C_R   0.479778 0.119639 0.312292 0.794117
C2    C     C_R   0.518423 0.880371 0.687671 0.793557
O5    O     O_R   0.311490 0.930960 0.479480 -0.543756
O6    O     O_R   0.688510 0.069040 0.520520 -0.523344
O7    O     O_R   0.362910 0.069020 0.520540 -0.585469
O8    O     O_R   0.637090 0.930980 0.479460 -0.590054
C3    C     C_R   0.284161 0.000270 0.499938 0.823028
C4    C     C_R   0.715830 0.999755 0.499989 0.823950
Cu1   Cu    Cu3+1 0.469550 0.918260 0.475690 0.975664
Cu2   Cu    Cu3+1 0.530450 0.081740 0.524310 0.982994
C5    C     C_1   0.162542 0.000580 0.499932 -0.187230
C6    C     C_1   0.837418 0.999456 0.499822 -0.169831
C7    C     C_1   0.059951 0.000283 0.499849 -0.005363
C8    C     C_1   0.939974 0.999723 0.499792 0.002075
C9    C     C_R   0.465384 0.187291 0.204618 -0.052549
C10   C     C_R   0.520294 0.812619 0.794880 -0.048062
C11   C     C_R   0.431405 0.216306 0.026824 -0.206977
C12   C     C_R   0.515493 0.782097 0.968893 -0.201824
C13   C     C_R   0.441026 0.149800 0.128115 -0.175215
C14   C     C_R   0.523468 0.849267 0.869252 -0.201870
C15   C     C_R   0.476867 0.291463 0.178721 -0.256249
C16   C     C_R   0.510176 0.708516 0.821308 -0.248593
C17   C     C_R   0.463819 0.359951 0.077150 0.089657
C18   C     C_R   0.495301 0.638872 0.919934 0.090038
C19   C     C_R   0.444195 0.320864 0.000870 0.163575
C20   C     C_R   0.500974 0.677465 0.994689 0.164430
C21   C     C_R   0.473261 0.466076 0.049599 0.065608
C22   C     C_R   0.475588 0.532416 0.946253 0.063921
C23   C     C_R   0.454886 0.490087 0.872447 -0.221698
C24   C     C_R   0.477919 0.507855 0.121550 -0.220230
C25   C     C_R   0.438276 0.386354 0.899498 -0.226505
C26   C     C_R   0.490805 0.611457 0.094182 -0.229489
H1    H     H_    0.422203 0.357259 0.840454 0.149614
H2    H     H_    0.493084 0.640086 0.151626 0.152509
H3    H     H_    0.515013 0.683791 0.763248 0.144943
H4    H     H_    0.499687 0.317706 0.239497 0.152448
H5    H     H_    0.530030 0.929444 0.850206 0.152727
H6    H     H_    0.431437 0.069442 0.146492 0.173027
H7    H     H_    0.414957 0.186048 0.968669 0.134898
H8    H     H_    0.518531 0.811888 0.025552 0.134594
H9    H     H_    0.447216 0.534813 0.792250 0.146638
H10   H     H_    0.467818 0.462482 0.199543 0.142408
N1    N     N_R   0.576230 0.204580 0.560790 -0.216064
N2    N     N_R   0.423770 0.795420 0.439210 -0.214023
C27   C     C_R   0.697039 0.286118 0.666922 -0.408817
C28   C     C_R   0.305627 0.715538 0.330682 -0.406416
C29   C     C_R   0.664813 0.202214 0.639589 0.714653
C30   C     C_R   0.333392 0.796489 0.362044 0.701750
C31   C     C_R   0.515910 0.285332 0.509037 -0.096069
C32   C     C_R   0.484263 0.714781 0.490711 -0.098120
C33   C     C_R   0.543792 0.371546 0.534593 -0.018688
C34   C     C_R   0.456912 0.628926 0.464529 -0.018430
C35   C     C_R   0.635685 0.369294 0.616264 0.098122
C36   C     C_R   0.366270 0.631927 0.381770 0.097774
C37   C     C_R   0.484416 0.459128 0.482807 0.096992
C38   C     C_R   0.516662 0.541572 0.515939 0.093702
C39   C     C_R   0.607457 0.533854 0.599236 -0.236703
C40   C     C_R   0.394662 0.467422 0.398686 -0.235773
C41   C     C_R   0.666190 0.449910 0.647461 -0.171133
C42   C     C_R   0.336973 0.551985 0.349587 -0.179147
H11   H     H_    0.735995 0.447812 0.710672 0.143609
H12   H     H_    0.268409 0.554792 0.285396 0.144923
H13   H     H_    0.554085 0.720369 0.550605 0.147076
H14   H     H_    0.445945 0.279683 0.449243 0.147481
H15   H     H_    0.770035 0.287133 0.726898 0.149215
H16   H     H_    0.238054 0.718427 0.265951 0.150488
H17   H     H_    0.635814 0.591712 0.629388 0.131210
H18   H     H_    0.366889 0.409793 0.368194 0.129247
O9    O     O_3   0.277560 0.881683 0.310273 -0.559860
C43   C     C_3   0.154348 0.855596 0.312383 -0.326655
H19   H     H_    0.116494 0.925457 0.292603 0.192145
H20   H     H_    0.133353 0.802518 0.389045 0.158745
H21   H     H_    0.110498 0.823624 0.254785 0.151551
O10   O     O_3   0.726335 0.119707 0.685191 -0.544951
C44   C     C_3   0.747680 0.087159 0.791809 -0.355400
H22   H     H_    0.762201 0.006925 0.825010 0.197429
H23   H     H_    0.671258 0.091057 0.822896 0.139012
H24   H     H_    0.829800 0.131115 0.816052 0.165385

loop_
_geom_bond_atom_site_label_1
_geom_bond_atom_site_label_2
_geom_bond_distance
_ccdc_geom_bond_type
C41   H11   1.084396 S    
C33   C37   1.434942 A    
C17   C19   1.417810 A    
C23   H9    1.076772 S    
O9    C43   1.411933 S    
N2    C32   1.363624 A    
C13   H6    1.083063 S    
C43   H20   1.115220 S    
O1    C1    1.302675 A    
C25   H1    1.084492 S    
C15   H4    1.075257 S    
C16   H3    1.075765 S    
C27   C35   1.397178 A    
O4    Cu1   1.941494 S    
C39   C41   1.386783 A    
C31   H14   1.075229 S    
C40   C42   1.387343 A    
C11   H7    1.083934 S    
C3    C5    1.424454 S    
C12   H8    1.083990 S    
C4    C6    1.424634 S    
C27   C29   1.404805 A    
C43   H21   1.110876 S    
C28   C30   1.400928 A    
C24   H10   1.076866 S    
N1    C31   1.363974 A    
C39   H17   1.076425 S    
C37   C38   1.437142 A    
C27   H15   1.082799 S    
Cu1   Cu2   2.696940 S    
C14   H5    1.082103 S    
O2    C2    1.302790 A    
O2    Cu2   1.954861 S    
C35   C41   1.394180 A    
C31   C33   1.422078 A    
C36   C42   1.394272 A    
C32   C34   1.422655 A    
C43   H19   1.109797 S    
C17   C21   1.425494 A    
C28   C36   1.397562 A    
C10   C14   1.399257 A    
C18   C22   1.425739 A    
O4    C2    1.300031 A    
C30   O9    1.384399 S    
C44   H23   1.114665 S    
O10   C44   1.412829 S    
N1    C29   1.362848 A    
C32   H13   1.075075 S    
C11   C19   1.403694 A    
C34   C38   1.434552 A    
C38   C39   1.410717 A    
C42   H12   1.084387 S    
C9    C13   1.399729 A    
O7    Cu2   1.918452 S    
C44   H24   1.110671 S    
O5    C3    1.296510 A    
C21   C22   1.423554 A    
O5    Cu1   1.915458 S    
O6    C4    1.296777 A    
C7    C8    1.402257 S    
C21   C24   1.416856 A    
C40   H18   1.076513 S    
O7    C3    1.298153 A    
O3    Cu2   1.941492 S    
O8    C4    1.297938 A    
C11   C13   1.392752 A    
C12   C14   1.392691 A    
O1    Cu1   1.954860 S    
C5    C7    1.199511 T    
C37   C40   1.410895 A    
O6    Cu2   1.915457 S    
C12   C20   1.403759 A    
O3    C1    1.300464 A    
O8    Cu1   1.918454 S    
Cu1   N2    2.026044 S    
Cu2   N1    2.026045 S    
C1    C9    1.469128 S    
C15   C17   1.404530 A    
C2    C10   1.468403 S    
C19   C25   1.390703 A    
C16   C18   1.404788 A    
C20   C26   1.390877 A    
C22   C23   1.417117 A    
C33   C35   1.413541 A    
C28   H16   1.083360 S    
C29   O10   1.388944 S    
C18   C20   1.418297 A    
C10   C16   1.398764 A    
C26   H2    1.084634 S    
C23   C25   1.387087 A    
C34   C36   1.414188 A    
C24   C26   1.386894 A    
C9    C15   1.399594 A    
C44   H22   1.109381 S    
N2    C30   1.362370 A    
C6    C8    1.199587 T    
