data_mof_unit_57164.cif
_audit_creation_date              2012-12-10T17:03:54-0500
_audit_creation_method            fapswitch 2.2
_symmetry_space_group_name_H-M    P1
_symmetry_Int_Tables_number       1
_space_group_crystal_system       triclinic
_cell_length_a                    9.797012
_cell_length_b                    11.047268
_cell_length_c                    15.83181
_cell_angle_alpha                 94.674407
_cell_angle_beta                  79.186214
_cell_angle_gamma                 111.251807
_cell_volume                      1568.42865266

loop_
_atom_site_label
_atom_site_type_symbol
_atom_type_description
_atom_site_fract_x
_atom_site_fract_y
_atom_site_fract_z
_atom_type_partial_charge
C1    C     C_R   0.556118 0.745412 0.506184 0.868222
C2    C     C_R   0.443870 0.254587 0.493836 0.868163
C3    C     C_R   0.319922 0.395838 0.071977 -0.223550
C4    C     C_R   0.677133 0.520835 0.920797 -0.223827
C5    C     C_R   0.216826 0.366444 0.017129 -0.234396
C6    C     C_R   0.780426 0.546564 0.975171 -0.234817
C7    C     C_2   0.587770 0.884502 0.509582 -0.356278
C8    C     C_2   0.412191 0.115497 0.490487 -0.355179
C9    C     C_2   0.484246 0.930554 0.498473 -0.151581
C10   C     C_2   0.515679 0.069444 0.501661 -0.151251
C11   C     C_2   0.923206 0.490242 0.492502 -0.076520
C12   C     C_2   0.076801 0.509777 0.507480 -0.076292
C13   C     C_R   0.410903 0.485210 0.662821 0.810949
C14   C     C_R   0.588737 0.512947 0.337064 0.812111
C15   C     C_R   0.355576 0.463997 0.755418 -0.102304
C16   C     C_R   0.641703 0.518944 0.243543 -0.102475
C17   C     C_R   0.155580 0.370042 0.874030 0.176168
C18   C     C_R   0.841850 0.567691 0.120400 0.176933
C19   C     C_R   0.204543 0.402843 0.787064 -0.192608
C20   C     C_R   0.792991 0.557246 0.209455 -0.191858
C21   C     C_R   0.458462 0.495175 0.811189 -0.251143
C22   C     C_R   0.537854 0.487396 0.188244 -0.255156
C23   C     C_R   0.415753 0.458075 0.897707 0.051447
C24   C     C_R   0.580958 0.491085 0.098456 0.050211
C25   C     C_R   0.261471 0.398138 0.930008 0.144514
C26   C     C_R   0.735595 0.535196 0.064341 0.145394
C27   C     C_R   0.522848 0.480025 0.952742 0.083691
C28   C     C_R   0.473987 0.456330 0.042121 0.083410
Cu1   Cu    Cu3+1 0.362980 0.479380 0.485080 0.936438
Cu2   Cu    Cu3+1 0.637020 0.520620 0.514920 0.937306
H1    H     H_    0.100996 0.319108 0.044425 0.162342
H2    H     H_    0.896538 0.577013 0.946064 0.164690
H3    H     H_    0.423103 0.463981 0.217151 0.161517
H4    H     H_    0.572316 0.549942 0.785254 0.156939
H5    H     H_    0.873404 0.582144 0.252494 0.157045
H6    H     H_    0.125058 0.377872 0.743444 0.157415
H7    H     H_    0.274691 0.364761 0.137313 0.142287
H8    H     H_    0.722471 0.529712 0.853173 0.144457
H9    H     H_    0.624576 0.134403 0.513261 0.180629
H10   H     H_    0.375334 0.865594 0.486897 0.180744
H11   H     H_    0.303503 0.050260 0.478863 0.150192
H12   H     H_    0.696473 0.949742 0.521182 0.150232
H13   H     H_    0.122225 0.577535 0.557418 0.158790
H14   H     H_    0.877792 0.422510 0.442549 0.158343
H15   H     H_    0.111467 0.384728 0.415544 0.189556
H16   H     H_    0.888521 0.615243 0.584472 0.189741
N1    N     N_2   0.842890 0.551600 0.537350 -0.286394
N2    N     N_2   0.157110 0.448400 0.462650 -0.286702
O1    O     O_R   0.426810 0.668300 0.492040 -0.576984
O2    O     O_R   0.573190 0.331700 0.507960 -0.577185
O3    O     O_R   0.658240 0.703130 0.517240 -0.573921
O4    O     O_R   0.341760 0.296870 0.482760 -0.574376
O5    O     O_R   0.319390 0.472820 0.610170 -0.582798
O6    O     O_R   0.680610 0.527180 0.389830 -0.582417
O7    O     O_R   0.550820 0.507640 0.635370 -0.575262
O8    O     O_R   0.449180 0.492360 0.364630 -0.576888
C29   C     C_3   0.991299 0.301083 0.904301 -0.900904
H17   H     H_    0.926186 0.286792 0.851571 0.237494
H18   H     H_    0.971606 0.203878 0.928956 0.238567
H19   H     H_    0.948426 0.358544 0.955944 0.233271
C30   C     C_3   0.007146 0.616522 0.087415 -0.895867
H20   H     H_    0.072598 0.638089 0.140533 0.236821
H21   H     H_    0.037576 0.542292 0.044857 0.234910
H22   H     H_    0.039722 0.707439 0.051180 0.237992

loop_
_geom_bond_atom_site_label_1
_geom_bond_atom_site_label_2
_ccdc_geom_bond_type
C5    H1    S    
C30   H22   S    
C14   O8    A    
Cu2   O3    S    
C18   C30   S    
Cu1   Cu2   S    
Cu1   O8    S    
C23   C27   A    
C2    O2    A    
Cu2   O6    S    
Cu2   O7    S    
C18   C20   A    
C18   C26   A    
C12   N2    D    
C16   C20   A    
C17   C25   A    
C3    C5    A    
C13   C15   S    
Cu2   O2    S    
C11   H14   S    
Cu1   O1    S    
C15   C19   A    
C1    O3    A    
C29   H17   S    
C6    C26   A    
C2    O4    A    
C5    C25   A    
C8    C10   D    
C3    C28   A    
C14   O6    A    
C24   C26   A    
Cu1   O5    S    
C12   H13   S    
C13   O5    A    
C19   H6    S    
C23   C25   A    
C21   C23   A    
C30   H20   S    
C22   C24   A    
C29   H18   S    
Cu1   N2    S    
C7    C9    D    
Cu2   N1    S    
C15   C21   A    
C4    C27   A    
C8    H11   S    
C3    H7    S    
C4    C6    A    
C6    H2    S    
C9    C10   S    
C7    H12   S    
C17   C29   S    
C27   C28   A    
C30   H21   S    
C22   H3    S    
H16   N1    S    
C29   H19   S    
C16   C22   A    
C21   H4    S    
H15   N2    S    
C17   C19   A    
C14   C16   S    
C1    C7    S    
C20   H5    S    
C11   N1    D    
C9    H10   S    
C2    C8    S    
C24   C28   A    
C11   C12   S    
C4    H8    S    
C10   H9    S    
C13   O7    A    
Cu1   O4    S    
C1    O1    A    
