data_mof_unit_63638.cif
_audit_creation_date              2012-12-10T19:02:06-0500
_audit_creation_method            fapswitch 2.2
_symmetry_space_group_name_H-M    P1
_symmetry_Int_Tables_number       1
_space_group_crystal_system       triclinic
_cell_length_a                    43.910506
_cell_length_b                    30.270026
_cell_length_c                    31.798632
_cell_angle_alpha                 89.999539
_cell_angle_beta                  136.398364
_cell_angle_gamma                 90.000238
_cell_volume                      29148.2345032

loop_
_atom_site_label
_atom_site_type_symbol
_atom_type_description
_atom_site_fract_x
_atom_site_fract_y
_atom_site_fract_z
_atom_type_partial_charge
C1    C     C_R   0.586277 0.999950 0.086252 0.873241
C2    C     C_R   0.413723 0.999950 0.913749 0.873229
C3    C     C_R   0.086277 0.499950 0.086253 0.873248
C4    C     C_R   0.913723 0.499950 0.913747 0.873242
C5    C     C_3   0.499958 0.999992 0.291044 0.205345
C6    C     C_3   0.500042 0.999993 0.708956 0.205347
C7    C     C_3   0.999952 0.499992 0.291038 0.205338
C8    C     C_3   0.000048 0.499993 0.708962 0.205339
C9    C     C_3   0.463995 0.021471 0.200042 -0.163244
C10   C     C_3   0.535380 0.022484 0.799333 -0.163293
C11   C     C_3   0.965631 0.524008 0.201677 -0.163118
C12   C     C_3   0.034401 0.523963 0.798354 -0.163115
C13   C     C_3   0.500572 0.041879 0.264535 -0.162755
C14   C     C_3   0.498239 0.041845 0.734275 -0.162765
C15   C     C_3   0.003584 0.541725 0.267546 -0.162771
C16   C     C_3   0.996472 0.541731 0.732509 -0.162769
C17   C     C_1   0.499937 0.999981 0.163353 -0.077502
C18   C     C_1   0.500063 0.999982 0.836647 -0.077505
C19   C     C_1   0.999932 0.499981 0.163348 -0.077499
C20   C     C_1   0.000068 0.499982 0.836652 -0.077500
C21   C     C_1   0.499966 0.999987 0.336556 -0.077893
C22   C     C_1   0.500034 0.999987 0.663444 -0.077893
C23   C     C_1   0.999961 0.499986 0.336552 -0.077896
C24   C     C_1   0.000038 0.499987 0.663448 -0.077896
C25   C     C_R   0.703375 0.038337 0.211553 -0.195453
C26   C     C_R   0.296626 0.038328 0.788404 -0.195447
C27   C     C_R   0.203376 0.538348 0.211514 -0.195345
C28   C     C_R   0.796624 0.538337 0.788446 -0.195337
C29   C     C_R   0.657625 0.038756 0.165619 -0.192540
C30   C     C_R   0.342376 0.038747 0.834336 -0.192551
C31   C     C_R   0.157626 0.538767 0.165578 -0.192544
C32   C     C_R   0.842374 0.538758 0.834383 -0.192545
C33   C     C_R   0.634284 0.999726 0.134166 -0.048863
C34   C     C_R   0.365716 0.999728 0.865838 -0.048849
C35   C     C_R   0.134285 0.499726 0.134171 -0.048873
C36   C     C_R   0.865715 0.499726 0.865829 -0.048857
C37   C     C_R   0.657038 0.960256 0.148895 -0.233696
C38   C     C_R   0.342962 0.960270 0.851161 -0.233715
C39   C     C_R   0.157040 0.460245 0.148952 -0.233646
C40   C     C_R   0.842962 0.460253 0.851086 -0.233646
C41   C     C_R   0.702916 0.959707 0.194607 0.027484
C42   C     C_R   0.297084 0.959723 0.805453 0.027491
C43   C     C_R   0.202918 0.459696 0.194667 0.027469
C44   C     C_R   0.797084 0.459703 0.805371 0.027471
C45   C     C_R   0.499954 0.999968 0.081249 0.912846
C46   C     C_R   0.500046 0.999968 0.918751 0.912847
C47   C     C_R   0.999953 0.499968 0.081249 0.912854
C48   C     C_R   0.000047 0.499968 0.918751 0.912853
C49   C     C_R   0.726063 0.999077 0.225914 0.050177
C50   C     C_R   0.273939 0.999081 0.774094 0.050146
C51   C     C_R   0.226064 0.499078 0.225926 0.050244
C52   C     C_R   0.773937 0.499075 0.774073 0.050240
C53   C     C_R   0.796773 0.992736 0.259027 -0.154642
C54   C     C_R   0.203230 0.992842 0.740996 -0.154680
C55   C     C_R   0.296772 0.492666 0.259045 -0.154367
C56   C     C_R   0.703228 0.492701 0.740960 -0.154368
C57   C     C_R   0.842531 0.992984 0.304796 -0.193127
C58   C     C_R   0.157471 0.993088 0.695226 -0.193120
C59   C     C_R   0.342530 0.492913 0.304811 -0.191558
C60   C     C_R   0.657470 0.492949 0.695195 -0.191562
C61   C     C_R   0.865531 0.000323 0.365444 -0.035618
C62   C     C_R   0.134470 0.000324 0.634559 -0.035649
C63   C     C_R   0.365532 0.500326 0.365446 -0.035158
C64   C     C_R   0.634468 0.500325 0.634552 -0.035173
C65   C     C_R   0.842372 0.007889 0.379806 -0.191708
C66   C     C_R   0.157631 0.007790 0.620180 -0.191708
C67   C     C_R   0.342376 0.507969 0.379799 -0.193306
C68   C     C_R   0.657624 0.507929 0.620192 -0.193303
C69   C     C_R   0.796583 0.007931 0.333879 -0.172733
C70   C     C_R   0.203420 0.007833 0.666107 -0.172717
C71   C     C_R   0.296588 0.508011 0.333875 -0.172811
C72   C     C_R   0.703413 0.507969 0.666116 -0.172818
C73   C     C_R   0.773924 0.999990 0.273712 0.114434
C74   C     C_R   0.226078 0.999995 0.726294 0.114441
C75   C     C_R   0.273926 0.499993 0.273721 0.114557
C76   C     C_R   0.726075 0.499990 0.726278 0.114559
C77   C     C_R   0.500000 0.913587 0.500000 0.862347
C78   C     C_R   1.000000 0.413585 0.500000 0.862352
C79   C     C_R   0.499963 0.999945 0.418673 0.912629
C80   C     C_R   0.500037 0.999945 0.581327 0.912634
C81   C     C_R   0.999962 0.499945 0.418673 0.912635
C82   C     C_R   0.000038 0.499945 0.581327 0.912639
C83   C     C_R   0.500000 0.086166 0.500000 0.862236
C84   C     C_R   1.000000 0.586166 0.500000 0.862240
C85   C     C_3   0.535904 0.978510 0.299863 -0.163405
C86   C     C_3   0.464721 0.977497 0.700762 -0.163373
C87   C     C_3   0.034255 0.475971 0.298215 -0.162654
C88   C     C_3   0.965713 0.476018 0.701754 -0.162656
C89   C     C_R   0.000000 0.086383 0.500000 0.873205
C90   C     C_R   0.500000 0.586384 0.500000 0.873230
C91   C     C_R   0.913508 0.000079 0.413492 0.876769
C92   C     C_R   0.086493 0.000079 0.586509 0.876778
C93   C     C_R   0.413508 0.500080 0.413493 0.876715
C94   C     C_R   0.586492 0.500080 0.586507 0.876722
C95   C     C_R   1.000000 0.913521 0.500000 0.877538
C96   C     C_R   0.500000 0.413521 0.500000 0.877456
C97   C     C_R   0.461970 0.796809 0.474161 -0.178543
C98   C     C_R   0.538031 0.796810 0.525840 -0.178540
C99   C     C_R   0.961929 0.296803 0.449856 -0.178616
C100  C     C_R   0.038072 0.296802 0.550145 -0.178613
C101  C     C_R   0.461860 0.842598 0.473803 -0.192185
C102  C     C_R   0.538140 0.842598 0.526197 -0.192167
C103  C     C_R   0.961820 0.342591 0.449996 -0.192186
C104  C     C_R   0.038180 0.342591 0.550005 -0.192188
C105  C     C_R   0.500000 0.865643 0.500000 -0.027795
C106  C     C_R   1.000000 0.365639 0.500000 -0.027870
C107  C     C_R   0.500001 0.773925 0.500000 0.111069
C108  C     C_R   0.000000 0.273919 0.500000 0.110962
C109  C     C_R   0.012399 0.203137 0.548745 -0.177405
C110  C     C_R   0.987601 0.203138 0.451256 -0.177403
C111  C     C_R   0.512364 0.703141 0.476007 -0.177305
C112  C     C_R   0.487638 0.703141 0.523994 -0.177304
C113  C     C_R   0.012131 0.157348 0.548579 -0.193090
C114  C     C_R   0.987869 0.157349 0.451421 -0.193085
C115  C     C_R   0.512101 0.657353 0.475644 -0.193092
C116  C     C_R   0.487899 0.657353 0.524356 -0.193096
C117  C     C_R   0.000000 0.134313 0.500000 -0.032160
C118  C     C_R   0.500000 0.634315 0.500000 -0.031477
C119  C     C_3   0.536518 0.020396 0.272551 -0.162591
C120  C     C_3   0.462917 0.019349 0.726885 -0.162568
C121  C     C_3   0.037888 0.517704 0.273920 -0.162685
C122  C     C_3   0.962136 0.517756 0.726104 -0.162692
C123  C     C_R   0.000000 0.226021 0.500000 0.111211
C124  C     C_R   0.500001 0.726025 0.500001 0.111470
C125  C     C_R   0.461986 0.202991 0.449759 -0.176743
C126  C     C_R   0.538013 0.202991 0.550240 -0.176738
C127  C     C_R   0.961989 0.702991 0.449753 -0.176739
C128  C     C_R   0.038010 0.702990 0.550246 -0.176740
C129  C     C_R   0.461876 0.157192 0.449900 -0.191327
C130  C     C_R   0.538124 0.157192 0.550099 -0.191313
C131  C     C_R   0.961879 0.657192 0.449895 -0.191307
C132  C     C_R   0.038120 0.657191 0.550105 -0.191307
C133  C     C_R   0.500000 0.134133 0.500000 -0.029086
C134  C     C_R   1.000000 0.634133 0.500000 -0.029090
C135  C     C_R   0.499999 0.225891 0.499999 0.109370
C136  C     C_R   0.999999 0.725891 0.500000 0.109350
C137  C     C_R   0.012387 0.796718 0.548733 -0.173966
C138  C     C_R   0.987611 0.796718 0.451267 -0.173968
C139  C     C_R   0.512389 0.296718 0.548734 -0.173963
C140  C     C_R   0.487609 0.296718 0.451265 -0.173964
C141  C     C_R   0.012122 0.842517 0.548568 -0.188661
C142  C     C_R   0.987877 0.842517 0.451432 -0.188676
C143  C     C_R   0.512123 0.342517 0.548569 -0.188683
C144  C     C_R   0.487876 0.342517 0.451430 -0.188686
C145  C     C_R   1.000000 0.865567 0.500000 -0.032836
C146  C     C_R   0.500000 0.365567 0.500000 -0.032799
C147  C     C_R   0.999999 0.773818 0.500000 0.110466
C148  C     C_R   0.499999 0.273818 0.499999 0.110482
C149  C     C_1   0.499941 0.999975 0.125786 -0.186078
C150  C     C_1   0.500059 0.999975 0.874214 -0.186081
C151  C     C_1   0.999938 0.499975 0.125783 -0.186072
C152  C     C_1   0.000062 0.499975 0.874217 -0.186072
C153  C     C_1   0.499968 0.999973 0.374129 -0.187102
C154  C     C_1   0.500032 0.999973 0.625871 -0.187102
C155  C     C_1   0.999966 0.499972 0.374126 -0.187104
C156  C     C_1   0.000034 0.499972 0.625873 -0.187104
C157  C     C_3   0.499327 0.958101 0.235370 -0.163173
C158  C     C_3   0.501862 0.958136 0.765819 -0.163152
C159  C     C_3   0.996302 0.458254 0.232346 -0.163222
C160  C     C_3   0.003642 0.458251 0.767599 -0.163222
C161  C     C_3   0.499941 0.999988 0.208861 0.205382
C162  C     C_3   0.500058 0.999988 0.791139 0.205383
C163  C     C_3   0.999935 0.499987 0.208854 0.205403
C164  C     C_3   0.000065 0.499988 0.791146 0.205404
C165  C     C_3   0.463381 0.979584 0.227355 -0.163352
C166  C     C_3   0.537183 0.980631 0.773210 -0.163379
C167  C     C_3   0.961999 0.482275 0.225973 -0.164121
C168  C     C_3   0.037977 0.482225 0.774004 -0.164123
H1    H     H_    0.566497 0.037125 0.290276 0.134259
H2    H     H_    0.432475 0.035219 0.708696 0.134240
H3    H     H_    0.068995 0.532226 0.292773 0.134233
H4    H     H_    0.931048 0.532320 0.707269 0.134233
H5    H     H_    0.779124 0.986844 0.212272 0.134285
H6    H     H_    0.220879 0.987030 0.787768 0.134278
H7    H     H_    0.279121 0.486718 0.212298 0.134376
H8    H     H_    0.720879 0.486781 0.787712 0.134378
H9    H     H_    0.859830 0.987081 0.292818 0.155232
H10   H     H_    0.140173 0.987265 0.707221 0.155256
H11   H     H_    0.359828 0.486950 0.292841 0.155456
H12   H     H_    0.640172 0.487017 0.707170 0.155469
H13   H     H_    0.859571 0.013863 0.426323 0.155821
H14   H     H_    0.140433 0.013680 0.573648 0.155847
H15   H     H_    0.359579 0.514003 0.426307 0.154842
H16   H     H_    0.640422 0.513932 0.573680 0.154856
H17   H     H_    0.778788 0.013628 0.345145 0.136443
H18   H     H_    0.221216 0.013451 0.654829 0.136442
H19   H     H_    0.278794 0.513768 0.345134 0.136133
H20   H     H_    0.721206 0.513695 0.654852 0.136134
H21   H     H_    0.432368 0.779208 0.453813 0.133395
H22   H     H_    0.567634 0.779209 0.546188 0.133397
H23   H     H_    0.932296 0.279200 0.411060 0.133540
H24   H     H_    0.067704 0.279199 0.588941 0.133540
H25   H     H_    0.432177 0.859914 0.453587 0.154499
H26   H     H_    0.567824 0.859914 0.546413 0.154501
H27   H     H_    0.932102 0.359905 0.410905 0.154549
H28   H     H_    0.067898 0.359904 0.589095 0.154549
H29   H     H_    0.021805 0.220740 0.586436 0.133223
H30   H     H_    0.978195 0.220741 0.413564 0.133225
H31   H     H_    0.521738 0.720742 0.457084 0.133025
H32   H     H_    0.478264 0.720742 0.542917 0.133023
H33   H     H_    0.021743 0.140020 0.586555 0.153501
H34   H     H_    0.978258 0.140021 0.413445 0.153504
H35   H     H_    0.521687 0.640027 0.456855 0.152940
H36   H     H_    0.478314 0.640027 0.543145 0.152938
H37   H     H_    0.432392 0.220588 0.410882 0.135890
H38   H     H_    0.567607 0.220588 0.589117 0.135892
H39   H     H_    0.932398 0.720588 0.410871 0.135905
H40   H     H_    0.067601 0.720587 0.589129 0.135906
H41   H     H_    0.565379 0.960899 0.341580 0.134786
H42   H     H_    0.435757 0.959057 0.659556 0.134746
H43   H     H_    0.062385 0.456280 0.338586 0.135415
H44   H     H_    0.937557 0.456365 0.661357 0.135416
H45   H     H_    0.432202 0.139877 0.410733 0.155405
H46   H     H_    0.567798 0.139877 0.589266 0.155407
H47   H     H_    0.932208 0.639877 0.410722 0.155395
H48   H     H_    0.067792 0.639876 0.589277 0.155395
H49   H     H_    0.021782 0.779121 0.586419 0.133492
H50   H     H_    0.978216 0.779122 0.413581 0.133489
H51   H     H_    0.521786 0.279121 0.586421 0.133475
H52   H     H_    0.478213 0.279122 0.413578 0.133472
H53   H     H_    0.021725 0.859842 0.586540 0.153661
H54   H     H_    0.978274 0.859843 0.413460 0.153653
H55   H     H_    0.521728 0.359842 0.586542 0.153650
H56   H     H_    0.478271 0.359843 0.413458 0.153647
H57   H     H_    0.501083 0.076220 0.277292 0.134140
H58   H     H_    0.496753 0.076157 0.720544 0.134163
H59   H     H_    0.006569 0.575940 0.282776 0.134198
H60   H     H_    0.993532 0.575949 0.717324 0.134198
H61   H     H_    0.434519 0.039080 0.158323 0.134529
H62   H     H_    0.564344 0.040923 0.840540 0.134551
H63   H     H_    0.937500 0.543698 0.161304 0.134597
H64   H     H_    0.062557 0.543614 0.838753 0.134597
H65   H     H_    0.433402 0.962854 0.209629 0.135395
H66   H     H_    0.567625 0.964760 0.791399 0.135409
H67   H     H_    0.930892 0.467752 0.207120 0.134784
H68   H     H_    0.069065 0.467660 0.792838 0.134784
H69   H     H_    0.498816 0.923760 0.222615 0.135786
H70   H     H_    0.503347 0.923823 0.779549 0.135785
H71   H     H_    0.993317 0.424039 0.217117 0.135734
H72   H     H_    0.006582 0.424032 0.782783 0.135734
H73   H     H_    0.721193 0.068672 0.235682 0.143428
H74   H     H_    0.278809 0.068654 0.764234 0.143441
H75   H     H_    0.221192 0.568692 0.235604 0.143294
H76   H     H_    0.778806 0.568674 0.764324 0.143294
H77   H     H_    0.640582 0.069474 0.155037 0.158822
H78   H     H_    0.359419 0.069455 0.844877 0.158812
H79   H     H_    0.140583 0.569494 0.154957 0.158804
H80   H     H_    0.859416 0.569478 0.844973 0.158790
H81   H     H_    0.639151 0.929927 0.124734 0.162746
H82   H     H_    0.360849 0.929950 0.875362 0.162733
H83   H     H_    0.139155 0.429907 0.124830 0.162746
H84   H     H_    0.860848 0.429922 0.875240 0.162735
O1    O     O_R   0.565460 0.963010 0.065460 -0.625955
O2    O     O_R   0.434540 0.963010 0.934540 -0.625939
O3    O     O_R   0.065460 0.463010 0.065460 -0.625964
O4    O     O_R   0.934540 0.463010 0.934540 -0.625959
O5    O     O_R   0.934500 0.999950 0.469270 -0.624155
O6    O     O_R   0.065500 0.999950 0.530730 -0.624171
O7    O     O_R   0.434500 0.499950 0.469270 -0.625979
O8    O     O_R   0.565500 0.499950 0.530730 -0.625985
O9    O     O_R   0.934490 0.999950 0.399700 -0.628685
O10   O     O_R   0.065510 0.999950 0.600300 -0.628691
O11   O     O_R   0.434490 0.499950 0.399700 -0.626772
O12   O     O_R   0.565510 0.499950 0.600300 -0.626775
O13   O     O_R   0.000010 0.934490 0.534800 -0.624835
O14   O     O_R   0.999990 0.934490 0.465200 -0.624852
O15   O     O_R   0.500010 0.434490 0.534800 -0.624857
O16   O     O_R   0.499990 0.434490 0.465200 -0.624863
O17   O     O_R   0.565400 0.036920 0.065400 -0.627466
O18   O     O_R   0.434600 0.036920 0.934600 -0.627455
O19   O     O_R   0.065400 0.536920 0.065400 -0.627457
O20   O     O_R   0.934600 0.536920 0.934600 -0.627451
O21   O     O_R   0.499990 0.963010 0.061610 -0.615697
O22   O     O_R   0.500010 0.963010 0.938390 -0.615690
O23   O     O_R   0.999990 0.463010 0.061610 -0.615693
O24   O     O_R   0.000010 0.463010 0.938390 -0.615689
O25   O     O_R   0.499940 0.036920 0.061550 -0.617006
O26   O     O_R   0.500060 0.036920 0.938450 -0.617015
O27   O     O_R   0.999940 0.536920 0.061550 -0.617004
O28   O     O_R   0.000060 0.536920 0.938450 -0.617012
O29   O     O_R   0.536910 0.934410 0.536900 -0.626400
O30   O     O_R   0.463090 0.934410 0.463100 -0.626403
O31   O     O_R   0.036910 0.434410 0.536900 -0.626420
O32   O     O_R   0.963090 0.434410 0.463100 -0.626420
O33   O     O_R   0.536920 0.999880 0.475310 -0.616385
O34   O     O_R   0.463080 0.999880 0.524690 -0.616381
O35   O     O_R   0.036920 0.499880 0.475310 -0.614043
O36   O     O_R   0.963080 0.499880 0.524690 -0.614044
O37   O     O_R   0.463000 0.999950 0.401380 -0.616444
O38   O     O_R   0.537000 0.999950 0.598620 -0.616451
O39   O     O_R   0.963000 0.499950 0.401380 -0.618780
O40   O     O_R   0.037000 0.499950 0.598620 -0.618780
O41   O     O_R   0.536940 0.065340 0.536940 -0.625759
O42   O     O_R   0.463060 0.065340 0.463060 -0.625761
O43   O     O_R   0.036940 0.565340 0.536940 -0.625758
O44   O     O_R   0.963060 0.565340 0.463060 -0.625758
O45   O     O_R   0.999920 0.065420 0.534690 -0.626193
O46   O     O_R   0.000080 0.065420 0.465310 -0.626176
O47   O     O_R   0.499920 0.565420 0.534690 -0.626160
O48   O     O_R   0.500080 0.565420 0.465310 -0.626155
Zn1   Zn    Zn3+2 0.500000 0.950610 0.000000 0.956969
Zn2   Zn    Zn3+2 0.000000 0.450610 0.000000 0.956969
Zn3   Zn    Zn3+2 0.500000 0.049320 0.000000 0.950515
Zn4   Zn    Zn3+2 0.000000 0.549320 0.000000 0.950534
Zn5   Zn    Zn3+2 0.549320 0.999860 0.549320 0.952627
Zn6   Zn    Zn3+2 0.450680 0.999860 0.450680 0.952635
Zn7   Zn    Zn3+2 0.049320 0.499860 0.549320 0.952616
Zn8   Zn    Zn3+2 0.950680 0.499860 0.450680 0.952614
Zn9   Zn    Zn3+2 0.999970 0.999950 0.546410 0.945341
Zn10  Zn    Zn3+2 0.000030 0.999950 0.453590 0.945333
Zn11  Zn    Zn3+2 0.499970 0.499950 0.546410 0.945476
Zn12  Zn    Zn3+2 0.500030 0.499950 0.453590 0.945472
C169  C     C_1   0.725497 0.918435 0.209487 0.138792
N1    N     N_1   0.743607 0.885398 0.221432 -0.202798
C170  C     C_1   0.274502 0.918464 0.790630 0.138832
N2    N     N_1   0.256393 0.885436 0.778733 -0.202795
C171  C     C_1   0.225499 0.418412 0.209605 0.138696
N3    N     N_1   0.243607 0.385365 0.221594 -0.202872
C172  C     C_1   0.774505 0.418427 0.790476 0.138696
N4    N     N_1   0.756398 0.385385 0.778521 -0.202874

loop_
_geom_bond_atom_site_label_1
_geom_bond_atom_site_label_2
_ccdc_geom_bond_type
C4    O20   A    
C94   O12   A    
C4    C36   S    
C165  H65   S    
C23   C155  T    
C109  H29   S    
C98   H22   S    
O1    Zn1   S    
C119  C161  S    
C89   O45   A    
C167  H67   S    
C46   O22   A    
C32   H80   S    
C112  C124  A    
C55   C59   A    
C26   C50   A    
C13   H57   S    
C29   C33   A    
C100  C104  A    
C9    C13   S    
C8    C168  S    
C54   C74   A    
C11   C15   S    
C140  H52   S    
C68   H16   S    
C12   C16   S    
C115  H35   S    
C70   C74   A    
C132  H48   S    
C113  H33   S    
C77   O30   A    
C5    C13   S    
C7    C23   S    
C141  C145  A    
C17   C161  S    
C125  C135  A    
C7    C15   S    
C66   H14   S    
C8    C16   S    
C11   C167  S    
C107  C124  S    
C2    O2    A    
O12   Zn11  S    
C41   C49   A    
C116  H36   S    
C47   O27   A    
C48   O28   A    
C25   C29   A    
C27   C31   A    
C86   H42   S    
C28   C32   A    
C127  C136  A    
C88   C122  S    
O6    Zn10  S    
C62   C66   A    
C95   O14   A    
O44   Zn8   S    
C15   H59   S    
C110  C123  A    
O48   Zn12  S    
C68   C72   A    
C115  C118  A    
C97   C101  A    
O16   Zn12  S    
C158  H70   S    
C129  C133  A    
C45   O25   A    
C49   C73   S    
O13   Zn9   S    
C90   C118  S    
O15   Zn11  S    
C90   O48   A    
C16   H60   S    
C11   H63   S    
O27   Zn4   S    
C30   H78   S    
C111  C124  A    
C80   O34   A    
C71   H19   S    
C85   H41   S    
C57   C61   A    
O18   Zn3   S    
O42   Zn6   S    
C59   C63   A    
C60   C64   A    
C78   C106  S    
C54   H6    S    
O30   Zn6   S    
C64   C94   S    
C6    C14   S    
O46   Zn10  S    
C80   O38   A    
C66   C70   A    
C79   O37   A    
C9    C165  S    
C159  C167  S    
C130  H46   S    
C88   C160  S    
O29   Zn5   S    
C78   O31   A    
C97   C107  A    
C61   C65   A    
C5    C21   S    
C132  C134  A    
C88   H44   S    
C137  H49   S    
O39   Zn8   S    
C21   C153  T    
C128  H40   S    
C18   C150  T    
C112  H32   S    
C24   C156  T    
C141  H53   S    
C6    C22   S    
C96   O16   A    
C69   H17   S    
C43   C51   A    
O20   Zn4   S    
C53   H5    S    
C84   O43   A    
C99   C108  A    
C56   H8    S    
C64   C68   A    
C79   O33   A    
C50   C74   S    
C1    O17   A    
C121  C163  S    
C10   H62   S    
C122  C164  S    
C125  H37   S    
C85   C119  S    
O36   Zn8   S    
C16   C122  S    
C93   O7    A    
C139  C143  A    
C94   O8    A    
C87   C159  S    
C19   C151  T    
C110  C114  A    
C91   O9    A    
C120  C162  S    
C5    C85   S    
C44   C52   A    
C97   H21   S    
O26   Zn3   S    
C41   C169  S    
O8    Zn12  S    
C100  H24   S    
C27   C51   A    
C127  C131  A    
C139  C148  A    
C100  C108  A    
C30   C34   A    
C99   C103  A    
C10   C14   S    
C157  C165  S    
C109  C123  A    
C8    C88   S    
C125  C129  A    
C79   C153  S    
C3    C35   S    
C10   C166  S    
C11   C163  S    
C58   H10   S    
C19   C163  S    
C9    C161  S    
O40   Zn7   S    
C67   H15   S    
C42   C50   A    
C113  C117  A    
C48   O24   A    
C89   C117  S    
C26   C30   A    
C4    O4    A    
C112  C116  A    
C28   H76   S    
C7    C167  S    
C46   C150  S    
C87   H43   S    
C52   C76   S    
C27   H75   S    
C32   C36   A    
C25   H73   S    
C96   C146  S    
C77   C105  S    
C6    C86   S    
C57   H9    S    
O32   Zn8   S    
C2    C34   S    
C38   H82   S    
C45   O21   A    
C8    C24   S    
C37   C41   A    
O14   Zn10  S    
C114  C117  A    
C70   H18   S    
C139  H51   S    
C40   C44   A    
C10   C162  S    
C86   C120  S    
C77   O29   A    
C58   C62   A    
C143  C146  A    
O43   Zn7   S    
C6    C166  S    
C110  H30   S    
C95   C145  S    
C131  C134  A    
C104  C106  A    
O23   Zn2   S    
O33   Zn5   S    
C160  C168  S    
C84   C134  S    
C103  H27   S    
C160  C164  S    
C14   H58   S    
C128  C136  A    
C54   C58   A    
C40   H84   S    
C83   O42   A    
C95   O13   A    
C126  C130  A    
C20   C164  S    
C102  H26   S    
C43   C171  S    
C102  C105  A    
C7    C87   S    
C1    O1    A    
C114  H34   S    
C69   C73   A    
C81   O35   A    
C82   O36   A    
C170  N2    T    
C142  C145  A    
C85   C157  S    
O19   Zn4   S    
C101  H25   S    
C89   O46   A    
C2    O18   A    
C53   C73   A    
C1    C33   S    
O9    Zn10  S    
C144  C146  A    
C138  C142  A    
C87   C121  S    
C53   C57   A    
O37   Zn6   S    
C131  H47   S    
C33   C37   A    
C98   C107  A    
C56   C60   A    
C35   C39   A    
C166  H66   S    
C91   O5    A    
C12   C164  S    
C104  H28   S    
C81   O39   A    
O45   Zn9   S    
C82   O40   A    
C157  H69   S    
C47   C151  S    
C126  C135  A    
C14   C120  S    
C48   C152  S    
C31   C35   A    
C130  C133  A    
C108  C123  S    
O22   Zn1   S    
C157  C161  S    
C158  C166  S    
O17   Zn3   S    
C137  C141  A    
C29   H77   S    
C137  C147  A    
C140  C144  A    
O35   Zn7   S    
C81   C155  S    
C92   O6    A    
C80   C154  S    
C84   O44   A    
C60   H12   S    
C63   C93   S    
C59   H11   S    
C98   C102  A    
C99   H23   S    
C18   C162  S    
C120  H2    S    
C169  N1    T    
C126  H38   S    
C65   C69   A    
C46   O26   A    
C67   C71   A    
O4    Zn2   S    
C25   C49   A    
C172  N4    T    
C20   C152  T    
C39   H83   S    
C159  H71   S    
O24   Zn2   S    
O25   Zn3   S    
C90   O47   A    
C56   C76   A    
C83   O41   A    
C72   C76   A    
C140  C148  A    
C3    O19   A    
C65   H13   S    
C51   C75   S    
C38   C42   A    
C143  H55   S    
C47   O23   A    
C119  H1    S    
C9    H61   S    
O5    Zn9   S    
C72   H20   S    
C111  H31   S    
O7    Zn11  S    
C62   C92   S    
C42   C170  S    
C5    C165  S    
C109  C113  A    
O21   Zn1   S    
C82   C156  S    
C96   O15   A    
O34   Zn6   S    
C129  H45   S    
C31   H79   S    
O11   Zn12  S    
C128  C132  A    
C13   C119  S    
O31   Zn7   S    
C12   H64   S    
C3    O3    A    
C101  C105  A    
C63   C67   A    
C144  H56   S    
O28   Zn4   S    
C36   C40   A    
C127  H39   S    
C39   C43   A    
O41   Zn5   S    
C138  C147  A    
C78   O32   A    
C86   C158  S    
C55   H7    S    
O2    Zn1   S    
C116  C118  A    
O47   Zn11  S    
C121  H3    S    
C122  H4    S    
C159  C163  S    
O10   Zn9   S    
C22   C154  T    
O38   Zn5   S    
C160  H72   S    
C34   C38   A    
C17   C149  T    
C12   C168  S    
C26   H74   S    
C168  H68   S    
O3    Zn2   S    
C55   C75   A    
C71   C75   A    
C28   C52   A    
C37   H81   S    
C103  C106  A    
C45   C149  S    
C44   C172  S    
C171  N3    T    
C15   C121  S    
C83   C133  S    
C136  C147  S    
C158  C162  S    
C138  H50   S    
C135  C148  S    
C111  C115  A    
C142  H54   S    
C92   O10   A    
C61   C91   S    
C93   O11   A    
