data_mof_unit_68561.cif
_audit_creation_date              2012-12-10T18:57:08-0500
_audit_creation_method            fapswitch 2.2
_symmetry_space_group_name_H-M    P1
_symmetry_Int_Tables_number       1
_space_group_crystal_system       triclinic
_cell_length_a                    8.735101
_cell_length_b                    10.899809
_cell_length_c                    9.618972
_cell_angle_alpha                 91.831918
_cell_angle_beta                  97.90779
_cell_angle_gamma                 93.104893
_cell_volume                      905.071105102

loop_
_atom_site_label
_atom_site_type_symbol
_atom_type_description
_atom_site_fract_x
_atom_site_fract_y
_atom_site_fract_z
_atom_type_partial_charge
C1    C     C_R   0.497094 0.262858 0.497249 0.908866
C2    C     C_R   0.421175 0.927409 0.380367 0.367532
C3    C     C_R   0.497014 0.871885 0.500068 -0.174414
C4    C     C_R   0.587050 0.947026 0.604735 -0.183474
C5    C     C_3   0.590997 0.956616 0.762812 0.696989
C6    C     C_3   0.587941 0.095705 0.754199 0.297154
C7    C     C_R   0.628512 0.540482 0.091552 0.153417
C8    C     C_R   0.381377 0.442855 0.057311 0.503625
C9    C     C_R   0.388089 0.434807 0.909251 0.282703
C10   C     C_R   0.627507 0.542438 0.944868 0.064847
C11   C     C_3   0.702486 0.668208 0.957619 -0.471700
C12   C     C_R   0.203905 0.495189 0.464912 0.887166
C13   C     C_3   0.709184 0.663957 0.116075 0.306782
C14   C     C_R   0.499415 0.737759 0.501457 0.876195
C15   C     C_R   0.796064 0.506353 0.535565 0.832685
C16   C     C_2   0.038386 0.472109 0.454344 0.122963
C17   C     C_2   0.962430 0.529143 0.548658 0.262583
C18   C     C_R   0.585715 0.073503 0.600571 -0.074933
C19   C     C_R   0.501197 0.130212 0.491045 -0.236008
C20   C     C_R   0.421235 0.057500 0.377137 0.363827
Cu1   Cu    Cu3+1 0.499990 0.499980 0.640670 1.028933
Cu2   Cu    Cu3+1 0.500010 0.500020 0.359330 1.053633
H1    H     H_    0.817394 0.673658 0.921712 0.203721
H2    H     H_    0.619166 0.732385 0.911289 0.257129
H3    H     H_    0.638611 0.731262 0.164001 0.101740
H4    H     H_    0.479534 0.135638 0.779165 0.150354
N1    N     N_R   0.500980 0.500930 0.148050 -0.281646
N2    N     N_R   0.500990 0.500890 0.852140 -0.226946
O1    O     O_R   0.500000 0.319640 0.618810 -0.548094
O2    O     O_R   0.500020 0.319680 0.381230 -0.514145
O3    O     O_R   0.274830 0.499980 0.591380 -0.543428
O4    O     O_R   0.274850 0.500020 0.353800 -0.539127
O5    O     O_R   0.499980 0.680320 0.618770 -0.549354
O6    O     O_R   0.500000 0.680360 0.381190 -0.584743
O7    O     O_R   0.725150 0.499980 0.646200 -0.590749
O8    O     O_R   0.725170 0.500020 0.408620 -0.540410
Cl1   Cl    Cl    0.956215 0.338389 0.356709 -0.711632
Cl2   Cl    Cl    0.258320 0.328980 0.804053 -0.612834
O9    O     O_3   0.860868 0.653841 0.185732 -0.565795
C21   C     C_3   0.925295 0.771571 0.232634 -0.287191
H5    H     H_    0.859158 0.813269 0.311265 0.155552
H6    H     H_    0.931578 0.833032 0.143118 0.174866
H7    H     H_    0.044760 0.762039 0.285529 0.233982
O10   O     O_3   0.027778 0.636566 0.619486 -0.612840
C22   C     C_3   0.055732 0.618406 0.764934 -0.254051
H8    H     H_    0.172081 0.584490 0.793675 0.219941
H9    H     H_    0.968201 0.555312 0.803300 0.150107
H10   H     H_    0.057178 0.708148 0.822003 0.170148
O11   O     O_3   0.337628 0.113150 0.266335 -0.562621
C23   C     C_3   0.181335 0.111310 0.288280 -0.161408
H11   H     H_    0.116686 0.163543 0.204633 0.239015
H12   H     H_    0.169019 0.155371 0.391825 0.183332
H13   H     H_    0.127488 0.016206 0.280430 0.150284
O12   O     O_3   0.328657 0.853221 0.278554 -0.614326
C24   C     C_3   0.370636 0.871967 0.144065 -0.176797
H14   H     H_    0.358825 0.781920 0.085233 0.174497
H15   H     H_    0.492073 0.909928 0.145341 0.158260
H16   H     H_    0.289040 0.933063 0.085792 0.229588
Cl3   Cl    Cl    0.415616 0.893561 0.815622 -0.741632
O13   O     O_3   0.725609 0.920906 0.849945 -0.602545
C25   C     C_3   0.856219 0.909287 0.779592 -0.234858
H17   H     H_    0.883239 0.992891 0.722330 0.220883
H18   H     H_    0.839181 0.826989 0.706735 0.173766
H19   H     H_    0.958066 0.897432 0.859376 0.184315
O14   O     O_3   0.726954 0.161074 0.813852 -0.553435
C26   C     C_3   0.716495 0.196179 0.954444 -0.152327
H20   H     H_    0.828974 0.241598 0.002318 0.191922
H21   H     H_    0.692571 0.115246 0.017479 0.180893
H22   H     H_    0.626292 0.263455 0.959990 0.148124
O15   O     O_3   0.254721 0.391030 0.110311 -0.510005
C27   C     C_3   0.123225 0.457362 0.064238 -0.194856
H23   H     H_    0.058648 0.414094 0.966325 0.183490
H24   H     H_    0.150740 0.557342 0.052258 0.113182
H25   H     H_    0.042712 0.452727 0.142492 0.249336

loop_
_geom_bond_atom_site_label_1
_geom_bond_atom_site_label_2
_ccdc_geom_bond_type
C14   O6    A    
C27   H25   S    
C23   H12   S    
C24   H14   S    
Cu1   O1    S    
C20   O11   S    
Cu1   O7    S    
C10   N2    A    
C7    C10   A    
Cu2   O8    S    
C15   O7    A    
C15   O8    A    
C26   H21   S    
C19   C20   A    
C16   Cl1   S    
C4    C18   A    
C26   H22   S    
C21   H7    S    
C14   O5    A    
C1    O1    A    
C2    C3    A    
C8    C9    A    
C17   O10   S    
C27   H23   S    
C22   H9    S    
Cu2   O2    S    
Cu1   Cu2   S    
C12   O4    A    
C25   H19   S    
C4    C5    S    
Cu1   O3    S    
C13   H3    S    
C27   H24   S    
C6    H4    S    
C3    C14   S    
Cu2   O4    S    
C6    C18   S    
C5    C6    S    
C21   H6    S    
C21   H5    S    
Cu1   N2    S    
C26   H20   S    
Cu2   N1    S    
C24   H15   S    
C12   O3    A    
C25   H17   S    
Cu2   O6    S    
C13   O9    S    
C11   C13   S    
Cu1   O5    S    
C10   C11   S    
C5    Cl3   S    
C2    C20   A    
C3    C4    A    
C23   H13   S    
C16   C17   D    
C11   H2    S    
C7    C13   S    
O15   C27   S    
C7    N1    A    
O10   C22   S    
C15   C17   S    
O14   C26   S    
C2    O12   S    
C24   H16   S    
C11   H1    S    
O9    C21   S    
O11   C23   S    
C18   C19   A    
O12   C24   S    
C1    O2    A    
C9    Cl2   S    
C22   H10   S    
C5    O13   S    
C23   H11   S    
C8    N1    A    
C22   H8    S    
C1    C19   S    
C8    O15   S    
C6    O14   S    
C12   C16   S    
C9    N2    A    
O13   C25   S    
C25   H18   S    
