data_mof_unit_61404.cif
_audit_creation_date              2012-12-10T20:48:28-0500
_audit_creation_method            fapswitch 2.2
_symmetry_space_group_name_H-M    P1
_symmetry_Int_Tables_number       1
_space_group_crystal_system       triclinic
_cell_length_a                    16.052163
_cell_length_b                    19.234322
_cell_length_c                    19.202015
_cell_angle_alpha                 94.875599
_cell_angle_beta                  95.103584
_cell_angle_gamma                 90.414131
_cell_volume                      5883.14477008

loop_
_atom_site_label
_atom_site_type_symbol
_atom_type_description
_atom_site_fract_x
_atom_site_fract_y
_atom_site_fract_z
_atom_type_partial_charge
C1    C     C_R   0.509897 0.310904 0.491808 0.565475
C2    C     C_R   0.414201 0.799400 0.520240 -0.158573
C3    C     C_R   0.447430 0.122573 0.488243 -0.087129
C4    C     C_R   0.492150 0.689285 0.507929 0.498739
C5    C     C_R   0.443487 0.194618 0.485713 -0.171855
C6    C     C_R   0.525488 0.089413 0.491858 0.218722
C7    C     C_R   0.516866 0.234783 0.486882 0.054256
C8    C     C_R   0.595490 0.201500 0.487311 -0.011832
C9    C     C_R   0.598404 0.129137 0.490640 -0.129982
C10   C     C_R   0.493946 0.484220 0.232800 0.016547
C11   C     C_R   0.506178 0.545274 0.200129 -0.167077
C12   C     C_1   0.111820 0.478489 0.484426 -0.104368
C13   C     C_R   0.505334 0.543604 0.127820 -0.089904
C14   C     C_R   0.493074 0.480263 0.085640 0.190552
C15   C     C_R   0.481029 0.417687 0.117236 -0.000567
C16   C     C_R   0.507499 0.507360 0.690089 0.498757
C17   C     C_R   0.482351 0.419278 0.191549 -0.004121
C18   C     C_R   0.439968 0.528263 0.876017 -0.001319
C19   C     C_R   0.434809 0.521030 0.801675 -0.037363
C20   C     C_R   0.519040 0.524552 0.914653 0.193192
C21   C     C_R   0.508771 0.510466 0.767179 -0.009005
C22   C     C_R   0.585946 0.506486 0.806438 -0.193828
C23   C     C_1   0.888419 0.516184 0.515521 0.014969
C24   C     C_R   0.592318 0.514314 0.879680 0.015988
C25   C     C_R   0.492938 0.490651 0.309874 0.546910
C26   C     C_R   0.723948 0.510155 0.510187 0.528202
C27   C     C_R   0.275963 0.489986 0.490197 0.503461
C28   C     C_1   0.813298 0.513732 0.513675 0.059028
C29   C     C_2   0.978277 0.518280 0.516503 -0.103617
C30   C     C_2   0.022212 0.470277 0.480303 0.015426
C31   C     C_2   0.984920 0.408801 0.435764 0.264586
C32   C     C_R   0.646843 0.774323 0.501836 0.047512
C33   C     C_R   0.680147 0.735220 0.556130 -0.065175
C34   C     C_1   0.186768 0.484432 0.487312 -0.001004
C35   C     C_R   0.758401 0.704312 0.552600 -0.101064
C36   C     C_R   0.804235 0.712562 0.495233 -0.088695
C37   C     C_R   0.772074 0.752054 0.441466 -0.097530
C38   C     C_R   0.693794 0.783036 0.444741 -0.085541
C39   C     C_R   0.352806 0.524711 0.759867 0.108522
C40   C     C_R   0.312021 0.588802 0.755872 -0.030043
C41   C     C_R   0.235785 0.592399 0.715079 -0.085489
C42   C     C_R   0.199981 0.532218 0.678026 -0.077057
C43   C     C_R   0.240415 0.468328 0.681587 -0.090742
C44   C     C_R   0.316641 0.464466 0.722337 -0.048777
C45   C     C_R   0.490485 0.765898 0.512120 0.026198
C46   C     C_2   0.364299 0.540394 0.915054 0.238062
C47   C     C_2   0.470399 0.351348 0.070832 0.237888
C48   C     C_2   0.472122 0.353396 0.225217 0.318091
C49   C     C_2   0.676987 0.510553 0.917347 0.263965
C50   C     C_2   0.675728 0.238820 0.481932 0.260846
C51   C     C_R   0.563022 0.805997 0.504729 -0.042772
C52   C     C_R   0.556317 0.878272 0.502202 -0.090815
C53   C     C_R   0.478770 0.911466 0.508294 0.213722
C54   C     C_R   0.408545 0.871441 0.518179 -0.114071
H1    H     H_    0.642207 0.499004 0.779483 0.122925
H2    H     H_    0.658055 0.102957 0.491647 0.109163
H3    H     H_    0.025685 0.373480 0.408095 0.111366
H4    H     H_    0.645328 0.728449 0.600937 0.095410
H5    H     H_    0.783422 0.673802 0.594257 0.095112
H6    H     H_    0.864681 0.688399 0.492482 0.110108
H7    H     H_    0.807701 0.758485 0.397109 0.118185
H8    H     H_    0.669315 0.813009 0.402425 0.111597
H9    H     H_    0.339511 0.635794 0.784044 0.100540
H10   H     H_    0.204553 0.641870 0.712055 0.104934
H11   H     H_    0.141050 0.535127 0.646390 0.108716
H12   H     H_    0.513541 0.592425 0.104866 0.150386
H13   H     H_    0.212810 0.421857 0.652569 0.106306
H14   H     H_    0.347667 0.414781 0.724512 0.099494
H15   H     H_    0.370256 0.567832 0.967061 0.128197
H16   H     H_    0.444155 0.352253 0.016850 0.144023
H17   H     H_    0.423368 0.316033 0.204293 0.132914
H18   H     H_    0.730809 0.500941 0.887603 0.096016
H19   H     H_    0.734438 0.214312 0.497376 0.103249
H20   H     H_    0.514895 0.595172 0.230784 0.139647
H21   H     H_    0.010901 0.561560 0.547836 0.094333
H22   H     H_    0.383027 0.219391 0.484904 0.123331
H23   H     H_    0.389578 0.093247 0.488016 0.144477
H24   H     H_    0.348765 0.896204 0.523367 0.125762
H25   H     H_    0.358204 0.769487 0.526173 0.134320
H26   H     H_    0.612165 0.908376 0.496273 0.138526
N1    N     N_2   0.468691 0.984540 0.504824 -0.242484
N2    N     N_2   0.534204 0.016414 0.495625 -0.243668
N3    N     N_2   0.491994 0.477694 0.011222 -0.246472
N4    N     N_2   0.524612 0.529464 0.988860 -0.200729
O1    O     O_3   0.500000 0.500000 0.500000 -0.449536
O2    O     O_R   0.688130 0.469010 0.547620 -0.515439
O3    O     O_R   0.315580 0.449250 0.449280 -0.544526
O4    O     O_R   0.680710 0.547310 0.468650 -0.527809
O5    O     O_R   0.315580 0.534430 0.534450 -0.538486
O6    O     O_2   0.909804 0.396432 0.429269 -0.463685
O7    O     O_2   0.295324 0.518135 0.891074 -0.496983
O8    O     O_2   0.493607 0.295564 0.090954 -0.486225
O9    O     O_2   0.519919 0.339259 0.274949 -0.441484
O10   O     O_2   0.688346 0.518246 0.981257 -0.445526
O11   O     O_2   0.677883 0.295308 0.457529 -0.437670
O12   O     O_R   0.456860 0.545290 0.655940 -0.542653
O13   O     O_R   0.446440 0.450430 0.339790 -0.514097
O14   O     O_R   0.557290 0.347960 0.537250 -0.509384
O15   O     O_R   0.539410 0.656320 0.467010 -0.534151
O16   O     O_R   0.456880 0.340240 0.450910 -0.521773
O17   O     O_R   0.446420 0.655480 0.544820 -0.549487
O18   O     O_R   0.557280 0.467820 0.657110 -0.546822
O19   O     O_R   0.539420 0.536460 0.347160 -0.534051
Zn1   Zn    Zn3+2 0.430910 0.557800 0.557800 0.924481
Zn2   Zn    Zn3+2 0.574380 0.447110 0.559460 0.985957
Zn3   Zn    Zn3+2 0.563780 0.559000 0.446630 0.976167
Zn4   Zn    Zn3+2 0.430930 0.436090 0.436110 0.987194

loop_
_geom_bond_atom_site_label_1
_geom_bond_atom_site_label_2
_ccdc_geom_bond_type
C33   H4    S    
C6    N2    S    
C47   O8    D    
C35   C36   A    
C17   C48   S    
C15   C47   S    
C3    C6    A    
C6    C9    A    
N1    N2    D    
C7    C8    A    
C47   H16   S    
C53   C54   A    
C29   C30   D    
O14   Zn2   S    
C23   C29   S    
C35   H5    S    
C36   C37   A    
C19   C21   A    
C30   C31   S    
C50   O11   D    
C45   C51   A    
C10   C17   A    
O18   Zn2   S    
C53   N1    S    
C18   C19   A    
C41   C42   A    
C46   H15   S    
C2    H25   S    
C21   C22   A    
C20   C24   A    
C8    C9    A    
C49   H18   S    
C42   H11   S    
C32   C38   A    
C49   O10   D    
C4    C45   S    
C2    C45   A    
C13   C14   A    
C14   N3    S    
O1    Zn2   S    
C18   C46   S    
C1    O16   A    
C13   H12   S    
C27   C34   S    
C16   O12   A    
C48   O9    D    
C51   C52   A    
C2    C54   A    
C50   H19   S    
C39   C40   A    
C5    C7    A    
C25   O19   A    
C46   O7    D    
C36   H6    S    
C43   C44   A    
C32   C51   S    
C37   C38   A    
O4    Zn3   S    
N3    N4    D    
C26   O2    A    
C31   O6    D    
C4    O17   A    
C43   H13   S    
C9    H2    S    
C23   C28   T    
C27   O3    A    
C40   H9    S    
C22   H1    S    
O1    Zn1   S    
C19   C39   S    
C10   C25   S    
C25   O13   A    
C40   C41   A    
O17   Zn1   S    
O12   Zn1   S    
O5    Zn1   S    
C22   C24   A    
C44   H14   S    
O2    Zn2   S    
C42   C43   A    
C48   H17   S    
C12   C34   T    
O1    Zn3   S    
C3    H23   S    
C8    C50   S    
C52   C53   A    
C16   O18   A    
C24   C49   S    
C15   C17   A    
O15   Zn3   S    
O16   Zn4   S    
C12   C30   S    
C1    C7    S    
C3    C5    A    
C11   H20   S    
C1    O14   A    
C37   H7    S    
C16   C21   S    
C39   C44   A    
C29   H21   S    
C26   C28   S    
C32   C33   A    
C31   H3    S    
C5    H22   S    
C20   N4    S    
C52   H26   S    
C11   C13   A    
C33   C35   A    
C27   O5    A    
O19   Zn3   S    
C18   C20   A    
C10   C11   A    
O13   Zn4   S    
O3    Zn4   S    
C26   O4    A    
C4    O15   A    
C14   C15   A    
C41   H10   S    
C54   H24   S    
O1    Zn4   S    
C38   H8    S    
