data_mof_unit_29234.cif
_audit_creation_date              2012-12-11T15:39:17-0500
_audit_creation_method            fapswitch 2.2
_symmetry_space_group_name_H-M    P1
_symmetry_Int_Tables_number       1
_space_group_crystal_system       triclinic
_cell_length_a                    14.327634
_cell_length_b                    14.828003
_cell_length_c                    33.257693
_cell_angle_alpha                 97.88536
_cell_angle_beta                  90.623085
_cell_angle_gamma                 118.734564
_cell_volume                      6112.88131867

loop_
_atom_site_label
_atom_site_type_symbol
_atom_type_description
_atom_site_fract_x
_atom_site_fract_y
_atom_site_fract_z
_atom_type_partial_charge
C1    C     C_R   0.616359 0.910263 0.436814 0.556318
C2    C     C_R   0.731366 0.411863 0.185638 0.040926
C3    C     C_R   0.711586 0.914026 0.657890 -0.126728
C4    C     C_R   0.634959 0.815965 0.665801 0.027990
C5    C     C_R   0.633471 0.868871 0.588156 0.023587
C6    C     C_R   0.052236 0.781326 0.063805 0.534896
C7    C     C_R   0.744126 0.486662 0.066066 0.541530
C8    C     C_R   0.743410 0.789373 0.066437 0.539471
C9    C     C_R   0.019979 0.730977 0.947041 0.569681
C10   C     C_R   0.711891 0.437186 0.949323 0.542331
C11   C     C_R   0.710031 0.739780 0.950497 0.544031
C12   C     C_R   0.827783 0.450080 0.167334 -0.136097
C13   C     C_R   0.830909 0.467910 0.127237 -0.135959
C14   C     C_R   0.756614 0.331719 0.242678 -0.120635
C15   C     C_R   0.750293 0.319277 0.283492 -0.114039
C16   C     C_R   0.720678 0.379675 0.311183 0.030758
C17   C     C_R   0.702160 0.455876 0.297801 -0.119277
C18   C     C_R   0.708961 0.468516 0.257000 -0.113391
C19   C     C_R   0.733062 0.404329 0.229129 0.029518
C20   C     C_R   0.603165 0.342309 0.368215 -0.120981
C21   C     C_R   0.593736 0.205155 0.456570 0.545722
C22   C     C_R   0.571770 0.299494 0.403725 -0.128254
C23   C     C_R   0.735193 0.289620 0.410247 -0.126663
C24   C     C_R   0.766375 0.332185 0.374730 -0.122743
C25   C     C_R   0.698751 0.355154 0.352638 0.032758
C26   C     C_R   0.635606 0.268971 0.424141 0.022370
C27   C     C_R   0.244915 0.877744 0.393249 0.018966
C28   C     C_R   0.232124 0.958488 0.380773 -0.130237
C29   C     C_R   0.208553 0.956165 0.339664 -0.115680
C30   C     C_R   0.196864 0.872987 0.310627 0.038353
C31   C     C_R   0.202492 0.789116 0.323003 -0.109649
C32   C     C_R   0.295647 0.892703 0.434353 0.547498
C33   C     C_R   0.226074 0.791218 0.364098 -0.109100
C34   C     C_R   0.197182 0.808404 0.163133 -0.114955
C35   C     C_R   0.168958 0.787028 0.121269 -0.129302
C36   C     C_R   0.090415 0.900609 0.129842 -0.129577
C37   C     C_R   0.118242 0.921425 0.171828 -0.116362
C38   C     C_R   0.168113 0.872251 0.188623 0.038602
C39   C     C_1   0.179056 0.877312 0.231950 -0.031530
C40   C     C_1   0.186416 0.876539 0.267971 -0.030489
C41   C     C_R   0.111019 0.829206 0.104457 0.020346
C42   C     C_R   0.636462 0.878002 0.395118 0.020036
C43   C     C_R   0.614242 0.905771 0.551682 0.538640
C44   C     C_R   0.552228 0.799659 0.367002 0.252860
C45   C     C_R   0.567175 0.790648 0.325391 -0.098129
C46   C     C_R   0.665447 0.855845 0.311736 -0.006126
C47   C     C_R   0.751455 0.926658 0.339654 -0.134526
C48   C     C_R   0.737221 0.937588 0.381084 -0.176160
C49   C     C_R   0.782156 0.922268 0.174752 -0.117017
C50   C     C_R   0.795878 0.908242 0.133286 -0.129525
C51   C     C_R   0.620996 0.753892 0.121869 -0.126112
C52   C     C_R   0.607364 0.768310 0.163244 -0.114705
C53   C     C_R   0.689435 0.850247 0.189879 0.038894
C54   C     C_R   0.589559 0.198759 0.571093 0.541490
C55   C     C_1   0.682098 0.854361 0.232920 -0.031457
C56   C     C_1   0.675388 0.855111 0.268920 -0.030901
C57   C     C_R   0.717237 0.821244 0.106784 0.022000
C58   C     C_R   0.621988 0.246264 0.614451 0.019945
C59   C     C_R   0.555939 0.275035 0.637497 -0.129401
C60   C     C_R   0.571617 0.295610 0.679982 -0.116830
C61   C     C_R   0.653474 0.287985 0.699857 0.040017
C62   C     C_R   0.723871 0.266157 0.677205 -0.116548
C63   C     C_R   0.708589 0.245813 0.634705 -0.129754
C64   C     C_R   0.757240 0.330847 0.846626 -0.101173
C65   C     C_R   0.289342 0.887033 0.548507 0.543285
C66   C     C_R   0.767302 0.360504 0.888851 -0.104997
C67   C     C_R   0.592772 0.349087 0.884871 -0.136643
C68   C     C_R   0.582870 0.319367 0.842712 -0.124371
C69   C     C_R   0.666689 0.314067 0.823431 0.034970
C70   C     C_1   0.664018 0.302605 0.779854 -0.034792
C71   C     C_1   0.660633 0.296143 0.743372 -0.034183
C72   C     C_R   0.687365 0.374866 0.908141 0.015949
C73   C     C_R   0.062409 0.751261 0.907273 -0.020889
C74   C     C_R   0.095246 0.849908 0.896515 -0.177127
C75   C     C_R   0.114215 0.866495 0.856166 0.277285
C76   C     C_R   0.737422 0.447865 0.104899 0.006783
C77   C     C_R   0.092937 0.781033 0.826131 0.056321
C78   C     C_R   0.065593 0.684103 0.837066 -0.115464
C79   C     C_R   0.054062 0.669377 0.877630 0.232276
C80   C     C_R   0.178518 0.771898 0.762473 0.212098
C81   C     C_R   0.187183 0.778914 0.721345 -0.111529
C82   C     C_R   0.124405 0.809468 0.700565 -0.060638
C83   C     C_R   0.051531 0.832175 0.720873 -0.142656
C84   C     C_R   0.041058 0.825160 0.762566 0.277991
C85   C     C_R   0.104000 0.792957 0.783018 0.075060
C86   C     C_R   0.173464 0.919878 0.646536 -0.117708
C87   C     C_R   0.639562 0.402960 0.122302 -0.105986
C88   C     C_R   0.214900 0.939533 0.609043 -0.130150
C89   C     C_R   0.178864 0.760433 0.592734 -0.126851
C90   C     C_R   0.138305 0.741199 0.630204 -0.118982
C91   C     C_R   0.140191 0.822114 0.657954 0.038392
C92   C     C_R   0.222866 0.861238 0.582830 0.022373
C93   C     C_R   0.658336 0.745436 0.913334 0.024949
C94   C     C_R   0.589913 0.654348 0.886283 -0.126559
C95   C     C_R   0.563996 0.660670 0.846538 -0.123019
C96   C     C_R   0.605998 0.758113 0.833506 0.024120
C97   C     C_R   0.664693 0.849137 0.862188 -0.130501
C98   C     C_R   0.635386 0.384268 0.162558 0.010325
C99   C     C_R   0.691040 0.842775 0.901625 -0.123012
C100  C     C_R   0.597501 0.851272 0.777380 -0.128538
C101  C     C_R   0.608519 0.866880 0.737038 -0.118339
C102  C     C_R   0.621571 0.796695 0.708046 0.025621
C103  C     C_R   0.620164 0.708755 0.719568 -0.112156
C104  C     C_R   0.610581 0.693738 0.760169 -0.098151
C105  C     C_R   0.600463 0.765656 0.789661 0.025915
C106  C     C_R   0.563691 0.741202 0.633901 -0.118352
C107  C     C_R   0.562549 0.767668 0.595292 -0.125920
C108  C     C_R   0.711455 0.940111 0.619242 -0.125923
Cr1   Cr    Cr6+3 0.424820 0.846020 0.489780 1.022452
Cr2   Cr    Cr6+3 0.657880 0.078580 0.505700 1.006477
Cr3   Cr    Cr6+3 0.417280 0.075360 0.504550 1.007735
Cr4   Cr    Cr6+3 0.903360 0.812540 0.006510 1.008433
Cr5   Cr    Cr6+3 0.914630 0.587050 0.006280 1.020214
Cr6   Cr    Cr6+3 0.673560 0.582680 0.008540 1.006668
H1    H     H_    0.566849 0.385761 0.104950 0.124541
H2    H     H_    0.494835 0.284895 0.413809 0.123732
H3    H     H_    0.901475 0.470207 0.184710 0.111175
H4    H     H_    0.786723 0.268003 0.425605 0.124940
H5    H     H_    0.185889 0.731809 0.102487 0.120948
H6    H     H_    0.236048 0.770201 0.175872 0.106837
H7    H     H_    0.193143 0.724139 0.300695 0.108924
H8    H     H_    0.235601 0.728033 0.372629 0.152723
H9    H     H_    0.246244 0.026329 0.402401 0.123818
H10   H     H_    0.095362 0.970952 0.191362 0.104856
H11   H     H_    0.045017 0.933537 0.117875 0.123520
H12   H     H_    0.907476 0.502747 0.114551 0.134130
H13   H     H_    0.203904 0.021234 0.330369 0.105108
H14   H     H_    0.871065 0.961059 0.122628 0.119590
H15   H     H_    0.846003 0.986066 0.195257 0.102968
H16   H     H_    0.828137 0.976936 0.329243 0.118055
H17   H     H_    0.803659 0.997194 0.401837 0.134901
H18   H     H_    0.535145 0.712474 0.174752 0.104131
H19   H     H_    0.558958 0.686357 0.102179 0.119858
H20   H     H_    0.500424 0.735702 0.303652 0.114285
H21   H     H_    0.840845 0.379445 0.905941 0.148742
H22   H     H_    0.841207 0.342983 0.363549 0.101391
H23   H     H_    0.822514 0.326746 0.831917 0.112259
H24   H     H_    0.787749 0.260538 0.692383 0.104300
H25   H     H_    0.760651 0.223504 0.617925 0.123549
H26   H     H_    0.488523 0.275901 0.622881 0.123712
H27   H     H_    0.512558 0.306598 0.824908 0.101176
H28   H     H_    0.529918 0.359716 0.898687 0.120323
H29   H     H_    0.517097 0.313082 0.697353 0.103149
H30   H     H_    0.101227 0.912698 0.919170 0.121562
H31   H     H_    0.111635 0.665015 0.638610 0.111424
H32   H     H_    0.763611 0.259067 0.292985 0.107629
H33   H     H_    0.244576 0.762245 0.705774 0.137531
H34   H     H_    0.002036 0.853067 0.703832 0.104600
H35   H     H_    0.175340 0.983050 0.667850 0.101764
H36   H     H_    0.247601 0.017689 0.601967 0.124625
H37   H     H_    0.050886 0.618783 0.813824 0.150413
H38   H     H_    0.182245 0.698112 0.572752 0.127378
H39   H     H_    0.563226 0.578265 0.894774 0.122921
H40   H     H_    0.776075 0.282318 0.221397 0.107550
H41   H     H_    0.742900 0.914137 0.922188 0.121160
H42   H     H_    0.767952 0.972170 0.682198 0.098520
H43   H     H_    0.607079 0.934088 0.728407 0.108237
H44   H     H_    0.588567 0.907480 0.799053 0.091863
H45   H     H_    0.515673 0.589237 0.825494 0.099399
H46   H     H_    0.629915 0.653746 0.697443 0.108396
H47   H     H_    0.615744 0.628274 0.768666 0.113673
H48   H     H_    0.504146 0.665071 0.639563 0.106552
H49   H     H_    0.501963 0.711132 0.571786 0.118019
H50   H     H_    0.698156 0.925652 0.853497 0.094505
H51   H     H_    0.767123 0.018641 0.614682 0.123624
H52   H     H_    0.680322 0.503956 0.318717 0.100691
H53   H     H_    0.692981 0.526586 0.246907 0.111750
H54   H     H_    0.549330 0.358871 0.351539 0.099659
O1    O     O_R   0.318160 0.824460 0.443680 -0.500320
O2    O     O_R   0.645130 0.163230 0.552140 -0.503108
O3    O     O_R   0.498360 0.178430 0.555780 -0.519792
O4    O     O_R   0.328690 0.978040 0.538950 -0.503147
O5    O     O_3   0.499990 0.999990 0.500010 -0.237302
O6    O     O_R   0.828710 0.851830 0.052170 -0.523571
O7    O     O_R   0.005980 0.823990 0.047210 -0.505108
O8    O     O_R   0.031900 0.688850 0.050170 -0.524810
O9    O     O_R   0.830940 0.518420 0.048680 -0.504248
O10   O     O_R   0.668160 0.499860 0.053480 -0.518960
O11   O     O_R   0.689170 0.693840 0.050110 -0.500500
O12   O     O_R   0.525040 0.857250 0.449830 -0.451350
O13   O     O_R   0.803860 0.812940 0.962540 -0.511938
O14   O     O_R   0.982950 0.787950 0.964120 -0.508554
O15   O     O_R   0.007050 0.649970 0.960540 -0.467190
O16   O     O_R   0.807910 0.482370 0.965590 -0.492337
O17   O     O_R   0.643310 0.460980 0.963840 -0.523630
O18   O     O_R   0.666140 0.657800 0.967020 -0.503695
O19   O     O_3   0.830520 0.660760 0.007110 -0.236894
O20   O     O_R   0.684760 0.998800 0.456360 -0.529936
O21   O     O_R   0.647540 0.166310 0.470260 -0.501753
O22   O     O_R   0.500960 0.181750 0.467450 -0.520524
O23   O     O_R   0.331100 0.981120 0.457080 -0.504824
O24   O     O_R   0.315560 0.821140 0.532010 -0.524557
O25   O     O_R   0.522630 0.854180 0.531710 -0.505529
O26   O     O_R   0.682160 0.995480 0.544690 -0.522759
O27   O     O_3   0.451212 0.741144 0.379015 -0.541707
C109  C     C_3   0.437971 0.642833 0.384016 -0.007198
H55   H     H_    0.500648 0.651162 0.406700 0.122014
H56   H     H_    0.440955 0.599152 0.354441 0.111911
C110  C     C_3   0.329510 0.579702 0.399619 -0.363378
H57   H     H_    0.264950 0.568045 0.377282 0.140550
H58   H     H_    0.318433 0.502360 0.404006 0.081205
H59   H     H_    0.324247 0.621219 0.429223 0.168145
O28   O     O_3   0.020962 0.571131 0.887074 -0.537798
C111  C     C_3   0.109866 0.554262 0.888043 -0.003200
H60   H     H_    0.175262 0.615286 0.910625 0.127814
H61   H     H_    0.140672 0.553923 0.857442 0.131672
C112  C     C_3   0.076234 0.448839 0.900657 -0.375768
H62   H     H_    0.012898 0.385909 0.878158 0.137489
H63   H     H_    0.145952 0.435363 0.902007 0.090695
H64   H     H_    0.045269 0.446602 0.931188 0.157177
O29   O     O_3   0.239210 0.738767 0.782084 -0.574529
C113  C     C_3   0.332214 0.826610 0.802280 -0.014495
H65   H     H_    0.317853 0.891369 0.816090 0.124695
H66   H     H_    0.393934 0.856314 0.780356 0.142209
C114  C     C_3   0.374210 0.794046 0.836588 -0.373412
H67   H     H_    0.389478 0.729360 0.824240 0.174731
H68   H     H_    0.449679 0.861117 0.851896 0.097671
H69   H     H_    0.314462 0.767371 0.859369 0.137109
O30   O     O_3   0.142962 0.962198 0.844484 -0.549080
C115  C     C_3   0.233992 0.042904 0.868710 -0.024357
H70   H     H_    0.295301 0.019146 0.874516 0.114133
H71   H     H_    0.210570 0.067698 0.898179 0.128208
C116  C     C_3   0.284325 0.136162 0.846518 -0.381036
H72   H     H_    0.224917 0.161046 0.839633 0.151177
H73   H     H_    0.353145 0.201872 0.865989 0.092905
H74   H     H_    0.312663 0.115415 0.817563 0.147248
O31   O     O_3   0.964221 0.839604 0.783315 -0.528796
C117  C     C_3   0.959556 0.927948 0.774349 0.017223
H75   H     H_    0.907844 0.906895 0.745673 0.121122
H76   H     H_    0.040418 0.994215 0.771792 0.135168
C118  C     C_3   0.909740 0.964165 0.808474 -0.350138
H77   H     H_    0.960342 0.988336 0.837621 0.186863
H78   H     H_    0.901653 0.031135 0.801239 0.073839
H79   H     H_    0.829557 0.899447 0.811827 0.175806
C119  C     C_3   0.528922 0.335485 0.180292 -0.401057
H80   H     H_    0.516986 0.265148 0.192637 0.144967
H81   H     H_    0.525636 0.391904 0.205048 0.127981
H82   H     H_    0.461680 0.311265 0.156960 0.117697

loop_
_geom_bond_atom_site_label_1
_geom_bond_atom_site_label_2
_ccdc_geom_bond_type
C65   C92   S    
Cr5   O9    S    
C21   C26   S    
Cr3   O23   S    
C101  C102  A    
C16   C25   S    
C11   O18   A    
C10   O16   A    
C73   C74   A    
C54   O2    A    
C35   H5    S    
C95   C96   A    
C11   O13   A    
C100  C105  A    
C55   C56   T    
C2    C12   A    
C23   H4    S    
C115  H71   S    
C81   C82   A    
C111  H61   S    
C28   H9    S    
Cr5   O15   S    
C77   C78   A    
C27   C33   A    
C12   C13   A    
Cr2   O20   S    
C45   H20   S    
C37   C38   A    
Cr6   O17   S    
C42   C44   A    
C43   O26   A    
C95   H45   S    
C36   C37   A    
C113  H66   S    
C18   C19   A    
C90   H31   S    
C86   C91   A    
C114  H68   S    
C60   H29   S    
C54   C58   S    
C38   C39   S    
C34   C35   A    
C1    O12   A    
Cr1   O5    S    
C103  H46   S    
C1    O20   A    
Cr5   O16   S    
C6    O7    A    
Cr1   O24   S    
C15   C16   A    
Cr5   O19   S    
C114  H69   S    
C10   O17   A    
C86   C88   A    
C113  H65   S    
C7    O9    A    
Cr3   O4    S    
C109  H55   S    
C23   C26   A    
C49   C50   A    
C117  H75   S    
C9    O14   A    
C103  C104  A    
C89   H38   S    
C66   C72   A    
C98   C119  S    
C88   C92   A    
C16   C17   A    
C81   H33   S    
C6    C41   S    
C99   H41   S    
Cr2   O26   S    
C110  H59   S    
C119  H80   S    
C13   C76   A    
C48   H17   S    
Cr1   O25   S    
C70   C71   T    
C51   C57   A    
C29   C30   A    
C93   C99   A    
C87   H1    S    
C61   C62   A    
C87   C98   A    
C61   C71   S    
C117  C118  S    
C22   H2    S    
C27   C32   S    
C101  H43   S    
C59   C60   A    
C34   C38   A    
C14   H40   S    
C119  H81   S    
C36   C41   A    
C69   C70   S    
C32   O1    A    
C9    C73   S    
Cr4   O19   S    
C109  C110  S    
C54   O3    A    
C117  H76   S    
C115  H70   S    
C97   C99   A    
Cr1   O1    S    
C78   H37   S    
C64   H23   S    
C53   C55   S    
C34   H6    S    
C20   H54   S    
C116  H74   S    
C36   H11   S    
C74   C75   A    
C65   O4    A    
C112  H62   S    
C52   H18   S    
C47   C48   A    
C67   C72   A    
C24   C25   A    
C31   H7    S    
C116  H72   S    
C109  H56   S    
C86   H35   S    
C104  H47   S    
C78   C79   A    
C68   C69   A    
Cr4   O14   S    
C47   H16   S    
Cr6   O10   S    
C58   C59   A    
C45   C46   A    
C4    C106  A    
C83   H34   S    
C62   H24   S    
C82   C91   S    
C67   C68   A    
C7    O10   A    
C4    C102  S    
C60   C61   A    
C64   C66   A    
C114  H67   S    
O29   C113  S    
C80   C85   A    
C9    O15   A    
C24   H22   S    
C8    C57   S    
C112  H64   S    
C37   H10   S    
C21   O21   A    
O31   C117  S    
C111  C112  S    
C75   O30   S    
C66   H21   S    
C23   C24   A    
C97   H50   S    
C96   C97   A    
C62   C63   A    
C31   C33   A    
C17   C18   A    
C73   C79   A    
C30   C40   S    
C68   H27   S    
C118  H78   S    
C93   C94   A    
C42   C48   A    
C64   C69   A    
C84   C85   A    
C89   C92   A    
C75   C77   A    
C76   C87   A    
C2    C98   A    
C7    C76   S    
C80   O29   S    
C13   H12   S    
Cr2   O2    S    
C107  H49   S    
Cr6   O11   S    
C94   C95   A    
C79   O28   S    
Cr5   O8    S    
C22   C26   A    
C33   H8    S    
C119  H82   S    
C83   C84   A    
C50   H14   S    
C3    C4    A    
O30   C115  S    
C50   C57   A    
C52   C53   A    
C96   C105  S    
C110  H58   S    
C108  H51   S    
C5    C107  A    
Cr2   O5    S    
C21   O22   A    
C58   C63   A    
C74   H30   S    
C46   C47   A    
C28   C29   A    
C44   O27   S    
C2    C19   S    
Cr3   O5    S    
C113  C114  S    
C88   H36   S    
C14   C19   A    
C44   C45   A    
C20   C22   A    
C80   C81   A    
C104  C105  A    
C84   O31   S    
C15   H32   S    
C18   H53   S    
C116  H73   S    
Cr1   O12   S    
Cr4   O13   S    
C63   H25   S    
C3    C108  A    
Cr2   O21   S    
Cr6   O18   S    
C43   O25   A    
C17   H52   S    
C29   H13   S    
C106  C107  A    
C51   C52   A    
Cr4   O6    S    
C51   H19   S    
C8    O11   A    
C11   C93   S    
C90   C91   A    
C30   C31   A    
C49   H15   S    
C59   H26   S    
C94   H39   S    
C49   C53   A    
C100  C101  A    
C6    O8    A    
C118  H79   S    
Cr3   O3    S    
C106  H48   S    
C5    C43   S    
C102  C103  A    
C35   C41   A    
C8    O6    A    
Cr6   O19   S    
C65   O24   A    
C77   C85   S    
O27   C109  S    
C39   C40   T    
C100  H44   S    
C1    C42   S    
C110  H57   S    
Cr4   O7    S    
C3    H42   S    
C111  H60   S    
C32   O23   A    
Cr3   O22   S    
C82   C83   A    
C20   C25   A    
C46   C56   S    
C118  H77   S    
C112  H63   S    
C14   C15   A    
C12   H3    S    
O28   C111  S    
C89   C90   A    
C67   H28   S    
C115  C116  S    
C27   C28   A    
C5    C108  A    
C10   C72   S    
