data_mof_unit_45218.cif
_audit_creation_date              2012-12-10T19:24:59-0500
_audit_creation_method            fapswitch 2.2
_symmetry_space_group_name_H-M    P1
_symmetry_Int_Tables_number       1
_space_group_crystal_system       triclinic
_cell_length_a                    15.714022
_cell_length_b                    10.492037
_cell_length_c                    9.767224
_cell_angle_alpha                 90.465616
_cell_angle_beta                  89.899418
_cell_angle_gamma                 90.118128
_cell_volume                      1610.28370407

loop_
_atom_site_label
_atom_site_type_symbol
_atom_type_description
_atom_site_fract_x
_atom_site_fract_y
_atom_site_fract_z
_atom_type_partial_charge
C1    C     C_R   0.500041 0.257505 0.499383 0.857391
C2    C     C_R   0.499959 0.742494 0.500617 0.857391
C3    C     C_3   0.570260 0.957131 0.435974 -0.178495
C4    C     C_3   0.429740 0.042869 0.564026 -0.178495
C5    C     C_3   0.499960 0.877650 0.501762 0.032925
C6    C     C_3   0.500039 0.122350 0.498238 0.032925
C7    C     C_3   0.499529 0.961048 0.630869 -0.140955
C8    C     C_3   0.500471 0.038952 0.369131 -0.140955
C9    C     C_3   0.487235 0.386535 0.047604 -0.080209
C10   C     C_3   0.512765 0.613465 0.952396 -0.080209
C11   C     C_3   0.559157 0.426901 0.950480 -0.065994
C12   C     C_3   0.440842 0.573099 0.049520 -0.065994
C13   C     C_3   0.428012 0.459669 0.951329 -0.071532
C14   C     C_3   0.571988 0.540331 0.048671 -0.071532
C15   C     C_R   0.338070 0.499556 0.500084 0.895818
C16   C     C_R   0.661930 0.500444 0.499916 0.895818
C17   C     C_3   0.970825 0.390187 0.544477 0.582611
C18   C     C_3   0.029175 0.609813 0.455523 0.582611
C19   C     C_3   0.027152 0.404356 0.416241 -0.323810
C20   C     C_3   0.972848 0.595644 0.583759 -0.323808
C21   C     C_1   0.249106 0.498010 0.500384 -0.188342
C22   C     C_1   0.750894 0.501990 0.499616 -0.188342
C23   C     C_3   0.027408 0.480500 0.629970 -0.322607
C24   C     C_3   0.972591 0.519500 0.370030 -0.322609
C25   C     C_3   0.082861 0.496849 0.500876 0.077220
C26   C     C_3   0.917139 0.503151 0.499124 0.077221
C27   C     C_1   0.173773 0.496924 0.500690 -0.000902
C28   C     C_1   0.826227 0.503075 0.499310 -0.000902
C29   C     C_3   0.569831 0.043227 0.564918 -0.177692
C30   C     C_3   0.430169 0.956773 0.435082 -0.177692
H1    H     H_    0.051330 0.325922 0.349956 0.152386
H2    H     H_    0.948670 0.674078 0.650044 0.152387
H3    H     H_    0.948164 0.536982 0.265291 0.152241
H4    H     H_    0.051836 0.463018 0.734709 0.152241
H5    H     H_    0.627395 0.917355 0.384160 0.130233
H6    H     H_    0.372605 0.082645 0.615840 0.130233
H7    H     H_    0.626616 0.083275 0.617485 0.138895
H8    H     H_    0.373384 0.916725 0.382515 0.138895
H9    H     H_    0.499127 0.925308 0.737561 0.134509
H10   H     H_    0.500873 0.074692 0.262438 0.134509
H11   H     H_    0.608933 0.365287 0.903908 0.124452
H12   H     H_    0.391067 0.634713 0.096092 0.124452
H13   H     H_    0.476449 0.290889 0.092290 0.117308
H14   H     H_    0.523551 0.709111 0.907710 0.117308
H15   H     H_    0.367379 0.425579 0.905636 0.123030
H16   H     H_    0.632621 0.574421 0.094364 0.123030
N1    N     N_3   0.499940 0.500030 0.863290 -0.073818
N2    N     N_3   0.500060 0.499970 0.136710 -0.073818
O1    O     O_R   0.500000 0.313960 0.616610 -0.621637
O2    O     O_R   0.500000 0.686040 0.383390 -0.621636
O3    O     O_R   0.500040 0.313950 0.383350 -0.628701
O4    O     O_R   0.499960 0.686050 0.616650 -0.628701
O5    O     O_R   0.376760 0.499990 0.616610 -0.618097
O6    O     O_R   0.623240 0.500010 0.383390 -0.618097
O7    O     O_R   0.376790 0.499980 0.383350 -0.610859
O8    O     O_R   0.623210 0.500020 0.616650 -0.610859
Zn1   Zn    Zn3+2 0.499980 0.500010 0.655740 0.940279
Zn2   Zn    Zn3+2 0.500020 0.499990 0.344260 0.940279
O9    O     O_3   0.932394 0.276665 0.590407 -0.607689
C31   C     C_3   0.996089 0.188715 0.626355 0.099584
H17   H     H_    0.034692 0.225496 0.713626 0.135169
H18   H     H_    0.038629 0.167734 0.537864 0.132275
C32   C     C_3   0.954173 0.064668 0.669835 -0.831865
H19   H     H_    0.913383 0.027258 0.585874 0.252682
H20   H     H_    0.003690 0.992884 0.693821 0.209581
H21   H     H_    0.914252 0.081132 0.762218 0.254615
O10   O     O_3   0.067606 0.723335 0.409593 -0.607689
C33   C     C_3   0.003911 0.811283 0.373640 0.099582
H22   H     H_    0.961369 0.832266 0.462129 0.132276
H23   H     H_    0.965310 0.774499 0.286368 0.135169
C34   C     C_3   0.045827 0.935329 0.330156 -0.831864
H24   H     H_    0.085751 0.918861 0.237778 0.254616
H25   H     H_    0.996310 0.007111 0.306162 0.209580
H26   H     H_    0.086613 0.972744 0.414119 0.252680

loop_
_geom_bond_atom_site_label_1
_geom_bond_atom_site_label_2
_ccdc_geom_bond_type
C4    H6    S    
C7    C29   S    
C11   N1    S    
C12   N2    S    
C19   H1    S    
C32   H20   S    
C14   H16   S    
C17   C23   S    
C31   C32   S    
C18   C24   S    
C17   C26   S    
C15   O5    A    
C24   C26   S    
C20   H2    S    
C11   C14   S    
O1    Zn1   S    
O8    Zn1   S    
C30   H8    S    
C31   H18   S    
C3    C29   S    
C9    C13   S    
C12   H12   S    
C2    O2    A    
C13   N1    S    
C33   H22   S    
C21   C27   T    
C32   H21   S    
O9    C31   S    
C22   C28   T    
C18   C25   S    
C4    C7    S    
C10   C12   S    
C9    H13   S    
C10   H14   S    
O10   C33   S    
O2    Zn2   S    
C4    C6    S    
C3    C8    S    
C10   C14   S    
C5    C7    S    
O5    Zn1   S    
C6    C8    S    
C18   O10   S    
C1    C6    S    
C31   H17   S    
C15   O7    A    
C16   O8    A    
N1    Zn1   S    
C1    O3    A    
C20   C23   S    
C3    H5    S    
C23   H4    S    
O3    Zn2   S    
C9    C11   S    
C2    O4    A    
C17   O9    S    
C2    C5    S    
C34   H25   S    
C5    C30   S    
O6    Zn2   S    
C16   C22   S    
C3    C5    S    
C34   H26   S    
C14   N2    S    
N2    Zn2   S    
C25   C27   S    
C26   C28   S    
C24   H3    S    
C8    C30   S    
C19   C24   S    
C34   H24   S    
C13   H15   S    
C20   C26   S    
C33   C34   S    
C17   C19   S    
C11   H11   S    
C18   C20   S    
C23   C25   S    
C19   C25   S    
C16   O6    A    
O4    Zn1   S    
C32   H19   S    
C15   C21   S    
C6    C29   S    
C12   C13   S    
C9    N2    S    
C33   H23   S    
O7    Zn2   S    
C29   H7    S    
C10   N1    S    
C7    H9    S    
C8    H10   S    
C1    O1    A    
C4    C30   S    
