data_mof_unit_50528.cif
_audit_creation_date              2012-12-10T19:12:33-0500
_audit_creation_method            fapswitch 2.2
_symmetry_space_group_name_H-M    P1
_symmetry_Int_Tables_number       1
_space_group_crystal_system       triclinic
_cell_length_a                    15.696651
_cell_length_b                    10.727738
_cell_length_c                    9.804421
_cell_angle_alpha                 90.248166
_cell_angle_beta                  90.277136
_cell_angle_gamma                 89.430655
_cell_volume                      1650.84616543

loop_
_atom_site_label
_atom_site_type_symbol
_atom_type_description
_atom_site_fract_x
_atom_site_fract_y
_atom_site_fract_z
_atom_type_partial_charge
C1    C     C_R   0.501976 0.258410 0.499684 0.838296
C2    C     C_3   0.564609 0.930712 0.603454 -0.357440
C3    C     C_3   0.406163 0.076540 0.508997 -0.270186
C4    C     C_R   0.338178 0.497809 0.499688 1.009959
C5    C     C_3   0.538602 0.073346 0.362808 -0.460525
C6    C     C_3   0.500025 0.122907 0.498991 0.042518
C7    C     C_3   0.499780 0.879935 0.497111 -0.102373
C8    C     C_3   0.405063 0.930632 0.529261 -0.220530
C9    C     C_3   0.530323 0.931023 0.354613 -0.171811
C10   C     C_3   0.511231 0.371179 0.081961 -0.287401
C11   C     C_3   0.504581 0.368551 0.919942 -0.267292
C12   C     C_3   0.083327 0.504411 0.496840 0.094773
C13   C     C_3   0.414941 0.542713 0.075851 -0.078844
C14   C     C_3   0.568874 0.573400 0.083995 -0.273624
C15   C     C_3   0.419616 0.553058 0.915751 -0.288998
C16   C     C_R   0.501759 0.742410 0.499719 0.960405
C17   C     C_3   0.573734 0.564643 0.923356 -0.062805
C18   C     C_R   0.661900 0.500454 0.500328 0.939574
C19   C     C_3   0.973217 0.392236 0.529242 0.192968
C20   C     C_3   0.028793 0.420987 0.403898 -0.241529
C21   C     C_1   0.249360 0.499630 0.498804 -0.059261
C22   C     C_1   0.750769 0.502784 0.500749 -0.102928
C23   C     C_3   0.972051 0.589302 0.589763 -0.196847
C24   C     C_3   0.029200 0.474195 0.622384 -0.176999
C25   C     C_2   0.347324 0.149440 0.604244 0.923473
C26   C     C_2   0.376933 0.894721 0.675132 0.953175
C27   C     C_2   0.612336 0.875918 0.295543 0.940982
C28   C     C_2   0.338789 0.873718 0.431210 0.884212
C29   C     C_3   0.939917 0.263470 0.566264 -0.433192
C30   C     C_3   0.012904 0.171684 0.592986 -0.801180
C31   C     C_2   0.588497 0.693619 0.869269 0.917184
C32   C     C_2   0.377748 0.661584 0.133151 0.968312
C33   C     C_2   0.940681 0.569075 0.232593 0.902312
C34   C     C_3   0.917002 0.505911 0.497063 0.036158
C35   C     C_3   0.063831 0.746554 0.429316 -0.368110
C36   C     C_3   0.993413 0.844466 0.413368 -0.833824
C37   C     C_3   0.027812 0.618701 0.464455 0.142063
C38   C     C_3   0.971918 0.535917 0.372748 -0.024183
C39   C     C_1   0.174104 0.501885 0.497805 -0.020164
C40   C     C_1   0.826066 0.504749 0.499688 0.010431
C41   C     C_3   0.556013 0.072029 0.616853 -0.388495
H1    H     H_    0.053746 0.352303 0.328650 0.170064
H2    H     H_    0.447841 0.314067 0.888988 0.222368
H3    H     H_    0.366424 0.470063 0.097808 0.122364
H4    H     H_    0.363601 0.504899 0.871002 0.165687
H5    H     H_    0.563013 0.670063 0.123169 0.230151
H6    H     H_    0.630280 0.538992 0.127417 0.167248
H7    H     H_    0.632625 0.510147 0.898421 0.112719
H8    H     H_    0.413974 0.650940 0.880103 0.214545
H9    H     H_    0.947111 0.657916 0.665062 0.169983
H10   H     H_    0.054743 0.448196 0.724266 0.160841
H11   H     H_    0.528059 0.096864 0.717408 0.247935
H12   H     H_    0.554664 0.888933 0.702413 0.244832
H13   H     H_    0.620590 0.114047 0.613855 0.151960
H14   H     H_    0.631203 0.906044 0.576116 0.221182
H15   H     H_    0.234640 0.239194 0.626791 0.332254
H16   H     H_    0.294714 0.801807 0.795294 0.343133
H17   H     H_    0.692178 0.870140 0.134952 0.342541
H18   H     H_    0.243732 0.897578 0.293352 0.361519
H19   H     H_    0.052871 0.160614 0.500463 0.272585
H20   H     H_    0.053230 0.204857 0.678894 0.260406
H21   H     H_    0.986623 0.079419 0.620143 0.250865
H22   H     H_    0.899856 0.271600 0.659019 0.212004
H23   H     H_    0.505507 0.113988 0.272351 0.197588
H24   H     H_    0.899830 0.228066 0.481122 0.210295
H25   H     H_    0.572599 0.875932 0.916765 0.363160
H26   H     H_    0.378291 0.848802 0.131019 0.348591
H27   H     H_    0.840411 0.601444 0.107885 0.340796
H28   H     H_    0.948889 0.817998 0.330123 0.274950
H29   H     H_    0.957330 0.854982 0.509943 0.255925
H30   H     H_    0.022072 0.935566 0.387768 0.259318
H31   H     H_    0.108002 0.776167 0.511933 0.239155
H32   H     H_    0.100478 0.739125 0.332935 0.245295
H33   H     H_    0.606465 0.102672 0.356900 0.187440
H34   H     H_    0.479791 0.911061 0.279558 0.175020
H35   H     H_    0.380214 0.099923 0.406585 0.187201
H36   H     H_    0.463081 0.307060 0.124797 0.175045
H37   H     H_    0.574289 0.333190 0.114843 0.169070
H38   H     H_    0.560720 0.318122 0.877154 0.159722
N1    N     N_3   0.498170 0.499750 0.138610 -0.097936
N2    N     N_3   0.498850 0.496730 0.861320 -0.095687
O1    O     O_R   0.499980 0.314910 0.616040 -0.618306
O2    O     O_R   0.268788 0.192785 0.554843 -0.804054
O3    O     O_2   0.414245 0.935286 0.775266 -0.577806
O4    O     O_R   0.306726 0.817287 0.695294 -0.792281
O5    O     O_2   0.656420 0.801548 0.359348 -0.641981
O6    O     O_R   0.637415 0.912571 0.165295 -0.808302
O7    O     O_2   0.328117 0.761318 0.430748 -0.589547
O8    O     O_R   0.285913 0.948022 0.348828 -0.800377
O9    O     O_2   0.648713 0.712573 0.793686 -0.647905
O10   O     O_R   0.541442 0.793874 0.922061 -0.747500
O11   O     O_2   0.307092 0.659792 0.185025 -0.609969
O12   O     O_R   0.500040 0.314680 0.383960 -0.653515
O13   O     O_R   0.416992 0.775238 0.109418 -0.776180
O14   O     O_2   0.992135 0.588194 0.142110 -0.624224
O15   O     O_R   0.853320 0.578211 0.206007 -0.802843
O16   O     O_R   0.376750 0.500100 0.616020 -0.629693
O17   O     O_R   0.376810 0.499870 0.383940 -0.594692
O18   O     O_R   0.499960 0.685320 0.616040 -0.612483
O19   O     O_R   0.500020 0.685090 0.383960 -0.605771
O20   O     O_R   0.623190 0.500130 0.616060 -0.618647
O21   O     O_R   0.623250 0.499900 0.383980 -0.609747
O22   O     O_2   0.367858 0.170492 0.722396 -0.612584
Zn1   Zn    Zn3+2 0.499960 0.500150 0.654960 0.969289
Zn2   Zn    Zn3+2 0.500040 0.499850 0.345040 0.968727

loop_
_geom_bond_atom_site_label_1
_geom_bond_atom_site_label_2
_ccdc_geom_bond_type
C32   O13   S    
C29   H22   S    
C4    O17   A    
C8    C26   S    
C13   C32   S    
C2    C7    S    
C17   H7    S    
C3    C6    S    
H17   O6    S    
C10   H37   S    
C7    C8    S    
C14   H5    S    
C11   N2    S    
O19   Zn2   S    
H27   O15   S    
O17   Zn2   S    
C34   C40   S    
C35   C37   S    
C37   C38   S    
C2    H14   S    
C18   O21   A    
C5    C6    S    
C2    C41   S    
C5    H33   S    
O21   Zn2   S    
H18   O8    S    
C12   C37   S    
O12   Zn2   S    
C35   C36   S    
C6    C41   S    
C30   H19   S    
C28   O7    D    
H26   O13   S    
C23   C24   S    
C11   H2    S    
C28   O8    S    
C14   N1    S    
C41   H11   S    
C36   H30   S    
C31   O9    D    
C24   H10   S    
O18   Zn1   S    
C13   N1    S    
C34   C38   S    
C4    O16   A    
C14   C17   S    
C33   O14   D    
C10   H36   S    
C36   H29   S    
C1    C6    S    
C3    C25   S    
C15   N2    S    
C3    C8    S    
C10   N1    S    
C16   O19   A    
C23   H9    S    
C1    O1    A    
C23   C37   S    
N1    Zn2   S    
C2    H12   S    
C5    H23   S    
C18   O20   A    
C27   O5    D    
C5    C9    S    
C29   C30   S    
C20   C38   S    
C21   C39   T    
C23   C34   S    
C22   C40   T    
C12   C20   S    
C27   O6    S    
C3    H35   S    
H25   O10   S    
C11   H38   S    
C29   H24   S    
C7    C16   S    
C35   H31   S    
O20   Zn1   S    
C31   O10   S    
C13   C15   S    
C17   C31   S    
C15   H4    S    
C19   C29   S    
C33   O15   S    
C36   H28   S    
C9    C27   S    
H15   O2    S    
C7    C9    S    
C35   H32   S    
C26   O3    D    
C18   C22   S    
C25   O22   D    
C19   C34   S    
C20   H1    S    
C16   O18   A    
C14   H6    S    
C12   C24   S    
C33   C38   S    
C19   C20   S    
C30   H21   S    
C19   C24   S    
C4    C21   S    
C32   O11   D    
C12   C39   S    
C26   O4    S    
C8    C28   S    
H16   O4    S    
C17   N2    S    
C15   H8    S    
C41   H13   S    
O16   Zn1   S    
C10   C11   S    
C1    O12   A    
C30   H20   S    
C25   O2    S    
O1    Zn1   S    
C9    H34   S    
C13   H3    S    
N2    Zn1   S    
