data_mof_unit_49697.cif
_audit_creation_date              2012-12-10T19:47:23-0500
_audit_creation_method            fapswitch 2.2
_symmetry_space_group_name_H-M    P1
_symmetry_Int_Tables_number       1
_space_group_crystal_system       triclinic
_cell_length_a                    15.010632
_cell_length_b                    14.121771
_cell_length_c                    10.781775
_cell_angle_alpha                 90.907429
_cell_angle_beta                  90.039202
_cell_angle_gamma                 90.006018
_cell_volume                      2285.19798859

loop_
_atom_site_label
_atom_site_type_symbol
_atom_type_description
_atom_site_fract_x
_atom_site_fract_y
_atom_site_fract_z
_atom_type_partial_charge
C1    C     C_R   0.327693 0.500040 0.500032 0.866364
C2    C     C_R   0.951905 0.500607 0.498788 0.114646
C3    C     C_R   0.452313 0.105832 0.589233 -0.218877
C4    C     C_R   0.546892 0.104070 0.408741 -0.221824
C5    C     C_R   0.453272 0.205327 0.588073 -0.003364
C6    C     C_R   0.546334 0.203607 0.411138 -0.003955
C7    C     C_R   0.499648 0.053490 0.498822 0.240315
C8    C     C_R   0.580698 0.895837 0.494193 0.384906
C9    C     C_R   0.418852 0.895760 0.502187 0.387988
C10   C     C_R   0.578592 0.795653 0.498541 -0.186972
C11   C     C_R   0.421260 0.795441 0.498600 -0.146628
C12   C     C_R   0.672307 0.500042 0.499841 0.870994
C13   C     C_R   0.499750 0.946909 0.498546 -0.150350
C14   C     C_R   0.491191 0.499699 0.260296 0.879756
C15   C     C_R   0.505937 0.501370 0.740684 0.881644
C16   C     C_R   0.432192 0.668446 0.120647 -0.335392
C17   C     C_R   0.519592 0.682221 0.895084 -0.374900
C18   C     C_R   0.443802 0.757343 0.068456 0.499729
C19   C     C_R   0.490957 0.765800 0.957341 0.471501
C20   C     C_R   0.499842 0.591555 0.942505 0.050412
C21   C     C_R   0.469676 0.586569 0.064571 0.025674
C22   C     C_R   0.481196 0.500216 0.127369 -0.077475
C23   C     C_R   0.231974 0.500250 0.499544 -0.027429
C24   C     C_R   0.509977 0.504994 0.874692 -0.079814
C25   C     C_R   0.499373 0.416398 0.062013 -0.211359
C26   C     C_R   0.510096 0.418351 0.935812 -0.215684
C27   C     C_R   0.094162 0.580812 0.541738 -0.173160
C28   C     C_R   0.905689 0.579641 0.455815 -0.174671
C29   C     C_R   0.186122 0.580818 0.541557 -0.189667
C30   C     C_R   0.813730 0.579709 0.456891 -0.194062
C31   C     C_3   0.717334 0.914654 0.401334 -0.328162
C32   C     C_3   0.280277 0.915969 0.590302 -0.318338
C33   C     C_3   0.471321 0.884470 0.194113 -0.238904
C34   C     C_R   0.768032 0.500239 0.499515 -0.028007
C35   C     C_3   0.515872 0.864313 0.789668 -0.279092
C36   C     C_R   0.185985 0.420022 0.456729 -0.191822
C37   C     C_R   0.814181 0.421009 0.541852 -0.193567
C38   C     C_R   0.094041 0.420486 0.455456 -0.174677
C39   C     C_R   0.906129 0.421447 0.542230 -0.174954
C40   C     C_R   0.048105 0.500705 0.498483 0.113561
H1    H     H_    0.506457 0.349281 0.108363 0.166444
H2    H     H_    0.778500 0.641063 0.422935 0.141920
H3    H     H_    0.220991 0.357706 0.422864 0.160148
H4    H     H_    0.779304 0.359547 0.576094 0.159044
H5    H     H_    0.058822 0.358752 0.420113 0.136105
H6    H     H_    0.941472 0.360594 0.577394 0.135790
H7    H     H_    0.415448 0.070112 0.660964 0.149772
H8    H     H_    0.583265 0.066911 0.336253 0.144004
H9    H     H_    0.416612 0.244962 0.657893 0.133145
H10   H     H_    0.582841 0.241923 0.341501 0.128729
H11   H     H_    0.681147 0.904865 0.311689 0.142858
H12   H     H_    0.519718 0.351716 0.886407 0.168854
H13   H     H_    0.752756 0.848667 0.426604 0.162591
H14   H     H_    0.768669 0.969906 0.387007 0.197742
H15   H     H_    0.228546 0.971338 0.603091 0.198497
H16   H     H_    0.314562 0.907996 0.681265 0.152289
H17   H     H_    0.245491 0.849453 0.562909 0.162614
H18   H     H_    0.521174 0.918652 0.133418 0.190840
H19   H     H_    0.505595 0.836743 0.259772 0.137972
H20   H     H_    0.438488 0.941927 0.248245 0.204302
H21   H     H_    0.460904 0.824876 0.743009 0.156208
H22   H     H_    0.582174 0.840560 0.755966 0.180476
H23   H     H_    0.640089 0.756294 0.502103 0.168428
H24   H     H_    0.508757 0.939983 0.765819 0.192069
H25   H     H_    0.359935 0.755736 0.494432 0.166547
H26   H     H_    0.394112 0.664510 0.205622 0.200744
H27   H     H_    0.561545 0.688535 0.814590 0.194303
H28   H     H_    0.059045 0.642674 0.576791 0.132119
H29   H     H_    0.940682 0.640646 0.420476 0.132602
H30   H     H_    0.221224 0.643000 0.575785 0.142322
N1    N     N_R   0.500000 0.252470 0.500000 -0.095046
N2    N     N_R   0.500000 0.747550 0.500000 -0.134280
O1    O     O_R   0.369060 0.579480 0.500010 -0.635292
O2    O     O_3   0.338943 0.944959 0.495885 -0.584842
O3    O     O_3   0.405533 0.835876 0.124880 -0.581661
O4    O     O_3   0.511160 0.857028 0.919170 -0.611200
O5    O     O_R   0.630940 0.579480 0.499990 -0.632146
O6    O     O_R   0.369050 0.420520 0.500010 -0.620584
O7    O     O_R   0.630950 0.420520 0.499990 -0.620717
O8    O     O_R   0.500000 0.579490 0.316770 -0.614015
O9    O     O_R   0.500000 0.579490 0.683230 -0.620337
O10   O     O_R   0.499990 0.420540 0.316770 -0.629649
O11   O     O_R   0.500010 0.420540 0.683230 -0.628495
O12   O     O_3   0.660620 0.945202 0.498447 -0.589135
Zn1   Zn    Zn3+2 0.500000 0.606140 0.500000 0.932344
Zn2   Zn    Zn3+2 0.500000 0.393860 0.500000 0.951188

loop_
_geom_bond_atom_site_label_1
_geom_bond_atom_site_label_2
_ccdc_geom_bond_type
C18   O3    S    
C27   C29   A    
C34   C37   A    
C28   H29   S    
C33   H18   S    
C10   H23   S    
N2    Zn1   S    
C15   O9    A    
C8    C13   A    
C23   C29   A    
C19   O4    S    
C24   C26   A    
C3    C7    A    
C32   O2    S    
C12   O7    A    
C17   C20   A    
C18   C19   A    
C3    H7    S    
C9    C13   A    
C38   H5    S    
C27   H28   S    
C2    C39   A    
C33   O3    S    
C20   C24   A    
C22   C25   A    
C35   H24   S    
C14   O8    A    
C32   H15   S    
O6    Zn2   S    
O5    Zn1   S    
C33   H19   S    
C21   C22   A    
C1    O6    A    
C5    H9    S    
C32   H17   S    
C4    C7    A    
C6    N1    A    
C37   C39   A    
C35   O4    S    
C17   H27   S    
C30   C34   A    
C4    C6    A    
C25   H1    S    
C11   N2    A    
C15   O11   A    
C25   C26   A    
O10   Zn2   S    
C6    H10   S    
C31   O12   S    
O8    Zn1   S    
C26   H12   S    
N1    Zn2   S    
C27   C40   A    
C12   O5    A    
C35   H21   S    
C31   H13   S    
C9    C11   A    
O1    Zn1   S    
C39   H6    S    
C16   C18   A    
C15   C24   S    
C1    C23   S    
C33   H20   S    
C16   H26   S    
C9    O2    S    
C14   O10   A    
C12   C34   S    
C29   H30   S    
C4    H8    S    
C8    O12   S    
C31   H11   S    
C3    C5    A    
C16   C21   A    
C1    O1    A    
C14   C22   S    
C37   H4    S    
C36   C38   A    
C5    N1    A    
C38   C40   A    
C28   C30   A    
C17   C19   A    
C35   H22   S    
C31   H14   S    
C2    C40   S    
C7    C13   S    
O11   Zn2   S    
C20   C21   A    
C8    C10   A    
C23   C36   A    
C30   H2    S    
C36   H3    S    
C2    C28   A    
C32   H16   S    
O7    Zn2   S    
O9    Zn1   S    
C11   H25   S    
C10   N2    A    
