data_mof_unit_30135.cif
_audit_creation_date              2013-03-05T16:19:45-0500
_audit_creation_method            fapswitch 2.2
_symmetry_space_group_name_H-M    P1
_symmetry_Int_Tables_number       1
_space_group_crystal_system       triclinic
_cell_length_a                    11.102566
_cell_length_b                    10.148093
_cell_length_c                    27.604354
_cell_angle_alpha                 90.546481
_cell_angle_beta                  89.716265
_cell_angle_gamma                 90.600859
_cell_volume                      3109.82994403

loop_
_atom_site_label
_atom_site_type_symbol
_atom_site_description
_atom_site_fract_x
_atom_site_fract_y
_atom_site_fract_z
_atom_type_partial_charge
O1    O     O_R   0.314910 0.616040 0.499990 -0.602675
O2    O     O_R   0.314910 0.383960 0.499990 -0.594204
C1    C     C_R   0.258212 0.500262 0.494685 0.940249
O3    O     O_R   0.500140 0.616020 0.428740 -0.610714
O4    O     O_R   0.500140 0.383980 0.428740 -0.596580
C2    C     C_R   0.498613 0.499428 0.406533 0.910612
Zn1   Zn    Zn3+2 0.500150 0.654960 0.499980 0.988460
Zn2   Zn    Zn3+2 0.500150 0.345040 0.499980 1.013153
O5    O     O_R   0.685320 0.616040 0.499970 -0.599931
O6    O     O_R   0.685320 0.383960 0.499970 -0.538616
O7    O     O_R   0.500090 0.616050 0.571230 -0.614251
O8    O     O_R   0.500090 0.383950 0.571230 -0.621772
C3    C     C_R   0.739618 0.502004 0.495245 0.925090
C4    C     C_R   0.500481 0.500110 0.593407 0.905920
C5    C     C_R   0.354056 0.496859 0.179134 0.586572
O9    O     O_2   0.253755 0.500939 0.206731 -0.453647
N1    N     N_R   0.463611 0.492841 0.201369 -0.352139
C6    C     C_R   0.569108 0.488986 0.176004 0.577591
C7    C     C_R   0.470647 0.376103 0.278287 0.313763
C8    C     C_R   0.481445 0.377822 0.328377 -0.197373
C9    C     C_R   0.488125 0.617059 0.328225 -0.124891
C10   C     C_R   0.477359 0.616635 0.277896 0.158010
C11   C     C_R   0.468875 0.495224 0.252982 0.221434
C12   C     C_R   0.456475 0.496239 0.101429 -0.094520
C13   C     C_R   0.347099 0.498345 0.128141 -0.104761
C14   C     C_R   0.236655 0.500601 0.102593 0.342475
C15   C     C_R   0.567749 0.490312 0.125573 -0.073851
C16   C     C_R   0.490561 0.498034 0.353651 -0.114649
H1    H     H_    0.494489 0.710418 0.347452 0.183075
C17   C     C_R   0.492048 0.497746 0.646384 -0.118435
C18   C     C_R   0.347858 0.540419 0.975101 0.029435
C19   C     C_R   0.553388 0.455806 0.973683 0.028373
C20   C     C_R   0.448195 0.493161 0.948820 0.052593
C21   C     C_R   0.253946 0.603432 0.949713 0.057995
C22   C     C_R   0.247290 0.591068 0.898889 0.340336
C23   C     C_R   0.343908 0.533213 0.872434 -0.135811
C24   C     C_R   0.444072 0.482875 0.897830 -0.138441
C25   C     C_R   0.540333 0.421138 0.872479 -0.094402
C26   C     C_R   0.537295 0.419053 0.821740 0.586481
N2    N     N_R   0.445112 0.477003 0.797899 -0.353163
C27   C     C_R   0.348802 0.530671 0.821318 0.611988
C28   C     C_R   0.398803 0.396981 0.716523 0.322018
C29   C     C_R   0.416369 0.401927 0.666932 -0.235196
C30   C     C_R   0.555719 0.587631 0.676517 0.112312
C31   C     C_R   0.532135 0.588256 0.726861 0.166679
C32   C     C_R   0.455354 0.490200 0.746543 0.180673
O10   O     O_2   0.261498 0.584851 0.794584 -0.453573
C33   C     C_R   0.345793 0.520202 0.025904 0.021642
C34   C     C_R   0.455128 0.499800 0.050377 0.053833
C35   C     C_R   0.563022 0.481739 0.023828 -0.002699
C36   C     C_R   0.237589 0.510600 0.052302 -0.247721
H2    H     H_    0.370528 0.329762 0.644284 0.213837
H3    H     H_    0.152060 0.506904 0.033777 0.215543
O11   O     O_2   0.674942 0.484418 0.199811 -0.491359
C37   C     C_R   0.675487 0.490675 0.099082 -0.116009
H4    H     H_    0.482310 0.284926 0.347353 0.206889
H5    H     H_    0.761506 0.495257 0.117430 0.240341
C38   C     C_R   0.640951 0.383577 0.948728 -0.181722
C39   C     C_R   0.636018 0.365540 0.898950 0.337115
O12   O     O_2   0.626855 0.363971 0.795677 -0.470986
C40   C     C_R   0.674522 0.488395 0.048739 0.238394
H6    H     H_    0.711569 0.334608 0.968183 0.210401
C41   C     C_3   0.069618 0.631924 0.463405 0.083304
C42   C     C_3   0.067108 0.515874 0.543265 0.027651
H7    H     H_    0.110519 0.718850 0.481288 0.171370
H8    H     H_    0.090073 0.617931 0.555683 0.140386
C43   C     C_3   0.928801 0.646915 0.471530 -0.127255
C44   C     C_3   0.927315 0.504484 0.544152 -0.163049
H9    H     H_    0.921077 0.719052 0.501924 0.192475
H10   H     H_    0.897474 0.598657 0.561356 0.186715
C45   C     C_3   0.059492 0.379051 0.461425 0.201126
C46   C     C_3   0.118024 0.503637 0.489826 -0.160138
C47   C     C_3   0.874290 0.508777 0.490505 -0.105526
C48   C     C_3   0.921134 0.401656 0.452339 0.459361
C49   C     C_3   0.376222 0.078148 0.502391 0.400793
C50   C     C_3   0.375492 0.916252 0.500843 0.427891
H11   H     H_    0.520261 0.110117 0.420909 0.214694
H12   H     H_    0.530234 0.878890 0.421747 0.210022
C51   C     C_3   0.558674 0.076266 0.455529 -0.265128
C52   C     C_3   0.563815 0.920239 0.456486 -0.309559
C53   C     C_3   0.566584 0.080090 0.541287 0.151980
C54   C     C_3   0.562746 0.921834 0.542247 0.136471
N3    N     N_3   0.499750 0.138610 0.498940 -0.122822
N4    N     N_3   0.499750 0.861390 0.498940 -0.126071
H13   H     H_    0.530046 0.117571 0.575905 0.127157
H14   H     H_    0.515236 0.892826 0.575982 0.109844
H15   H     H_    0.650258 0.110358 0.453426 0.255542
H16   H     H_    0.659492 0.890307 0.456766 0.207324
Br1   Br    Br    0.459322 0.209527 0.245178 -0.406253
C55   C     C_3   0.653325 0.676070 0.656162 -0.757339
H17   H     H_    0.732753 0.679599 0.680373 0.252807
H18   H     H_    0.688314 0.637496 0.621240 0.248761
H19   H     H_    0.618039 0.777096 0.651735 0.265179
Br2   Br    Br    0.764796 0.261827 0.871819 -0.298093
C56   C     C_3   0.590887 0.690916 0.759498 -0.756815
H20   H     H_    0.688358 0.670222 0.763121 0.263678
H21   H     H_    0.579183 0.790570 0.744054 0.254432
H22   H     H_    0.550914 0.693821 0.796358 0.229946
Br3   Br    Br    0.827643 0.523792 0.017921 -0.463806
Br4   Br    Br    0.120518 0.647804 0.394921 -0.401502
Br5   Br    Br    0.148706 0.419260 0.594876 -0.555846
C57   C     C_3   0.475612 0.744944 0.250968 -0.741380
H23   H     H_    0.482905 0.831099 0.275956 0.255795
H24   H     H_    0.552410 0.749351 0.225112 0.248051
H25   H     H_    0.390007 0.752965 0.230651 0.259808
C58   C     C_3   0.861725 0.726334 0.431749 -0.621312
H26   H     H_    0.895319 0.712409 0.394498 0.301391
H27   H     H_    0.764722 0.702861 0.429690 0.235042
H28   H     H_    0.871452 0.833874 0.439137 0.239496
C59   C     C_3   0.872935 0.412370 0.583022 -0.640708
H29   H     H_    0.907495 0.311499 0.581969 0.297096
H30   H     H_    0.896932 0.450872 0.619631 0.257105
H31   H     H_    0.773287 0.412332 0.582567 0.235531
C60   C     C_3   0.123612 0.347532 0.412046 -0.570131
H32   H     H_    0.092984 0.400445 0.380181 0.277280
H33   H     H_    0.221065 0.370882 0.413168 0.238784
H34   H     H_    0.105995 0.244226 0.400398 0.277562
C61   C     C_3   0.068384 0.256162 0.494168 -0.664040
H35   H     H_    0.066024 0.161011 0.474099 0.283913
H36   H     H_    0.147363 0.261956 0.515792 0.284071
H37   H     H_    0.994442 0.248294 0.520215 0.260540
Br6   Br    Br    0.868991 0.450730 0.386522 -0.433915
Br7   Br    Br    0.842851 0.231065 0.443562 -0.467190
Br8   Br    Br    0.296064 0.143493 0.445745 -0.513319
Br9   Br    Br    0.298915 0.847841 0.442271 -0.402858
C62   C     C_3   0.310154 0.129669 0.549178 -0.843850
H38   H     H_    0.347908 0.096693 0.583697 0.182977
H39   H     H_    0.318570 0.234787 0.555742 0.308966
H40   H     H_    0.214981 0.095590 0.549889 0.262878
C63   C     C_3   0.301996 0.854760 0.544458 -0.816294
H41   H     H_    0.310209 0.903174 0.579911 0.190826
H42   H     H_    0.204390 0.847936 0.536596 0.244405
H43   H     H_    0.337211 0.761251 0.556809 0.287042
Br10  Br    Br    0.726964 0.149931 0.550641 -0.437029
Br11  Br    Br    0.720707 0.844846 0.554026 -0.498649
Br12  Br    Br    0.079104 0.489128 0.131916 -0.310505
Br13  Br    Br    0.298382 0.259638 0.742480 -0.356765
Br14  Br    Br    0.100567 0.651384 0.868452 -0.311117
C64   C     C_3   0.172086 0.702144 0.974675 -0.751405
H44   H     H_    0.169676 0.794682 0.953563 0.266024
H45   H     H_    0.079185 0.661456 0.977708 0.286731
H46   H     H_    0.205343 0.732732 0.010916 0.240254

loop_
_geom_bond_atom_site_label_1
_geom_bond_atom_site_label_2
_geom_bond_distance
_ccdc_geom_bond_type
C38   H6    1.080527 S    
C41   H7    1.101622 S    
C62   H38   1.099386 S    
Zn2   N3    2.094753 S    
C47   C48   1.595848 S    
C63   H42   1.107573 S    
C7    C8    1.388418 A    
C12   C15   1.408749 A    
C19   C38   1.398435 A    
C8    H4    1.082984 S    
C50   N4    1.493590 S    
C51   H15   1.072100 S    
C60   H32   1.092481 S    
C56   H22   1.108304 S    
C53   Br10  1.927234 S    
C31   C32   1.414213 A    
Zn1   O7    2.009743 S    
N1    C11   1.426201 S    
C42   C44   1.555233 S    
C23   C24   1.419718 A    
C22   Br14  1.943844 S    
O4    C2    1.327729 A    
O7    C4    1.331534 A    
C15   C37   1.398879 A    
C29   H2    1.082963 S    
C5    C13   1.410372 A    
C58   H26   1.100439 S    
C5    O9    1.346889 S    
C21   C64   1.517902 S    
C57   H25   1.110076 S    
C5    N1    1.366309 A    
C21   C22   1.409605 A    
C28   C32   1.397694 A    
C54   Br11  1.957311 S    
O5    C3    1.315532 A    
C59   H29   1.097035 S    
C61   H35   1.108779 S    
C63   H41   1.094634 S    
C50   C63   1.580728 S    
C33   C36   1.404975 A    
C2    C16   1.462872 S    
C56   H20   1.109714 S    
C18   C20   1.412036 A    
C43   C47   1.612094 S    
C39   Br2   1.928425 S    
C52   N4    1.494044 S    
Zn1   N4    2.095394 S    
C9    C10   1.394983 A    
C28   Br13  1.917708 S    
C50   Br9   1.949059 S    
C17   C30   1.414743 A    
C23   C27   1.411782 A    
C40   Br3   1.929141 S    
C4    C17   1.465320 S    
O3    Zn1   2.002147 S    
C53   N3    1.516838 S    
C53   C54   1.606590 S    
C61   H36   1.063999 S    
H11   C51   1.107502 S    
C42   Br5   1.967188 S    
C41   C43   1.587019 S    
C49   Br8   1.929453 S    
C12   C13   1.417801 A    
O3    C2    1.327348 A    
C26   N2    1.361287 A    
C8    C16   1.402524 A    
C41   Br4   1.977986 S    
C44   C47   1.597485 S    
C54   H14   1.108689 S    
C9    H1    1.083351 S    
C20   C24   1.411341 A    
C51   C52   1.585481 S    
C45   C60   1.566494 S    
O1    C1    1.334272 A    
C61   H37   1.091413 S    
C42   H8    1.115221 S    
C7    C11   1.402267 A    
C49   C50   1.643016 S    
C24   C25   1.422231 A    
C7    Br1   1.917252 S    
C45   C48   1.577187 S    
C55   H18   1.107139 S    
Zn2   O8    2.002361 S    
N1    C6    1.362357 A    
C27   O10   1.346273 S    
C18   C21   1.420192 A    
C44   C59   1.546131 S    
C57   H24   1.110068 S    
C59   H31   1.106476 S    
C19   C35   1.410916 A    
Zn2   O6    2.089385 S    
N2    C27   1.362561 A    
C48   Br6   1.979351 S    
C9    C16   1.403340 A    
O8    C4    1.323079 A    
C54   N4    1.509917 S    
C18   C33   1.419299 A    
C37   H5    1.083591 S    
C17   C29   1.400674 A    
C38   C39   1.385750 A    
C63   H43   1.088513 S    
C28   C29   1.383124 A    
N2    C32   1.429102 S    
C31   C56   1.515327 S    
C30   C55   1.509545 S    
C30   C31   1.412856 A    
C55   H19   1.109400 S    
C43   H9    1.111781 S    
C12   C34   1.410236 A    
Zn1   O5    2.097519 S    
C33   C34   1.410266 A    
C62   H39   1.083472 S    
C45   C61   1.551411 S    
O1    Zn1   2.090148 S    
O2    Zn2   2.098283 S    
C6    C15   1.392480 A    
C3    C47   1.501191 S    
O6    C3    1.342576 A    
C10   C57   1.505817 S    
O4    Zn2   2.009537 S    
C60   H33   1.105717 S    
C64   H44   1.110569 S    
C56   H21   1.110354 S    
C43   C58   1.564497 S    
C62   H40   1.108498 S    
C49   C62   1.570104 S    
C19   C20   1.414549 A    
O2    C1    1.352954 A    
C13   C14   1.418075 A    
C45   C46   1.613793 S    
C52   H16   1.107978 S    
C14   C36   1.392893 A    
C51   N3    1.500238 S    
C64   H45   1.110064 S    
C49   N3    1.499555 S    
C55   H17   1.109196 S    
C25   C26   1.401149 A    
C58   H27   1.102192 S    
C26   O12   1.347475 S    
C37   C40   1.389737 A    
C64   H46   1.108523 S    
C48   Br7   1.942577 S    
H12   C52   1.107817 S    
C42   C46   1.581386 S    
C57   H23   1.111010 S    
C59   H30   1.112576 S    
C60   H34   1.109322 S    
C14   Br12  1.926661 S    
C6    O11   1.350583 S    
C25   C39   1.417393 A    
C1    C46   1.563638 S    
C41   C46   1.597586 S    
C44   H10   1.115818 S    
C34   C35   1.413860 A    
C35   C40   1.419759 A    
C10   C11   1.407809 A    
C22   C23   1.423384 A    
C36   H3    1.080893 S    
C53   H13   1.102213 S    
C58   H28   1.112551 S    
