data_mof_unit_59916.cif
_audit_creation_date              2012-12-11T15:34:52-0500
_audit_creation_method            fapswitch 2.2
_symmetry_space_group_name_H-M    P1
_symmetry_Int_Tables_number       1
_space_group_crystal_system       triclinic
_cell_length_a                    30.508284
_cell_length_b                    7.247853
_cell_length_c                    26.004078
_cell_angle_alpha                 90.024796
_cell_angle_beta                  112.044573
_cell_angle_gamma                 90.02896
_cell_volume                      5329.63746108

loop_
_atom_site_label
_atom_site_type_symbol
_atom_type_description
_atom_site_fract_x
_atom_site_fract_y
_atom_site_fract_z
_atom_type_partial_charge
O1    O     O_R   0.295360 0.592990 0.320420 -0.538743
O2    O     O_R   0.704640 0.407010 0.679580 -0.530237
O3    O     O_R   0.204640 0.092990 0.179580 -0.538658
O4    O     O_R   0.795360 0.907010 0.820420 -0.537688
O5    O     O_R   0.294060 0.265620 0.213230 -0.543235
O6    O     O_R   0.705940 0.734380 0.786770 -0.542289
O7    O     O_R   0.205940 0.765620 0.286770 -0.543226
O8    O     O_R   0.794060 0.234380 0.713230 -0.537752
C1    C     C_R   0.304103 0.432298 0.199467 0.698270
C2    C     C_R   0.695897 0.567702 0.800533 0.698696
C3    C     C_R   0.195912 0.932285 0.300550 0.697497
C4    C     C_R   0.804156 0.067701 0.699525 0.690528
O9    O     O_R   0.300850 0.263360 0.322080 -0.526610
O10   O     O_R   0.699150 0.736640 0.677920 -0.541801
O11   O     O_R   0.199150 0.763360 0.177920 -0.525739
O12   O     O_R   0.800850 0.236640 0.822080 -0.526142
O13   O     O_R   0.211480 0.091820 0.289210 -0.533577
O14   O     O_R   0.788520 0.908180 0.710790 -0.538431
O15   O     O_R   0.288520 0.591820 0.210790 -0.533313
O16   O     O_R   0.711480 0.408180 0.789210 -0.533875
C5    C     C_R   0.313210 0.431572 0.343218 0.720941
C6    C     C_R   0.686817 0.568445 0.656746 0.725154
C7    C     C_R   0.186774 0.931396 0.156773 0.720993
C8    C     C_R   0.813227 0.068603 0.843227 0.722249
O17   O     O_3   0.220670 0.426670 0.239090 -0.375968
O18   O     O_3   0.779330 0.573330 0.760910 -0.374231
O19   O     O_3   0.279330 0.926670 0.260910 -0.376141
O20   O     O_3   0.720670 0.073330 0.739090 -0.377327
V1    V     V_3+5 0.255440 0.152290 0.252020 1.435287
V2    V     V_3+5 0.744560 0.847710 0.747980 1.417030
V3    V     V_3+5 0.244560 0.652290 0.247980 1.436125
V4    V     V_3+5 0.755440 0.347710 0.752020 1.449641
C9    C     C_R   0.849672 0.063798 0.899989 -0.051333
C10   C     C_R   0.150328 0.936202 0.100010 -0.050946
C11   C     C_R   0.650366 0.562715 0.599995 -0.047934
C12   C     C_R   0.349627 0.437360 0.399964 -0.049865
C13   C     C_R   0.873070 0.121234 0.998330 -0.160528
C14   C     C_R   0.126931 0.878769 0.001669 -0.160681
C15   C     C_R   0.627570 0.605017 0.501088 -0.162258
C16   C     C_R   0.372498 0.391314 0.498725 -0.160406
C17   C     C_R   0.837715 0.113847 0.945137 0.179330
C18   C     C_R   0.162285 0.886154 0.054862 0.179455
C19   C     C_R   0.662695 0.603624 0.554481 0.176143
C20   C     C_R   0.337300 0.395097 0.445382 0.178589
C21   C     C_R   0.896839 0.021357 0.908505 -0.257327
C22   C     C_R   0.103161 0.978644 0.091494 -0.257388
C23   C     C_R   0.603001 0.524713 0.591674 -0.260126
C24   C     C_R   0.396992 0.475263 0.408311 -0.257358
C25   C     C_R   0.933541 0.030483 0.962237 0.051394
C26   C     C_R   0.066460 0.969520 0.037762 0.051413
C27   C     C_R   0.566515 0.528468 0.537732 0.051539
C28   C     C_R   0.433525 0.469618 0.462192 0.051568
C29   C     C_R   0.920633 0.081503 0.007431 0.100468
C30   C     C_R   0.079367 0.918501 0.992568 0.100465
C31   C     C_R   0.579832 0.569478 0.492149 0.100604
C32   C     C_R   0.420239 0.427199 0.507710 0.100368
C33   C     C_R   0.982459 0.992945 0.972462 0.036209
C34   C     C_R   0.017542 0.007059 0.027537 0.036239
C35   C     C_R   0.517449 0.494572 0.527622 0.036162
C36   C     C_R   0.482609 0.502952 0.472289 0.036200
C37   C     C_R   0.002593 0.057826 0.070706 -0.226528
C38   C     C_R   0.997407 0.942179 0.929292 -0.226523
C39   C     C_R   0.497968 0.543597 0.428729 -0.226719
C40   C     C_R   0.502124 0.452744 0.571135 -0.226862
C41   C     C_R   0.955303 0.094092 0.061237 0.177436
C42   C     C_R   0.044697 0.905914 0.938762 0.177429
C43   C     C_R   0.545412 0.575970 0.438082 0.177249
C44   C     C_R   0.454695 0.419671 0.561746 0.177386
H1    H     H_    0.096474 0.014034 0.128084 0.107672
H2    H     H_    0.903526 0.985966 0.871915 0.107857
H3    H     H_    0.403899 0.505489 0.371537 0.107006
H4    H     H_    0.596039 0.496065 0.628505 0.106854
H5    H     H_    0.863114 0.160154 0.032669 0.163906
H6    H     H_    0.136886 0.839849 0.967331 0.163890
H7    H     H_    0.637829 0.636611 0.466463 0.164627
H8    H     H_    0.362262 0.358690 0.533300 0.163946
H9    H     H_    0.026821 0.071587 0.113030 0.127876
H10   H     H_    0.973180 0.928419 0.886969 0.127936
H11   H     H_    0.473979 0.551620 0.386151 0.127864
H12   H     H_    0.526159 0.443586 0.613670 0.127865
C45   C     C_R   0.073468 0.830965 0.459337 0.575949
C46   C     C_R   0.927199 0.169499 0.541409 0.577230
C47   C     C_R   0.426856 0.330546 0.041026 0.575916
C48   C     C_R   0.573147 0.669452 0.958978 0.575994
N1    N     N_R   0.073347 0.971488 0.423764 -0.555818
N2    N     N_R   0.927350 0.029060 0.577031 -0.555915
N3    N     N_R   0.426903 0.471342 0.076519 -0.555812
N4    N     N_R   0.573100 0.528658 0.923485 -0.555813
C49   C     C_R   0.044688 0.122856 0.417846 0.578672
C50   C     C_R   0.956106 0.877913 0.583051 0.578063
C51   C     C_R   0.455547 0.622889 0.082419 0.578703
C52   C     C_R   0.544455 0.377110 0.917584 0.578592
C53   C     C_R   0.015478 0.138186 0.448688 -0.024887
C54   C     C_R   0.985310 0.862574 0.552201 -0.024506
C55   C     C_R   0.484806 0.638144 0.051632 -0.024933
C56   C     C_R   0.515197 0.361855 0.948372 -0.024872
C57   C     C_R   0.015093 0.994420 0.484892 -0.019067
C58   C     C_R   0.985673 0.006282 0.515971 -0.019080
C59   C     C_R   0.485268 0.494102 0.015515 -0.019045
C60   C     C_R   0.514735 0.505897 0.984489 -0.019045
C61   C     C_R   0.044059 0.838840 0.490101 -0.030025
C62   C     C_R   0.956675 0.161780 0.510725 -0.030532
C63   C     C_R   0.456328 0.338323 0.010335 -0.030033
C64   C     C_R   0.543675 0.661676 0.989669 -0.030095
C65   C     C_R   0.986586 0.293429 0.444040 -0.146349
C66   C     C_R   0.014206 0.707338 0.556854 -0.146446
C67   C     C_R   0.513669 0.793589 0.056246 -0.146498
C68   C     C_R   0.486334 0.206410 0.943758 -0.146625
C69   C     C_R   0.957548 0.305042 0.474649 -0.153082
C70   C     C_R   0.043202 0.695622 0.526196 -0.153507
C71   C     C_R   0.542732 0.805187 0.025666 -0.153470
C72   C     C_R   0.457271 0.194812 0.974338 -0.153585
O21   O     O_2   0.102445 0.684955 0.465672 -0.523881
O22   O     O_2   0.898117 0.315253 0.534927 -0.522567
O23   O     O_2   0.397893 0.184348 0.034697 -0.523858
O24   O     O_2   0.602110 0.815650 0.965307 -0.523802
O25   O     O_2   0.043948 0.257614 0.381746 -0.527413
O26   O     O_2   0.956948 0.743356 0.619255 -0.527650
O27   O     O_2   0.456227 0.757909 0.118451 -0.527360
O28   O     O_2   0.543776 0.242091 0.881552 -0.527429
H13   H     H_    0.986354 0.406778 0.416805 0.170775
H14   H     H_    0.014453 0.594022 0.584107 0.170706
H15   H     H_    0.513848 0.907138 0.083421 0.170825
H16   H     H_    0.486155 0.092861 0.916583 0.170772
H17   H     H_    0.935845 0.426882 0.469974 0.172382
H18   H     H_    0.064889 0.573746 0.530853 0.172201
H19   H     H_    0.564400 0.927214 0.030301 0.172289
H20   H     H_    0.435603 0.072784 0.969703 0.172239
C73   C     C_R   0.864519 0.895870 0.604640 -0.085589
C74   C     C_R   0.136377 0.103500 0.396317 -0.092795
C75   C     C_R   0.602008 0.691307 0.858186 -0.086242
C76   C     C_R   0.397995 0.308695 0.141818 -0.086070
H21   H     H_    0.862283 0.777419 0.578376 0.156135
H22   H     H_    0.138937 0.221333 0.422910 0.153893
H23   H     H_    0.577097 0.801914 0.854199 0.157738
H24   H     H_    0.422906 0.198090 0.145806 0.157776
C77   C     C_R   0.835079 0.904246 0.634872 -0.206502
C78   C     C_R   0.165710 0.094898 0.365954 -0.193742
C79   C     C_R   0.632109 0.701776 0.828719 -0.213240
C80   C     C_R   0.367893 0.298226 0.171284 -0.213478
H25   H     H_    0.810963 0.791023 0.631401 0.149971
H26   H     H_    0.190179 0.207139 0.369740 0.154605
H27   H     H_    0.629873 0.821027 0.802775 0.138436
H28   H     H_    0.370129 0.178977 0.197228 0.138302
C81   C     C_R   0.836123 0.058276 0.668278 -0.051876
C82   C     C_R   0.164145 0.941730 0.332032 -0.054899
C83   C     C_R   0.664073 0.558260 0.831949 -0.054605
C84   C     C_R   0.335928 0.441740 0.168052 -0.054462
C85   C     C_R   0.867788 0.202778 0.671191 -0.199877
C86   C     C_R   0.132205 0.798070 0.328882 -0.213004
C87   C     C_R   0.665592 0.405254 0.865873 -0.193856
C88   C     C_R   0.334408 0.594744 0.134127 -0.193623
H29   H     H_    0.869704 0.322792 0.696774 0.137978
H30   H     H_    0.129943 0.678680 0.302949 0.138377
H31   H     H_    0.690065 0.293105 0.869707 0.153804
H32   H     H_    0.309935 0.706892 0.130292 0.153824
C89   C     C_R   0.898004 0.192396 0.641869 -0.086561
C90   C     C_R   0.102161 0.808575 0.358419 -0.085998
C91   C     C_R   0.636204 0.396703 0.896174 -0.093018
C92   C     C_R   0.363798 0.603295 0.103828 -0.093183
H33   H     H_    0.922684 0.303805 0.645634 0.157783
H34   H     H_    0.077265 0.697856 0.354500 0.157780
H35   H     H_    0.638737 0.279010 0.922775 0.153879
H36   H     H_    0.361265 0.720987 0.077226 0.153847
C93   C     C_R   0.896542 0.039219 0.608010 0.353019
C94   C     C_R   0.104051 0.961078 0.392672 0.355197
C95   C     C_R   0.603859 0.538996 0.892454 0.355336
C96   C     C_R   0.396143 0.461004 0.107549 0.355332
N5    N     N_3   0.942659 0.145314 0.107172 -0.678159
H37   H     H_    0.961623 0.264130 0.125344 0.239040
H38   H     H_    0.953218 0.039329 0.136551 0.239892
N6    N     N_3   0.057342 0.854693 0.892827 -0.678153
H39   H     H_    0.038378 0.735878 0.874655 0.239101
H40   H     H_    0.046782 0.960679 0.863449 0.239915
N7    N     N_3   0.558484 0.616667 0.391739 -0.677805
H41   H     H_    0.539902 0.734061 0.371850 0.239007
H42   H     H_    0.547773 0.506397 0.363826 0.240006
N8    N     N_3   0.441670 0.377342 0.608021 -0.678169
H43   H     H_    0.460304 0.259705 0.627645 0.239165
H44   H     H_    0.452357 0.486972 0.636171 0.239614
N9    N     N_3   0.210445 0.840917 0.063522 -0.674441
H45   H     H_    0.230383 0.961982 0.075352 0.220227
H46   H     H_    0.213146 0.797360 0.026489 0.232353
N10   N     N_3   0.789555 0.159083 0.936477 -0.674567
H47   H     H_    0.769617 0.038017 0.924649 0.220410
H48   H     H_    0.786855 0.202642 0.973511 0.232398
N11   N     N_3   0.288917 0.354438 0.436883 -0.675491
H49   H     H_    0.269502 0.476147 0.423947 0.221317
H50   H     H_    0.285925 0.316328 0.474204 0.232799
N12   N     N_3   0.711099 0.643021 0.562818 -0.673192
H51   H     H_    0.719319 0.772514 0.581758 0.223948
H52   H     H_    0.715169 0.654121 0.524768 0.234491

loop_
_geom_bond_atom_site_label_1
_geom_bond_atom_site_label_2
_ccdc_geom_bond_type
O17   V3    S    
C59   C63   A    
C88   C92   A    
O1    C5    A    
N12   H51   S    
N3    C51   A    
O19   V1    S    
C9    C21   A    
N5    H37   S    
O3    C7    A    
C10   C18   A    
C67   H15   S    
C11   C23   A    
C80   C84   A    
N8    H43   S    
C25   C33   A    
C33   C38   A    
N7    H42   S    
C5    C12   S    
C45   C61   A    
N9    H45   S    
O7    C3    A    
C6    C11   S    
C79   C83   A    
C35   C40   A    
C26   C30   A    
C47   C63   A    
C36   C39   A    
N1    C94   S    
C50   O26   S    
C42   N6    S    
O10   V2    S    
C14   C18   A    
C75   H23   S    
C40   C44   A    
O16   V4    S    
O4    C8    A    
N11   H50   S    
C55   C59   A    
N8    H44   S    
C54   C58   A    
C57   C58   A    
C52   C56   A    
O13   V1    S    
N10   H47   S    
O2    V4    S    
C89   H33   S    
O3    V1    S    
C85   H29   S    
C22   H1    S    
C77   H25   S    
C28   C36   A    
C53   C65   A    
C82   C86   A    
C79   H27   S    
C1    O15   A    
C60   C64   A    
C15   C31   A    
C76   C80   A    
N4    C52   A    
C19   N12   S    
C43   N7    S    
C16   C32   A    
O2    C6    A    
C17   N10   S    
C10   C22   A    
C15   H7    S    
C11   C19   A    
C16   C20   A    
C27   C31   A    
O8    C4    A    
C2    C83   S    
C13   C29   A    
C7    C10   S    
C34   C37   A    
O11   C7    A    
C56   C68   A    
O15   V3    S    
C35   C36   A    
O12   C8    A    
C13   C17   A    
C40   H12   S    
C74   H22   S    
N2    C93   S    
C68   H16   S    
N6    H40   S    
C50   C54   A    
O5    V1    S    
N9    H46   S    
C18   N9    S    
C39   C43   A    
O7    V3    S    
C38   C42   A    
C65   H13   S    
C26   C34   A    
C47   O23   S    
C46   O22   S    
C88   H32   S    
C78   H26   S    
C37   H9    S    
N1    C49   A    
O18   V4    S    
C15   C19   A    
C76   C96   A    
C61   C70   A    
C32   C44   A    
C51   C55   A    
C68   C72   A    
C41   N5    S    
C63   C72   A    
C48   N4    A    
C4    C81   S    
O1    V3    S    
C83   C87   A    
O5    C1    A    
C58   C62   A    
C45   O21   S    
C74   C94   A    
C53   C57   A    
C31   C43   A    
C59   C60   A    
C14   C30   A    
C21   C25   A    
C76   H24   S    
N4    C95   S    
C57   C61   A    
C66   H14   S    
C46   C62   A    
O9    C5    A    
O11   V3    S    
C55   C67   A    
C70   H18   S    
C73   H21   S    
C69   H17   S    
O6    V2    S    
C49   O25   S    
C87   H31   S    
N3    C96   S    
N2    C50   A    
O14   V2    S    
C48   C64   A    
C91   H35   S    
C12   C20   A    
C27   C35   A    
C24   H3    S    
C89   C93   A    
C74   C78   A    
C92   H36   S    
C29   C41   A    
N6    H39   S    
C90   C94   A    
C66   C70   A    
O9    V1    S    
C65   C69   A    
C54   C66   A    
N12   H52   S    
C86   C90   A    
C21   H2    S    
C67   C71   A    
C38   H10   S    
C84   C88   A    
C3    O13   A    
C47   N3    A    
O6    C2    A    
C64   C71   A    
C23   C27   A    
C3    C82   S    
C77   C81   A    
C39   H11   S    
O12   V4    S    
C22   C26   A    
C1    C84   S    
C13   H5    S    
C8    C9    S    
N10   H48   S    
C73   C93   A    
C9    C17   A    
C91   C95   A    
O10   C6    A    
O20   V2    S    
C52   O28   S    
N11   H49   S    
N7    H41   S    
C46   N2    A    
C71   H19   S    
C33   C34   A    
O8    V4    S    
C2    O16   A    
C78   C82   A    
C25   C29   A    
C56   C60   A    
C44   N8    S    
C14   H6    S    
C12   C24   A    
C51   O27   S    
C92   C96   A    
C49   C53   A    
C45   N1    A    
C23   H4    S    
C72   H20   S    
C75   C79   A    
C90   H34   S    
C20   N11   S    
C75   C95   A    
C37   C41   A    
C24   C28   A    
C73   C77   A    
C48   O24   S    
C86   H30   S    
C16   H8    S    
C4    O14   A    
C81   C85   A    
C62   C69   A    
C80   H28   S    
C30   C42   A    
C85   C89   A    
O4    V2    S    
C28   C32   A    
C87   C91   A    
N5    H38   S    
