data_mof_unit_19572.cif
_audit_creation_date              2012-12-10T19:09:36-0500
_audit_creation_method            fapswitch 2.2
_symmetry_space_group_name_H-M    P1
_symmetry_Int_Tables_number       1
_space_group_crystal_system       triclinic
_cell_length_a                    9.597878
_cell_length_b                    10.848888
_cell_length_c                    16.980668
_cell_angle_alpha                 87.69963
_cell_angle_beta                  94.281417
_cell_angle_gamma                 89.728702
_cell_volume                      1761.7260947

loop_
_atom_site_label
_atom_site_type_symbol
_atom_type_description
_atom_site_fract_x
_atom_site_fract_y
_atom_site_fract_z
_atom_type_partial_charge
C1    C     C_R   0.499925 0.262560 0.497876 0.825465
C2    C     C_R   0.601784 0.559224 0.784775 -0.268363
C3    C     C_R   0.406564 0.452940 0.131328 -0.232101
C4    C     C_R   0.396044 0.439102 0.213026 0.099608
C5    C     C_R   0.494785 0.542728 0.099157 0.324454
C6    C     C_R   0.474771 0.517910 0.263071 -0.078232
C7    C     C_R   0.555970 0.611420 0.230746 -0.303151
C8    C     C_R   0.565956 0.625370 0.149301 0.145328
C9    C     C_R   0.624391 0.062896 0.493219 -0.003516
C10   C     C_R   0.499043 0.129831 0.489248 -0.250867
C11   C     C_R   0.372536 0.065570 0.475233 0.593739
C12   C     C_R   0.517406 0.495617 0.650725 0.784859
C13   C     C_R   0.372969 0.936870 0.477024 -0.306074
C14   C     C_R   0.498489 0.870872 0.494419 -0.198785
C15   C     C_R   0.623437 0.935997 0.499815 0.132482
C16   C     C_3   0.747277 0.930008 0.559687 0.000394
C17   C     C_3   0.753866 0.070518 0.547768 -0.108681
C18   C     C_R   0.064440 0.544271 0.435368 -0.010078
C19   C     C_R   0.084868 0.439521 0.557960 0.696618
C20   C     C_R   0.936797 0.439534 0.559335 0.076388
C21   C     C_R   0.917702 0.541120 0.434682 0.076656
C22   C     C_3   0.901551 0.662584 0.391099 0.438466
C23   C     C_R   0.499640 0.737436 0.499783 0.824536
C24   C     C_3   0.060505 0.671631 0.397027 -0.124780
C25   C     C_R   0.482355 0.503208 0.349196 0.794695
C26   C     C_R   0.523982 0.479627 0.736449 -0.044357
C27   C     C_R   0.441726 0.388166 0.769916 -0.221955
C28   C     C_R   0.432916 0.377479 0.851648 0.127639
C29   C     C_R   0.505738 0.461560 0.900310 0.353469
C30   C     C_R   0.592830 0.550583 0.866338 -0.191830
Cu1   Cu    Cu3+1 0.640670 0.499980 0.500000 0.960317
Cu2   Cu    Cu3+1 0.359330 0.500020 0.500000 1.010441
H1    H     H_    0.274480 0.889630 0.468043 0.180584
H2    H     H_    0.838471 0.879966 0.540334 0.240075
H3    H     H_    0.735224 0.121435 0.601560 0.133144
H4    H     H_    0.851329 0.653860 0.330502 0.070863
H5    H     H_    0.348296 0.391220 0.092785 0.160311
H6    H     H_    0.101081 0.741865 0.438594 0.186129
H7    H     H_    0.652375 0.614467 0.902648 0.160423
H8    H     H_    0.665005 0.630661 0.759328 0.151256
H9    H     H_    0.612757 0.673650 0.269679 0.160735
H10   H     H_    0.382308 0.326279 0.731915 0.190589
N1    N     N_2   0.488547 0.453917 0.982572 -0.265254
N2    N     N_2   0.514968 0.551198 0.017104 -0.258901
N3    N     N_R   0.147870 0.500930 0.499500 -0.231143
N4    N     N_R   0.851960 0.500890 0.499500 -0.196358
O1    O     O_R   0.618810 0.319640 0.500000 -0.621299
O2    O     O_R   0.381230 0.319680 0.499990 -0.474393
O3    O     O_R   0.631790 0.498830 0.613930 -0.596208
O4    O     O_R   0.394210 0.498870 0.613920 -0.516056
O5    O     O_R   0.618770 0.680320 0.500010 -0.508187
O6    O     O_R   0.381190 0.680360 0.500000 -0.602068
O7    O     O_R   0.605790 0.501130 0.386080 -0.577025
O8    O     O_R   0.368210 0.501170 0.386070 -0.594242
C31   C     C_3   0.307242 0.335747 0.244390 -0.402475
C32   C     C_3   0.397245 0.225704 0.276164 -0.771319
H11   H     H_    0.456396 0.188927 0.228326 0.239906
H12   H     H_    0.472199 0.252475 0.325279 0.236939
H13   H     H_    0.329321 0.151579 0.298496 0.255039
H14   H     H_    0.242475 0.368688 0.290834 0.228553
H15   H     H_    0.232300 0.303339 0.196642 0.191344
C33   C     C_3   0.709764 0.886175 0.642865 -0.433593
C34   C     C_3   0.835189 0.894683 0.703079 -0.849985
H16   H     H_    0.922781 0.836768 0.685794 0.257706
H17   H     H_    0.870358 0.991728 0.707314 0.254580
H18   H     H_    0.805532 0.860892 0.762073 0.242378
H19   H     H_    0.621531 0.941505 0.662217 0.208832
H20   H     H_    0.676546 0.788326 0.641457 0.216847
C35   C     C_3   0.882036 0.119271 0.505867 -0.369869
C36   C     C_3   0.910124 0.059673 0.428032 -0.699142
H21   H     H_    0.952416 0.964870 0.439073 0.270907
H22   H     H_    0.814419 0.058125 0.387186 0.243112
H23   H     H_    0.989688 0.114360 0.398076 0.263059
H24   H     H_    0.866416 0.219312 0.492424 0.220497
H25   H     H_    0.976719 0.107833 0.547363 0.233024
F1    F     F_    0.165222 0.376196 0.615179 -0.673545
C37   C     C_3   0.881725 0.366088 0.627852 -0.328434
C38   C     C_3   0.898816 0.436602 0.704167 -0.771737
H26   H     H_    0.858033 0.532320 0.694695 0.258087
H27   H     H_    0.841989 0.388247 0.750772 0.230984
H28   H     H_    0.010833 0.441511 0.725211 0.262322
H29   H     H_    0.774455 0.334341 0.615606 0.227779
H30   H     H_    0.941451 0.278185 0.637968 0.192112
F2    F     F_    0.840616 0.750944 0.433211 -0.696686
C39   C     C_3   0.123234 0.681524 0.316347 -0.411717
C40   C     C_3   0.087362 0.805493 0.273614 -0.849084
H31   H     H_    0.972927 0.815023 0.259455 0.250754
H32   H     H_    0.124220 0.882482 0.310889 0.262163
H33   H     H_    0.139734 0.811958 0.217466 0.245999
H34   H     H_    0.238433 0.675946 0.325597 0.244963
H35   H     H_    0.086278 0.605183 0.278435 0.198804
C41   C     C_3   0.341249 0.278905 0.885700 -0.403548
C42   C     C_3   0.200715 0.332401 0.904534 -0.800298
H36   H     H_    0.135066 0.257728 0.928299 0.233627
H37   H     H_    0.145330 0.374098 0.850105 0.256101
H38   H     H_    0.215101 0.403853 0.949363 0.255933
H39   H     H_    0.321675 0.204516 0.843144 0.200760
H40   H     H_    0.394903 0.234986 0.940047 0.206135
C43   C     C_3   0.657518 0.725739 0.117163 -0.394482
C44   C     C_3   0.569532 0.832302 0.078384 -0.820298
H41   H     H_    0.501869 0.800593 0.027365 0.261463
H42   H     H_    0.503028 0.872136 0.121938 0.250138
H43   H     H_    0.639340 0.905511 0.056756 0.236278
H44   H     H_    0.728267 0.762807 0.165305 0.192995
H45   H     H_    0.725409 0.687473 0.073708 0.206729
F3    F     F_    0.248041 0.125736 0.463163 -0.676398

loop_
_geom_bond_atom_site_label_1
_geom_bond_atom_site_label_2
_ccdc_geom_bond_type
C31   C32   S    
C34   H17   S    
C17   C35   S    
C42   H36   S    
C18   C21   A    
Cu2   N3    S    
C19   C20   A    
C27   H10   S    
C44   H41   S    
C12   O3    A    
C39   H35   S    
C41   H40   S    
C7    C8    A    
C37   C38   S    
C26   C27   A    
C29   C30   A    
C33   H19   S    
C18   C24   S    
C17   H3    S    
C28   C29   A    
C8    C43   S    
C25   O7    A    
C38   H27   S    
C6    C25   S    
C37   H30   S    
C15   C16   S    
C32   H11   S    
Cu2   O6    S    
C16   H2    S    
C43   C44   S    
C16   C17   S    
Cu1   N4    S    
C24   H6    S    
C36   H21   S    
C9    C10   A    
C43   H44   S    
C34   H18   S    
C42   H37   S    
Cu1   O1    S    
C13   C14   A    
C29   N1    S    
Cu2   O2    S    
C16   C33   S    
C11   F3    S    
Cu2   O8    S    
C41   H39   S    
C43   H45   S    
C25   O8    A    
C28   C41   S    
C38   H26   S    
C1    O1    A    
C39   C40   S    
C44   H43   S    
C12   C26   S    
C22   F2    S    
C14   C23   S    
N1    N2    D    
C13   H1    S    
C33   C34   S    
C23   O5    A    
Cu1   Cu2   S    
C36   H23   S    
C44   H42   S    
C35   H24   S    
C2    C26   A    
Cu1   O7    S    
Cu2   O4    S    
C20   C37   S    
C4    C6    A    
C5    N2    S    
C42   H38   S    
C4    C31   S    
C22   C24   S    
C3    C4    A    
C18   N3    A    
C21   N4    A    
C24   C39   S    
C9    C17   S    
C19   F1    S    
C40   H31   S    
C1    C10   S    
Cu1   O5    S    
C3    C5    A    
C40   H33   S    
C5    C8    A    
C12   O4    A    
C39   H34   S    
C19   N3    A    
C1    O2    A    
C6    C7    A    
C22   H4    S    
C32   H13   S    
C33   H20   S    
C2    C30   A    
C21   C22   S    
C9    C15   A    
C11   C13   A    
C38   H28   S    
C23   O6    A    
C37   H29   S    
C31   H15   S    
C41   C42   S    
C32   H12   S    
C30   H7    S    
C35   H25   S    
C40   H32   S    
C7    H9    S    
C35   C36   S    
C10   C11   A    
C34   H16   S    
C2    H8    S    
C3    H5    S    
C27   C28   A    
C14   C15   A    
C36   H22   S    
Cu1   O3    S    
C31   H14   S    
C20   N4    A    
