data_mof_unit_29899.cif
_audit_creation_date              2012-12-11T17:39:40-0500
_audit_creation_method            fapswitch 2.2
_symmetry_space_group_name_H-M    P1
_symmetry_Int_Tables_number       1
_space_group_crystal_system       triclinic
_cell_length_a                    15.167943
_cell_length_b                    15.082437
_cell_length_c                    14.960806
_cell_angle_alpha                 108.346394
_cell_angle_beta                  110.52891
_cell_angle_gamma                 109.840438
_cell_volume                      2624.08921845

loop_
_atom_site_label
_atom_site_type_symbol
_atom_type_description
_atom_site_fract_x
_atom_site_fract_y
_atom_site_fract_z
_atom_type_partial_charge
C1    C     C_R   0.913678 0.905881 0.711640 -0.136386
C2    C     C_R   0.999620 0.299765 0.431829 0.065477
C3    C     C_R   0.360355 0.298644 0.808047 0.134934
C4    C     C_R   0.713424 0.033954 0.537133 0.054465
C5    C     C_R   0.709703 0.691865 0.282080 -0.129693
C6    C     C_R   0.298838 0.088841 0.496764 -0.148332
C7    C     C_R   0.092248 0.780821 0.527921 -0.119513
C8    C     C_R   0.908326 0.942692 0.186328 -0.154402
C9    C     C_R   0.090719 0.035187 0.277314 -0.089698
C10   C     C_R   0.910506 0.685456 0.446057 -0.128044
C11   C     C_R   0.710038 0.784262 0.191118 -0.116402
C12   C     C_R   0.090369 0.296531 0.492787 -0.120473
C13   C     C_R   0.302341 0.003757 0.594308 -0.163393
C14   C     C_R   0.658764 0.684407 0.181707 0.130979
C15   C     C_R   0.361186 0.058980 0.558008 0.068528
C16   C     C_R   0.003829 0.677431 0.464443 0.048539
C17   C     C_R   0.997824 0.960815 0.173237 0.063041
C18   C     C_R   0.479644 0.683820 0.346230 -0.261324
C19   C     C_R   0.496634 0.789181 0.388470 0.575577
C20   C     C_R   0.526301 0.847151 0.498906 -0.053972
C21   C     C_R   0.535016 0.797101 0.563872 -0.252874
C22   C     C_R   0.515920 0.691379 0.520308 -0.089422
C23   C     C_R   0.296488 0.206301 0.803001 -0.163539
C24   C     C_R   0.488413 0.634853 0.411692 -0.175711
C25   C     C_R   0.468757 0.974775 0.561730 -0.292517
C26   C     C_R   0.462313 0.066999 0.569774 0.075509
C27   C     C_R   0.541456 0.150653 0.569617 0.032220
C28   C     C_R   0.629352 0.141802 0.569226 -0.274102
C29   C     C_R   0.631152 0.046857 0.555172 0.114547
C30   C     C_R   0.547378 0.960006 0.545969 0.079441
C31   C     C_R   0.524585 0.245517 0.460494 -0.169773
C32   C     C_R   0.508508 0.324710 0.440401 -0.104736
C33   C     C_R   0.496615 0.397832 0.512915 -0.076891
C34   C     C_R   0.742160 0.055804 0.464884 -0.056953
C35   C     C_R   0.501635 0.392293 0.605878 -0.125265
C36   C     C_R   0.518710 0.313667 0.627164 -0.165599
C37   C     C_R   0.528999 0.238732 0.553620 0.118240
C38   C     C_R   0.698751 0.090847 0.125310 -0.144261
C39   C     C_R   0.792248 0.192330 0.179056 -0.148459
C40   C     C_R   0.802844 0.282559 0.257745 0.122121
C41   C     C_R   0.715649 0.271248 0.275924 -0.194880
C42   C     C_R   0.622546 0.169452 0.221802 -0.114805
C43   C     C_R   0.614522 0.079095 0.147282 -0.109800
C44   C     C_R   0.916127 0.480997 0.347041 -0.245535
C45   C     C_R   0.301863 0.299511 0.713043 -0.113101
C46   C     C_R   0.010587 0.579113 0.432444 0.069614
C47   C     C_R   0.106828 0.579431 0.492489 0.013452
C48   C     C_R   0.103995 0.482353 0.467769 -0.230837
C49   C     C_R   0.003891 0.385304 0.403024 0.057160
C50   C     C_R   0.910048 0.383015 0.333824 0.030032
C51   C     C_R   0.298822 0.737582 0.608798 -0.193638
C52   C     C_R   0.383715 0.828446 0.710052 -0.149493
C53   C     C_R   0.375574 0.847981 0.803745 -0.113198
C54   C     C_R   0.282092 0.777165 0.796225 -0.117571
C55   C     C_R   0.194129 0.690695 0.694278 -0.123573
C56   C     C_R   0.751244 0.969639 0.563440 -0.131601
C57   C     C_R   0.201248 0.671558 0.599658 0.114793
C58   C     C_2   0.532783 0.461920 0.898763 -0.134874
C59   C     C_2   0.470898 0.374714 0.897703 -0.204713
C60   C     C_2   0.608189 0.562267 0.002329 -0.102176
C61   C     C_2   0.582219 0.585417 0.080274 -0.211928
C62   C     C_R   0.387519 0.092617 0.022307 -0.109293
C63   C     C_R   0.290287 0.013494 0.001766 -0.253285
C64   C     C_R   0.220610 0.042969 0.027578 -0.036360
C65   C     C_R   0.254408 0.153624 0.084984 0.572701
C66   C     C_R   0.355338 0.232800 0.110779 -0.304542
C67   C     C_R   0.909246 0.210169 0.408117 -0.152568
C68   C     C_R   0.420277 0.202123 0.077091 -0.175546
C69   C     C_R   0.100513 0.948866 0.079346 -0.171486
C70   C     C_R   0.998161 0.915215 0.070603 0.052972
C71   C     C_R   0.903872 0.851851 0.963849 0.014316
C72   C     C_R   0.917701 0.834964 0.874343 -0.232784
C73   C     C_R   0.016306 0.905722 0.890182 0.047220
C74   C     C_R   0.112037 0.958727 0.994593 0.068931
C75   C     C_R   0.711067 0.716782 0.889365 -0.184454
C76   C     C_R   0.601289 0.688005 0.843385 -0.113441
C77   C     C_R   0.571354 0.765254 0.842175 -0.094922
C78   C     C_R   0.094663 0.998695 0.799365 -0.177258
C79   C     C_R   0.650831 0.872043 0.885642 -0.158589
C80   C     C_R   0.760963 0.902187 0.933833 -0.154205
C81   C     C_R   0.791906 0.824779 0.937145 0.118836
C82   C     C_R   0.008924 0.937944 0.805741 0.063904
H1    H     H_    0.830824 0.847265 0.681924 0.098177
H2    H     H_    0.321175 0.138871 0.461756 0.120400
H3    H     H_    0.175060 0.807232 0.549335 0.121748
H4    H     H_    0.823994 0.892202 0.124602 0.117462
H5    H     H_    0.174939 0.072014 0.299540 0.103302
H6    H     H_    0.827354 0.619822 0.401471 0.090759
H7    H     H_    0.681649 0.807488 0.130202 0.106113
H8    H     H_    0.332109 0.980019 0.654470 0.114100
H9    H     H_    0.474805 0.553366 0.378415 0.124455
H10   H     H_    0.460027 0.640165 0.262682 0.132598
H11   H     H_    0.173355 0.343328 0.513329 0.090174
H12   H     H_    0.559746 0.841050 0.649036 0.144686
H13   H     H_    0.523699 0.653807 0.571304 0.121916
H14   H     H_    0.403069 0.906324 0.551320 0.132612
H15   H     H_    0.692338 0.205582 0.571161 0.131440
H16   H     H_    0.531770 0.188136 0.402430 0.108614
H17   H     H_    0.504376 0.328759 0.368170 0.114511
H18   H     H_    0.483004 0.458510 0.496873 0.093844
H19   H     H_    0.490976 0.448537 0.660274 0.090390
H20   H     H_    0.521529 0.309486 0.698954 0.124949
H21   H     H_    0.543324 0.999873 0.107052 0.108965
H22   H     H_    0.321881 0.174566 0.856518 0.114433
H23   H     H_    0.693763 0.020552 0.070575 0.124703
H24   H     H_    0.859207 0.199144 0.165281 0.118978
H25   H     H_    0.722828 0.339498 0.337308 0.117002
H26   H     H_    0.557686 0.160160 0.239523 0.127823
H27   H     H_    0.843730 0.480260 0.297168 0.127067
H28   H     H_    0.178275 0.486460 0.517822 0.125247
H29   H     H_    0.306284 0.722187 0.536810 0.126343
H30   H     H_    0.456506 0.883348 0.716728 0.113877
H31   H     H_    0.443032 0.916136 0.882497 0.099385
H32   H     H_    0.277729 0.788644 0.869196 0.100760
H33   H     H_    0.720917 0.099935 0.424794 0.093114
H34   H     H_    0.120826 0.637930 0.688971 0.111561
H35   H     H_    0.516362 0.464186 0.823815 0.112624
H36   H     H_    0.494035 0.368939 0.972339 0.135917
H37   H     H_    0.682159 0.620409 0.012722 0.134328
H38   H     H_    0.508861 0.529217 0.072665 0.135412
H39   H     H_    0.496726 0.263257 0.094670 0.136892
H40   H     H_    0.437425 0.069135 0.995433 0.129749
H41   H     H_    0.265612 0.929168 0.959893 0.138904
H42   H     H_    0.383199 0.317940 0.156678 0.127274
H43   H     H_    0.332245 0.354869 0.685490 0.085300
H44   H     H_    0.174326 0.986571 0.156975 0.118527
H45   H     H_    0.845444 0.784495 0.793384 0.132583
H46   H     H_    0.732800 0.654738 0.884464 0.116197
H47   H     H_    0.538114 0.605555 0.805413 0.098426
H48   H     H_    0.486072 0.740723 0.805230 0.135082
H49   H     H_    0.627151 0.931184 0.880793 0.109438
H50   H     H_    0.821812 0.984640 0.964624 0.114736
H51   H     H_    0.742518 0.937735 0.616994 0.113947
H52   H     H_    0.824337 0.181440 0.358842 0.135416
H53   H     H_    0.178485 0.022603 0.844023 0.131643
H54   H     H_    0.683966 0.630326 0.304443 0.089363
N1    N     N_R   0.941940 0.944580 0.650780 -0.042375
N2    N     N_R   0.206190 0.054080 0.497260 -0.040442
N3    N     N_R   0.056380 0.847410 0.553580 -0.041811
N4    N     N_R   0.944890 0.999100 0.292900 -0.041567
N5    N     N_R   0.058060 0.055420 0.349220 -0.046061
N6    N     N_R   0.943200 0.791100 0.497260 -0.039903
N7    N     N_R   0.795540 0.849750 0.292910 -0.046120
N8    N     N_R   0.205730 0.996760 0.553580 -0.039427
N9    N     N_R   0.056800 0.208900 0.502740 -0.042482
N10   N     N_R   0.204460 0.150250 0.707090 -0.041321
N11   N     N_R   0.794270 0.003240 0.446420 -0.042803
N12   N     N_R   0.204920 0.207570 0.650770 -0.044456
N13   N     N_R   0.793810 0.945920 0.502740 -0.039544
N14   N     N_R   0.943620 0.152590 0.446420 -0.047225
N15   N     N_R   0.055110 0.000900 0.707100 -0.040044
N16   N     N_R   0.795080 0.792430 0.349230 -0.041272
Ni1   Ni    Ni4+2 0.869690 0.869690 0.500000 0.220950
Ni2   Ni    Ni4+2 0.130310 0.130310 0.500000 0.212083
Ni3   Ni    Ni4+2 0.129250 0.998840 0.629170 0.211537
Ni4   Ni    Ni4+2 0.870750 0.001160 0.370830 0.224243
O1    O     O_3   0.493883 0.838780 0.324820 -0.637663
C83   C     C_3   0.387157 0.819619 0.267793 0.257616
H55   H     H_    0.355576 0.840198 0.323686 0.090644
H56   H     H_    0.330955 0.733179 0.202638 0.090274
C84   C     C_3   0.388398 0.890438 0.214283 -0.892799
H57   H     H_    0.417040 0.870619 0.155804 0.250406
H58   H     H_    0.304923 0.876495 0.169116 0.208587
H59   H     H_    0.443953 0.977217 0.278009 0.251774
O2    O     O_3   0.193061 0.183543 0.124083 -0.640860
C85   C     C_3   0.139116 0.220414 0.060158 0.259574
H60   H     H_    0.090765 0.159342 0.971256 0.097730
H61   H     H_    0.198677 0.298231 0.073542 0.088241
C86   C     C_3   0.060665 0.239153 0.094063 -0.890557
H62   H     H_    0.106471 0.302094 0.181758 0.258061
H63   H     H_    0.016017 0.266533 0.043278 0.207822
H64   H     H_    0.000775 0.162782 0.082351 0.250566

loop_
_geom_bond_atom_site_label_1
_geom_bond_atom_site_label_2
_ccdc_geom_bond_type
C28   H15   S    
C5    H54   S    
C66   C68   A    
O2    C85   S    
C80   H50   S    
C13   H8    S    
C39   H24   S    
C45   N12   A    
C41   C42   A    
C48   H28   S    
C35   C36   A    
C2    C12   A    
C56   H51   S    
C20   C30   S    
C53   C54   A    
C10   H6    S    
C26   C27   A    
O1    C83   S    
C5    N16   A    
C18   C24   A    
C36   C37   A    
N11   N13   A    
C18   C19   A    
C10   N6    A    
C38   C39   A    
C80   C81   A    
N3    N6    A    
N5    Ni2   S    
C31   H16   S    
C21   H12   S    
C52   H30   S    
C58   C60   S    
C65   O2    S    
C60   H37   S    
C36   H20   S    
C75   H46   S    
C86   H62   S    
C13   N8    A    
N13   Ni1   S    
C83   C84   S    
C33   C35   A    
C6    C15   A    
C54   C55   A    
C3    C23   A    
C83   H56   S    
N10   Ni3   S    
C31   C32   A    
C44   C46   A    
C70   C71   A    
C51   C57   A    
N15   Ni3   S    
C78   H53   S    
C8    H4    S    
C4    C29   S    
C44   H27   S    
N2    Ni2   S    
C17   C70   S    
N14   Ni4   S    
C21   C22   A    
C4    C56   A    
C67   N14   A    
C85   H61   S    
C86   H63   S    
C85   H60   S    
N12   Ni2   S    
C25   H14   S    
C84   H58   S    
C53   H31   S    
C78   N15   A    
C84   H57   S    
N10   N12   A    
C77   C79   A    
C73   C74   A    
C23   N10   A    
C4    C34   A    
C6    H2    S    
C76   H47   S    
C72   H45   S    
C51   C52   A    
C19   O1    S    
C47   C48   A    
C67   H52   S    
C76   C77   A    
C2    C67   A    
C16   C46   S    
C39   C40   A    
C9    N5    A    
C75   C81   A    
C15   C26   S    
C34   H33   S    
C63   C64   A    
C14   C61   S    
C3    C45   A    
C58   H35   S    
C31   C37   A    
N7    N16   A    
C60   C61   D    
C12   N9    A    
C6    N2    A    
C75   C76   A    
N8    Ni3   S    
C29   C30   A    
C2    C49   S    
C47   C57   S    
C34   N11   A    
C78   C82   A    
C23   H22   S    
N3    Ni3   S    
C48   C49   A    
C79   H49   S    
C11   H7    S    
C62   C63   A    
N1    Ni1   S    
C69   C74   A    
C25   C26   A    
N4    N5    A    
N11   Ni4   S    
C5    C14   A    
N4    Ni4   S    
N9    Ni2   S    
C9    C17   A    
C40   C41   A    
C69   H44   S    
C49   C50   A    
C59   H36   S    
C13   C15   A    
C83   H55   S    
C86   H64   S    
C22   C24   A    
C12   H11   S    
C58   C59   D    
C42   C43   A    
C28   C29   A    
C24   H9    S    
C73   C82   S    
C62   H40   S    
C84   H59   S    
C1    N1    A    
C52   C53   A    
C44   C50   A    
C25   C30   A    
C46   C47   A    
C7    C16   A    
C51   H29   S    
C41   H25   S    
N9    N14   A    
C72   C73   A    
C35   H19   S    
C68   H39   S    
C63   H41   S    
C1    H1    S    
C8    C17   A    
C32   H17   S    
C62   C68   A    
C8    N4    A    
C33   H18   S    
C18   H10   S    
C32   C33   A    
C19   C20   A    
C55   C57   A    
C1    C82   A    
C38   C43   A    
C38   H23   S    
N2    N8    A    
C64   C65   A    
C7    N3    A    
N7    Ni4   S    
C7    H3    S    
C11   N7    A    
C27   C37   S    
C40   C50   S    
C54   H32   S    
C11   C14   A    
C66   H42   S    
C77   H48   S    
N6    Ni1   S    
C69   C70   A    
C43   H21   S    
C79   C80   A    
C22   H13   S    
C71   C72   A    
C20   C21   A    
C85   C86   S    
C65   C66   A    
C55   H34   S    
C45   H43   S    
C27   C28   A    
C64   C74   S    
N1    N15   A    
C10   C16   A    
N16   Ni1   S    
C71   C81   S    
C56   N13   A    
C42   H26   S    
C9    H5    S    
C61   H38   S    
C3    C59   S    
