data_mof_unit_19950.cif
_audit_creation_date              2013-03-05T15:56:33-0500
_audit_creation_method            fapswitch 2.2
_symmetry_space_group_name_H-M    P1
_symmetry_Int_Tables_number       1
_space_group_crystal_system       triclinic
_cell_length_a                    12.364751
_cell_length_b                    13.1888
_cell_length_c                    27.771464
_cell_angle_alpha                 77.264276
_cell_angle_beta                  101.378832
_cell_angle_gamma                 116.726372
_cell_volume                      3920.38371963

loop_
_atom_site_label
_atom_site_type_symbol
_atom_site_description
_atom_site_fract_x
_atom_site_fract_y
_atom_site_fract_z
_atom_type_partial_charge
O1    O     O_R   0.972510 0.318140 0.514280 -0.586737
O2    O     O_R   0.806530 0.359640 0.495100 -0.615662
C1    C     C_R   0.854881 0.286684 0.503369 0.850169
O3    O     O_R   0.082990 0.479270 0.579320 -0.581432
O4    O     O_R   0.917010 0.520770 0.560140 -0.576941
C2    C     C_R   0.999170 0.498969 0.592155 0.879136
Cu1   Cu    Cu3+1 0.098270 0.475420 0.511360 0.990580
Cu2   Cu    Cu3+1 0.901730 0.524580 0.488640 0.967892
O5    O     O_R   0.193470 0.640360 0.504900 -0.577368
O6    O     O_R   0.027490 0.681860 0.485720 -0.583781
O7    O     O_R   0.082990 0.479230 0.439860 -0.548923
O8    O     O_R   0.917010 0.520730 0.420680 -0.598748
C3    C     C_R   0.145116 0.713541 0.492797 0.823511
C4    C     C_R   0.001849 0.502570 0.407574 0.846720
C5    C     C_R   0.063759 0.461782 0.831016 0.543580
O9    O     O_2   0.115664 0.403489 0.817137 -0.530645
N1    N     N_R   0.011596 0.521247 0.795751 -0.459152
C6    C     C_R   0.960046 0.583088 0.808184 0.553631
C7    C     C_R   0.079518 0.610095 0.713094 -0.070108
C8    C     C_R   0.075853 0.602599 0.663526 -0.242343
C9    C     C_R   0.925662 0.402386 0.676087 0.291274
C10   C     C_R   0.930313 0.412139 0.725881 -0.152909
C11   C     C_R   0.006916 0.514865 0.744397 0.286133
C12   C     C_R   0.009763 0.522242 0.895854 -0.077025
C13   C     C_R   0.063456 0.460679 0.881451 -0.014404
C14   C     C_R   0.115928 0.398862 0.917528 -0.138422
C15   C     C_R   0.957657 0.585750 0.858868 -0.041928
C16   C     C_R   0.999705 0.499916 0.644661 -0.132378
H1    H     H_    0.875302 0.339360 0.750919 0.183772
H2    H     H_    0.159819 0.352985 0.907267 0.189106
C17   C     C_R   0.003938 0.505975 0.354450 -0.150096
C18   C     C_R   0.046717 0.441907 0.034735 0.039756
C19   C     C_R   0.962654 0.585983 0.013489 0.051123
C20   C     C_R   0.003154 0.511928 0.049487 0.075656
C21   C     C_R   0.078585 0.364183 0.071837 -0.199353
C22   C     C_R   0.073561 0.359725 0.121822 -0.128533
C23   C     C_R   0.036135 0.432062 0.136873 -0.027983
C24   C     C_R   0.000357 0.508028 0.100833 -0.044570
C25   C     C_R   0.962149 0.580326 0.116264 -0.026702
C26   C     C_R   0.961276 0.575988 0.167177 0.551702
N2    N     N_R   0.996623 0.501598 0.201529 -0.459524
C27   C     C_R   0.033187 0.429904 0.187388 0.554923
C28   C     C_R   0.889915 0.462440 0.274008 -0.074533
C29   C     C_R   0.892461 0.464672 0.324137 -0.251647
C30   C     C_R   0.114569 0.547409 0.333509 0.314959
C31   C     C_R   0.110313 0.542726 0.283213 -0.147806
C32   C     C_R   0.998727 0.501133 0.253426 0.279752
O10   O     O_2   0.066336 0.356622 0.222120 -0.517458
C33   C     C_R   0.055921 0.450849 0.983629 0.053482
C34   C     C_R   0.008181 0.519374 0.947301 0.069277
C35   C     C_R   0.958652 0.584408 0.962035 0.000652
C36   C     C_R   0.112543 0.394059 0.967537 -0.202532
H3    H     H_    0.806926 0.432580 0.339456 0.172417
H4    H     H_    0.803302 0.430246 0.251122 0.160217
H5    H     H_    0.099422 0.298998 0.148718 0.193847
H6    H     H_    0.105295 0.303261 0.063485 0.145409
H7    H     H_    0.157787 0.346736 0.992749 0.143486
O11   O     O_2   0.910434 0.639998 0.771323 -0.523519
C37   C     C_R   0.903755 0.646987 0.874096 0.154039
H8    H     H_    0.132502 0.677295 0.639665 0.157670
H9    H     H_    0.139107 0.689700 0.727283 0.156473
C38   C     C_R   0.928428 0.659989 0.030462 -0.201850
C39   C     C_R   0.927766 0.656664 0.080759 -0.137397
O12   O     O_2   0.926742 0.646458 0.182285 -0.520144
C40   C     C_R   0.904715 0.644669 0.924799 -0.185287
H10   H     H_    0.904489 0.724155 0.005943 0.142543
H11   H     H_    0.900471 0.714957 0.091695 0.190512
H12   H     H_    0.194130 0.575213 0.266572 0.185636
H13   H     H_    0.858497 0.688641 0.934290 0.142063
C41   C     C_R   0.273102 0.025893 0.437536 -0.165040
H14   H     H_    0.092721 0.890731 0.440056 0.174078
H15   H     H_    0.452143 0.226527 0.408339 0.158411
H16   H     H_    0.241036 0.086407 0.413957 0.158014
C42   C     C_R   0.228225 0.835215 0.482765 -0.045017
C43   C     C_R   0.816609 0.082347 0.528440 -0.207525
C44   C     C_R   0.739485 0.965095 0.534799 0.385715
C45   C     C_R   0.614860 0.929711 0.519114 -0.242348
C46   C     C_R   0.566822 0.009623 0.494990 0.038424
C47   C     C_R   0.649083 0.125770 0.482424 0.077834
C48   C     C_R   0.439681 0.977262 0.481776 0.112077
C49   C     C_R   0.398196 0.057143 0.451198 0.153055
C50   C     C_R   0.482091 0.166364 0.433604 -0.215565
C51   C     C_R   0.605638 0.199744 0.448359 -0.168647
C52   C     C_R   0.352170 0.868200 0.498714 -0.216872
C53   C     C_R   0.188446 0.915012 0.452875 -0.144957
C54   C     C_R   0.772699 0.163592 0.503519 -0.147315
H17   H     H_    0.378017 0.806644 0.524482 0.150585
H18   H     H_    0.911503 0.110453 0.543333 0.192747
H19   H     H_    0.557981 0.838773 0.524555 0.172351
H20   H     H_    0.666137 0.282969 0.431117 0.170265
C55   C     C_R   0.344926 0.321990 0.575890 -0.265582
H21   H     H_    0.341735 0.252446 0.605661 0.166000
N3    N     N_R   0.246290 0.438210 0.528570 -0.189590
C56   C     C_R   0.762965 0.649907 0.434572 0.005078
C57   C     C_R   0.669569 0.686866 0.421030 0.281018
C58   C     C_R   0.564995 0.629481 0.446077 -0.193160
C59   C     C_R   0.553039 0.536126 0.484272 -0.043817
C60   C     C_R   0.652590 0.504488 0.496966 0.233666
C61   C     C_R   0.447506 0.474306 0.510919 -0.036694
C62   C     C_R   0.444820 0.381566 0.548892 0.119835
C63   C     C_R   0.542588 0.350100 0.560096 0.075442
C64   C     C_R   0.645547 0.414729 0.535733 -0.126621
C65   C     C_R   0.343560 0.499476 0.501484 0.023449
C66   C     C_R   0.247135 0.350617 0.566045 0.338186
N4    N     N_R   0.754320 0.561170 0.471730 -0.232788
H22   H     H_    0.337885 0.566999 0.472718 0.177537
H23   H     H_    0.844423 0.693121 0.415849 0.173426
H24   H     H_    0.494774 0.659712 0.435346 0.211934
H25   H     H_    0.719759 0.392519 0.548795 0.223107
N5    N     N_R   0.846871 0.293837 0.658972 0.103916
O13   O     O_R   0.861633 0.269719 0.618485 -0.427140
O14   O     O_R   0.764669 0.214181 0.686040 -0.359637
C67   C     C_3   0.843502 0.715636 0.838014 -0.704030
H26   H     H_    0.807073 0.757392 0.857117 0.199661
H27   H     H_    0.910804 0.785463 0.814343 0.262272
H28   H     H_    0.765160 0.658372 0.814863 0.261385
N6    N     N_R   0.231115 0.599878 0.361684 0.120888
O15   O     O_R   0.324022 0.587448 0.353272 -0.348405
O16   O     O_R   0.249671 0.675610 0.389168 -0.371853
N7    N     N_R   0.787167 0.882214 0.558172 0.137196
O17   O     O_R   0.902690 0.915313 0.573589 -0.353832
O18   O     O_R   0.716156 0.772718 0.563254 -0.355523
C68   C     C_3   0.147317 0.279363 0.599133 -0.719187
H29   H     H_    0.068389 0.298474 0.591781 0.294262
H30   H     H_    0.113240 0.187247 0.595917 0.211071
H31   H     H_    0.185006 0.290516 0.638359 0.213279
C69   C     C_3   0.539724 0.246939 0.597849 -0.768530
H32   H     H_    0.620228 0.229991 0.598706 0.279514
H33   H     H_    0.537715 0.260973 0.635580 0.251792
H34   H     H_    0.458340 0.168687 0.588050 0.225371
N8    N     N_R   0.681356 0.782790 0.382274 0.139633
O19   O     O_R   0.778143 0.835689 0.358947 -0.346444
O20   O     O_R   0.595955 0.818811 0.370177 -0.289616

loop_
_geom_bond_atom_site_label_1
_geom_bond_atom_site_label_2
_geom_bond_distance
_ccdc_geom_bond_type
C61   C65   1.429439 A    
C56   N4    1.358130 A    
C63   C64   1.383685 A    
C10   H1    1.082874 S    
N2    C27   1.367842 A    
C57   C58   1.403974 A    
C12   C15   1.420089 A    
C55   C66   1.383480 A    
C48   C52   1.401313 A    
Cu2   N4    2.032017 S    
N3    C65   1.371183 A    
C9    N5    1.444780 S    
Cu1   Cu2   2.712195 S    
C66   C68   1.508108 S    
C45   C46   1.416745 A    
Cu1   O7    1.948735 S    
C45   H19   1.076686 S    
C44   N7    1.442081 S    
C60   N4    1.379603 A    
C22   C23   1.395822 A    
C23   C24   1.408223 A    
N6    O16   1.301441 A    
O4    C2    1.303382 A    
O7    C4    1.306297 A    
C46   C48   1.423423 A    
C68   H30   1.110890 S    
C5    O9    1.350430 S    
C59   C60   1.428108 A    
C5    N1    1.362811 A    
C35   C40   1.409987 A    
C23   C27   1.404213 A    
C41   C49   1.403665 A    
O5    C3    1.303343 A    
N5    O13   1.299859 A    
C28   H4    1.082850 S    
H14   C53   1.083185 S    
C29   H3    1.083599 S    
C6    O11   1.347287 S    
C2    C16   1.459667 S    
C7    C8    1.392186 A    
C19   C38   1.416710 A    
C52   H17   1.077167 S    
C55   C62   1.392098 A    
C8    H8    1.083928 S    
C4    C17   1.471076 S    
Cu2   O8    1.947290 S    
C67   H28   1.110135 S    
C58   H24   1.076369 S    
O1    Cu1   1.949809 S    
C9    C10   1.404460 A    
C1    C54   1.477506 S    
C57   N8    1.440794 S    
O3    Cu1   1.947294 S    
N3    C66   1.376339 A    
C59   C61   1.439859 A    
N7    O18   1.301882 A    
C49   C50   1.391207 A    
C12   C34   1.424673 A    
Cu1   N3    2.044094 S    
C39   H11   1.083514 S    
C56   H23   1.081342 S    
C17   C29   1.405109 A    
C38   H10   1.076626 S    
C18   C21   1.416020 A    
C68   H29   1.085168 S    
C44   C45   1.400019 A    
O3    C2    1.302882 A    
C55   H21   1.082759 S    
C46   C47   1.416261 A    
C68   H31   1.110935 S    
C27   O10   1.349745 S    
C8    C16   1.402243 A    
C34   C35   1.415726 A    
C13   C14   1.395911 A    
C60   C64   1.396569 A    
C50   C51   1.386718 A    
O1    C1    1.310783 A    
C21   C22   1.388921 A    
C18   C20   1.418492 A    
C7    C11   1.396939 A    
C43   C44   1.396996 A    
C69   H33   1.110286 S    
C31   H12   1.083293 S    
C38   C39   1.389354 A    
C14   C36   1.384329 A    
C43   C54   1.403556 A    
C61   C62   1.420494 A    
C37   C67   1.513607 S    
C33   C36   1.411946 A    
C58   C59   1.409001 A    
C41   H16   1.083844 S    
N1    C6    1.367231 A    
N2    C32   1.435069 S    
N1    C11   1.435435 S    
C12   C13   1.411681 A    
C26   N2    1.368291 A    
C9    C16   1.419694 A    
O8    C4    1.305882 A    
C14   H2    1.083616 S    
C28   C29   1.392796 A    
N8    O19   1.301634 A    
C25   C26   1.404411 A    
N7    O17   1.301721 A    
C67   H26   1.110790 S    
C30   N6    1.436880 S    
Cu1   O5    1.938566 S    
C51   H20   1.079245 S    
C31   C32   1.399214 A    
C21   H6    1.076818 S    
C20   C24   1.422225 A    
O2    Cu2   1.938566 S    
C6    C15   1.422124 A    
C42   C52   1.396986 A    
C48   C49   1.419120 A    
N8    O20   1.301721 A    
O6    C3    1.305886 A    
O4    Cu2   1.948740 S    
C19   C35   1.424430 A    
C25   C39   1.395906 A    
C26   O12   1.349732 S    
O2    C1    1.304531 A    
C69   H34   1.110614 S    
C22   H5    1.083500 S    
C15   C37   1.421722 A    
N6    O15   1.301275 A    
C37   C40   1.399498 A    
C47   C51   1.413982 A    
C24   C25   1.407582 A    
C7    H9    1.082799 S    
C40   H13   1.075782 S    
C62   C63   1.405816 A    
C63   C69   1.514603 S    
C19   C20   1.419864 A    
C65   H22   1.075459 S    
C42   C53   1.399255 A    
C56   C57   1.402413 A    
N5    O14   1.301808 A    
C18   C33   1.420954 A    
C5    C13   1.398267 A    
C36   H7    1.076827 S    
C30   C31   1.401324 A    
C43   H18   1.081705 S    
C3    C42   1.463354 S    
Cu2   O6    1.949808 S    
C33   C34   1.423339 A    
C17   C30   1.417568 A    
C10   C11   1.399241 A    
C64   H25   1.059706 S    
C41   C53   1.392888 A    
C28   C32   1.398077 A    
C47   C54   1.420561 A    
H15   C50   1.084135 S    
C69   H32   1.108985 S    
C67   H27   1.110125 S    
