data_mof_unit_55459.cif
_audit_creation_date              2012-10-26T19:07:30-0400
_audit_creation_method            fapswitch 2.2
_symmetry_space_group_name_H-M    P1
_symmetry_Int_Tables_number       1
_space_group_crystal_system       triclinic
_cell_length_a                    14.919322
_cell_length_b                    13.838155
_cell_length_c                    10.64326
_cell_angle_alpha                 90.443141
_cell_angle_beta                  87.740882
_cell_angle_gamma                 90.166094
_cell_volume                      2195.58280565

loop_
_atom_site_label
_atom_site_type_symbol
_atom_type_description
_atom_site_fract_x
_atom_site_fract_y
_atom_site_fract_z
_atom_type_partial_charge
C1    C     C_R   0.329128 0.500401 0.504249 0.580471
C2    C     C_R   0.964514 0.524434 0.267958 -0.079603
C3    C     C_R   0.442718 0.794658 0.581052 0.376771
C4    C     C_R   0.560122 0.204902 0.422916 0.386964
C5    C     C_R   0.556369 0.793944 0.417481 0.360506
C6    C     C_R   0.439956 0.205505 0.577374 0.368058
C7    C     C_R   0.548621 0.896385 0.406599 -0.025222
C8    C     C_R   0.450578 0.103170 0.592406 -0.033110
C9    C     C_R   0.450793 0.897133 0.592620 -0.027152
C10   C     C_R   0.549313 0.102424 0.407684 -0.035210
C11   C     C_R   0.499948 0.948215 0.499905 -0.021862
C12   C     C_R   0.670878 0.500598 0.494973 0.580292
C13   C     C_R   0.499990 0.051304 0.500051 -0.017968
C14   C     C_R   0.589342 0.948237 0.306344 -0.137103
C15   C     C_R   0.410525 0.051130 0.693390 -0.150081
C16   C     C_R   0.409424 0.949721 0.692530 -0.130820
C17   C     C_R   0.588736 0.049632 0.306118 -0.146021
C18   C     C_R   0.502449 0.499575 0.259478 0.590876
C19   C     C_R   0.498330 0.500384 0.740643 0.590996
C20   C     C_3   0.544907 0.578792 0.040228 -0.115394
C21   C     C_3   0.457007 0.420705 0.960213 -0.110437
C22   C     C_3   0.585415 0.499897 0.950611 -0.142962
C23   C     C_R   0.953106 0.520622 0.497123 -0.038256
C24   C     C_3   0.416454 0.499547 0.049771 -0.140754
C25   C     C_3   0.458562 0.578907 0.965580 0.260949
C26   C     C_3   0.543259 0.420663 0.035086 0.263727
C27   C     C_3   0.498644 0.501046 0.877490 0.010487
C28   C     C_3   0.503101 0.498633 0.122821 0.012287
C29   C     C_R   0.817095 0.512824 0.377731 0.175726
C30   C     C_R   0.182896 0.513581 0.620775 0.176050
C31   C     C_R   0.767410 0.504489 0.491923 -0.018397
C32   C     C_R   0.232635 0.503722 0.506767 -0.017220
C33   C     C_R   0.808543 0.508434 0.606506 -0.188288
C34   C     C_R   0.047088 0.520315 0.501027 -0.038031
C35   C     C_R   0.191658 0.505908 0.391993 -0.189544
C36   C     C_R   0.900997 0.520548 0.610847 0.004934
C37   C     C_R   0.099226 0.517717 0.387361 0.005822
C38   C     C_3   0.845467 0.631149 0.843643 0.017706
C39   C     C_3   0.888615 0.701900 0.933713 -0.265468
C40   C     C_3   0.837301 0.797108 0.941973 -0.488403
C41   C     C_3   0.153080 0.621968 0.148232 0.019580
C42   C     C_3   0.102043 0.690683 0.065784 -0.261425
C43   C     C_3   0.148892 0.788538 0.054503 -0.483256
C44   C     C_3   0.290321 0.771100 0.608487 0.036717
C45   C     C_R   0.911232 0.519034 0.379711 -0.030497
C46   C     C_3   0.222380 0.775418 0.719949 -0.239246
C47   C     C_3   0.127052 0.789238 0.676221 -0.500591
C48   C     C_3   0.715016 0.203688 0.388453 0.019261
C49   C     C_3   0.791130 0.275005 0.406960 -0.233604
C50   C     C_3   0.881445 0.224349 0.414981 -0.491472
C51   C     C_3   0.707898 0.769130 0.383674 0.024495
C52   C     C_3   0.773594 0.773908 0.269838 -0.261185
C53   C     C_3   0.869941 0.787166 0.310337 -0.488173
C54   C     C_3   0.285114 0.204352 0.612728 0.001414
C55   C     C_3   0.209642 0.275257 0.591691 -0.240523
C56   C     C_R   0.088889 0.520419 0.618497 -0.029553
C57   C     C_3   0.119156 0.224414 0.582822 -0.490256
C58   C     C_R   0.942444 0.532412 0.726974 0.264543
C59   C     C_R   0.057908 0.526927 0.271032 0.262494
C60   C     C_R   0.035701 0.528422 0.730084 -0.079188
Cl1   Cl    Cl    0.401159 0.685709 0.924174 -0.585516
Cl2   Cl    Cl    0.600809 0.314781 0.080538 -0.524254
Cl3   Cl    Cl    0.760408 0.509390 0.234317 -0.631703
Cl4   Cl    Cl    0.239356 0.511305 0.764424 -0.634516
Cu1   Cu    Cu3+1 0.500000 0.597420 0.500000 1.084448
Cu2   Cu    Cu3+1 0.500000 0.402580 0.500000 1.112044
H1    H     H_    0.580737 0.643565 0.074956 0.175145
H2    H     H_    0.380338 0.088532 0.773898 0.136408
H3    H     H_    0.376907 0.912641 0.770922 0.167045
H4    H     H_    0.618597 0.086457 0.225510 0.164557
H5    H     H_    0.775932 0.616075 0.879318 0.157194
H6    H     H_    0.840058 0.666921 0.750548 0.108939
H7    H     H_    0.889648 0.669232 0.028648 0.185173
H8    H     H_    0.958322 0.716846 0.899192 0.148491
H9    H     H_    0.837287 0.831951 0.848294 0.149477
H10   H     H_    0.870088 0.846876 0.008464 0.145697
H11   H     H_    0.766942 0.784413 0.976017 0.155299
H12   H     H_    0.421322 0.355865 0.925457 0.176502
H13   H     H_    0.220155 0.608567 0.102667 0.191312
H14   H     H_    0.164949 0.658106 0.240254 0.109149
H15   H     H_    0.096990 0.658269 0.970618 0.186566
H16   H     H_    0.033724 0.701653 0.108088 0.147261
H17   H     H_    0.151843 0.823799 0.148368 0.147141
H18   H     H_    0.110905 0.836018 0.992097 0.137949
H19   H     H_    0.218084 0.779600 0.013884 0.199413
H20   H     H_    0.268045 0.715520 0.540953 0.163435
H21   H     H_    0.287798 0.841660 0.558677 0.083637
H22   H     H_    0.225152 0.708024 0.774942 0.257296
H23   H     H_    0.654393 0.498677 0.907713 0.142914
H24   H     H_    0.239066 0.836414 0.783152 0.152633
H25   H     H_    0.121738 0.858802 0.625718 0.142408
H26   H     H_    0.079342 0.790294 0.758872 0.141733
H27   H     H_    0.108123 0.729156 0.612740 0.157640
H28   H     H_    0.734402 0.159231 0.304693 0.145189
H29   H     H_    0.711020 0.156466 0.473223 0.102716
H30   H     H_    0.794847 0.324795 0.326071 0.245325
H31   H     H_    0.777761 0.315246 0.495984 0.179952
H32   H     H_    0.880509 0.174615 0.496452 0.146324
H33   H     H_    0.934798 0.279336 0.427353 0.161612
H34   H     H_    0.347530 0.499223 0.092863 0.135201
H35   H     H_    0.897418 0.182821 0.327253 0.156104
H36   H     H_    0.731281 0.713127 0.448431 0.172438
H37   H     H_    0.712012 0.839369 0.435467 0.094693
H38   H     H_    0.768926 0.706967 0.212766 0.228017
H39   H     H_    0.756279 0.835527 0.209528 0.141370
H40   H     H_    0.876436 0.855623 0.364436 0.142159
H41   H     H_    0.915956 0.790360 0.226054 0.140630
H42   H     H_    0.890136 0.725859 0.369505 0.158602
H43   H     H_    0.264966 0.162020 0.697295 0.132796
H44   H     H_    0.289063 0.154962 0.529110 0.114660
H45   H     H_    0.767361 0.502762 0.692352 0.134938
H46   H     H_    0.205462 0.326630 0.671810 0.231450
H47   H     H_    0.224028 0.313698 0.502287 0.183094
H48   H     H_    0.120510 0.173066 0.502031 0.145302
H49   H     H_    0.066254 0.279128 0.568773 0.162077
H50   H     H_    0.102196 0.184629 0.670871 0.154297
H51   H     H_    0.232949 0.499326 0.306235 0.133009
H52   H     H_    0.065641 0.531958 0.820841 0.193776
H53   H     H_    0.934593 0.526865 0.177095 0.198575
H54   H     H_    0.620810 0.910635 0.227061 0.144784
N1    N     N_R   0.500000 0.743810 0.500000 -0.234509
N2    N     N_R   0.500000 0.256190 0.500000 -0.223468
O1    O     O_R   0.370260 0.582280 0.500030 -0.489324
O2    O     O_3   0.107477 0.531930 0.158153 -0.558041
O3    O     O_3   0.376671 0.745926 0.650702 -0.468505
O4    O     O_3   0.633160 0.253183 0.366678 -0.472435
O5    O     O_3   0.620413 0.744450 0.344396 -0.526718
O6    O     O_3   0.367262 0.254180 0.634383 -0.519554
O7    O     O_R   0.629740 0.417720 0.499970 -0.465677
O8    O     O_R   0.629740 0.582280 0.499970 -0.498430
O9    O     O_R   0.370260 0.417720 0.500030 -0.472040
O10   O     O_R   0.499980 0.582260 0.316850 -0.479689
O11   O     O_R   0.500020 0.417740 0.683150 -0.486613
O12   O     O_R   0.500020 0.582260 0.683150 -0.440714
O13   O     O_R   0.499980 0.417740 0.316850 -0.447941
O14   O     O_3   0.893284 0.542407 0.839791 -0.551198

loop_
_geom_bond_atom_site_label_1
_geom_bond_atom_site_label_2
_ccdc_geom_bond_type
C21   C26   S    
C29   Cl3   S    
C34   C56   A    
C8    C13   A    
C23   C45   A    
C48   H29   S    
C30   Cl4   S    
C55   H46   S    
C34   C37   A    
C43   H17   S    
C41   C42   S    
C20   H1    S    
C18   O10   A    
C42   H16   S    
C41   H14   S    
Cu1   O8    S    
C57   H49   S    
C51   H36   S    
C7    C11   A    
C50   H33   S    
C48   H28   S    
C41   O2    S    
C35   C37   A    
C9    C16   A    
C36   C58   A    
C38   C39   S    
C20   C25   S    
C10   C17   A    
C58   C60   A    
C15   C16   A    
C5    N1    A    
C33   C36   A    
C54   H44   S    
C47   H26   S    
C39   H8    S    
C49   C50   S    
C38   H5    S    
C53   H40   S    
C7    C14   A    
C21   H12   S    
Cu2   N2    S    
C60   H52   S    
C33   H45   S    
Cu1   N1    S    
C44   H21   S    
C19   C27   S    
Cu1   O12   S    
Cu2   O7    S    
C48   O4    S    
Cu1   O1    S    
C21   C27   S    
C17   H4    S    
C43   H18   S    
C14   C17   A    
C42   H15   S    
C44   H20   S    
C26   C28   S    
C44   C46   S    
C57   H50   S    
C46   H22   S    
C2    C45   A    
C38   H6    S    
C44   O3    S    
C50   H32   S    
C12   O7    A    
C51   C52   S    
C43   H19   S    
C32   C35   A    
C18   C28   S    
C24   C25   S    
C39   C40   S    
C5    C7    A    
C2    C59   A    
C6    C8    A    
C55   H47   S    
C58   O14   S    
C30   C56   A    
C1    C32   S    
C56   C60   A    
C54   H43   S    
C29   C45   A    
C19   O12   A    
C1    O1    A    
C3    C9    A    
Cu2   O11   S    
C53   H41   S    
C23   C34   A    
C5    O5    S    
C31   C33   A    
C47   H27   S    
C4    N2    A    
C18   O13   A    
C25   Cl1   S    
C9    C11   A    
C37   C59   A    
C12   O8    A    
C48   C49   S    
C20   C22   S    
C52   H39   S    
Cu1   Cu2   S    
C8    C15   A    
C38   O14   S    
C22   C27   S    
C55   C57   S    
C12   C31   S    
C35   H51   S    
C25   C27   S    
C42   C43   S    
C6    N2    A    
C4    C10   A    
Cu1   O10   S    
C52   C53   S    
Cu2   O9    S    
C59   O2    S    
C54   C55   S    
C52   H38   S    
C24   H34   S    
C47   H25   S    
C16   H3    S    
C24   C28   S    
C1    O9    A    
C10   C13   A    
C41   H13   S    
C2    H53   S    
C3    O3    S    
C57   H48   S    
C46   H24   S    
C19   O11   A    
C20   C28   S    
C14   H54   S    
C40   H9    S    
C4    O4    S    
C51   O5    S    
C26   Cl2   S    
C6    O6    S    
C29   C31   A    
C30   C32   A    
C11   C13   A    
C53   H42   S    
C54   O6    S    
C15   H2    S    
C22   H23   S    
C39   H7    S    
C49   H30   S    
C46   C47   S    
C49   H31   S    
Cu2   O13   S    
C40   H10   S    
C50   H35   S    
C23   C36   A    
C22   C26   S    
C21   C24   S    
C40   H11   S    
C51   H37   S    
C3    N1    A    
