data_mof_unit_15034.cif
_audit_creation_date              2012-12-10T17:56:18-0500
_audit_creation_method            fapswitch 2.2
_symmetry_space_group_name_H-M    P1
_symmetry_Int_Tables_number       1
_space_group_crystal_system       triclinic
_cell_length_a                    12.991146
_cell_length_b                    10.821798
_cell_length_c                    9.51349
_cell_angle_alpha                 89.673381
_cell_angle_beta                  96.25834
_cell_angle_gamma                 90.837564
_cell_volume                      1329.35419783

loop_
_atom_site_label
_atom_site_type_symbol
_atom_type_description
_atom_site_fract_x
_atom_site_fract_y
_atom_site_fract_z
_atom_type_partial_charge
C1    C     C_R   0.500662 0.262236 0.500646 0.834521
C2    C     C_R   0.498260 0.737848 0.499270 0.852989
C3    C     C_R   0.497727 0.871772 0.498166 -0.173858
C4    C     C_R   0.501419 0.128509 0.501786 -0.183622
C5    C     C_R   0.430681 0.426350 0.065958 0.562888
C6    C     C_R   0.569786 0.573173 0.933762 0.581925
C7    C     C_R   0.432033 0.427082 0.915236 -0.236156
C8    C     C_R   0.569467 0.571095 0.084824 -0.254336
C9    C     C_R   0.300428 0.500641 0.473632 0.812302
C10   C     C_R   0.699562 0.499771 0.526454 0.790250
C11   C     C_R   0.812312 0.498056 0.541879 -0.044912
C12   C     C_R   0.187686 0.503717 0.458665 -0.050848
C13   C     C_R   0.024460 0.531554 0.314285 -0.225990
C14   C     C_R   0.975538 0.471571 0.686699 -0.230927
C15   C     C_R   0.131967 0.527419 0.326756 -0.196708
C16   C     C_R   0.868009 0.475836 0.674139 -0.200498
C17   C     C_R   0.135325 0.484998 0.578424 -0.265641
C18   C     C_R   0.864721 0.516876 0.422307 -0.270716
C19   C     C_R   0.027944 0.489710 0.567047 0.180944
C20   C     C_R   0.972102 0.512889 0.433848 0.177839
C21   C     C_R   0.459670 0.065978 0.380189 -0.344716
C22   C     C_R   0.538286 0.934514 0.620616 -0.342569
C23   C     C_R   0.458383 0.937503 0.376248 0.438953
C24   C     C_R   0.541894 0.062602 0.622829 0.443044
Cu1   Cu    Cu3+1 0.500000 0.500020 0.640660 0.990657
Cu2   Cu    Cu3+1 0.500000 0.499980 0.359340 0.992397
H1    H     H_    0.822082 0.534672 0.320049 0.149374
H2    H     H_    0.177928 0.466556 0.680719 0.143679
H3    H     H_    0.828506 0.460532 0.767344 0.171725
H4    H     H_    0.171416 0.542938 0.233457 0.170666
H5    H     H_    0.982424 0.549532 0.211628 0.142647
H6    H     H_    0.017556 0.453767 0.789440 0.131825
H7    H     H_    0.425057 0.117028 0.289339 0.201774
H8    H     H_    0.568159 0.884369 0.714815 0.183599
H9    H     H_    0.380293 0.369101 0.847017 0.149812
H10   H     H_    0.624152 0.624681 0.153757 0.163973
N1    N     N_R   0.500030 0.500030 0.852080 -0.207661
N2    N     N_R   0.499970 0.499970 0.147920 -0.205179
O1    O     O_R   0.499990 0.319660 0.618740 -0.544645
O2    O     O_R   0.500010 0.680340 0.381260 -0.560147
O3    O     O_R   0.499990 0.319630 0.381170 -0.549095
O4    O     O_R   0.500010 0.680370 0.618830 -0.558874
O5    O     O_R   0.349000 0.499990 0.599490 -0.602716
O6    O     O_R   0.651000 0.500010 0.400510 -0.603694
O7    O     O_R   0.348990 0.499960 0.361920 -0.536720
O8    O     O_R   0.651010 0.500040 0.638080 -0.539617
O9    O     O_3   0.406133 0.876589 0.261515 -0.566114
C25   C     C_3   0.462067 0.890528 0.143032 0.082413
H11   H     H_    0.540049 0.849264 0.165512 0.129961
H12   H     H_    0.470862 0.989316 0.112829 0.144165
C26   C     C_3   0.403813 0.824139 0.017370 -0.751512
H13   H     H_    0.328227 0.869109 0.987499 0.240979
H14   H     H_    0.449914 0.828163 0.925714 0.204027
H15   H     H_    0.389565 0.725953 0.044616 0.246556
O10   O     O_3   0.579089 0.122359 0.746495 -0.566551
C27   C     C_3   0.686865 0.141253 0.747416 0.076584
H16   H     H_    0.705626 0.192730 0.651326 0.125868
H17   H     H_    0.727631 0.051213 0.753756 0.125863
C28   C     C_3   0.726599 0.217631 0.876301 -0.771353
H18   H     H_    0.710554 0.168279 0.974432 0.237746
H19   H     H_    0.811451 0.233135 0.878574 0.188736
H20   H     H_    0.687758 0.308579 0.872008 0.261118
O11   O     O_3   0.366076 0.349164 0.136730 -0.547914
C29   C     C_3   0.280696 0.299148 0.049771 -0.004379
H21   H     H_    0.307041 0.228574 0.977535 0.153392
H22   H     H_    0.236786 0.373283 0.988758 0.128936
C30   C     C_3   0.207703 0.234196 0.141846 -0.762008
H23   H     H_    0.182728 0.299203 0.220674 0.252512
H24   H     H_    0.138227 0.199102 0.074781 0.198209
H25   H     H_    0.246954 0.154972 0.198324 0.248290
O12   O     O_3   0.639390 0.642452 0.861943 -0.555836
C31   C     C_3   0.701513 0.730123 0.943075 0.039471
H26   H     H_    0.659541 0.779245 0.020819 0.104740
H27   H     H_    0.723579 0.803659 0.869736 0.167833
C32   C     C_3   0.801688 0.672127 0.010094 -0.872704
H28   H     H_    0.851001 0.647551 0.926497 0.253587
H29   H     H_    0.844883 0.739115 0.083172 0.216558
H30   H     H_    0.785494 0.587064 0.069759 0.232887

loop_
_geom_bond_atom_site_label_1
_geom_bond_atom_site_label_2
_ccdc_geom_bond_type
O10   C27   S    
C11   C18   A    
C9    O7    A    
C3    C23   A    
C19   C20   A    
Cu1   O5    S    
Cu2   O6    S    
C24   O10   S    
C4    C24   A    
C21   H7    S    
C27   H16   S    
C5    O11   S    
C8    H10   S    
Cu2   O7    S    
Cu1   N1    S    
C25   C26   S    
C12   C17   A    
C10   O8    A    
C14   C16   A    
C25   H12   S    
C28   H18   S    
C5    N2    A    
C8    N2    A    
C31   C32   S    
C9    C12   S    
C6    O12   S    
C22   H8    S    
C9    O5    A    
C1    C4    S    
C28   H19   S    
C10   O6    A    
C30   H23   S    
C29   C30   S    
C23   O9    S    
C31   H27   S    
C5    C7    A    
Cu2   N2    S    
C6    C8    A    
C16   H3    S    
C26   H13   S    
C30   H24   S    
C29   H22   S    
C32   H28   S    
C11   C16   A    
O9    C25   S    
C12   C15   A    
C7    N1    A    
C6    N1    A    
C32   H29   S    
C1    O3    A    
C25   H11   S    
C13   C15   A    
C22   C24   A    
C15   H4    S    
C28   H20   S    
C13   C20   A    
C17   H2    S    
C7    H9    S    
C14   C19   A    
C13   H5    S    
C18   H1    S    
C14   H6    S    
C31   H26   S    
Cu1   O4    S    
C27   C28   S    
C30   H25   S    
C29   H21   S    
C26   H15   S    
C21   C23   A    
C2    C3    S    
Cu1   Cu2   S    
O12   C31   S    
Cu1   O1    S    
C4    C21   A    
Cu2   O2    S    
C2    O4    A    
C17   C19   A    
C27   H17   S    
C18   C20   A    
C32   H30   S    
C10   C11   S    
C1    O1    A    
O11   C29   S    
C2    O2    A    
C3    C22   A    
C26   H14   S    
Cu1   O8    S    
Cu2   O3    S    
