data_mof_unit_43148.cif
_audit_creation_date              2012-10-26T21:17:40-0400
_audit_creation_method            fapswitch 2.2
_symmetry_space_group_name_H-M    P1
_symmetry_Int_Tables_number       1
_space_group_crystal_system       triclinic
_cell_length_a                    10.823082
_cell_length_b                    9.079717
_cell_length_c                    7.892603
_cell_angle_alpha                 89.989254
_cell_angle_beta                  88.904313
_cell_angle_gamma                 90.005601
_cell_volume                      775.468379271

loop_
_atom_site_label
_atom_site_type_symbol
_atom_type_description
_atom_site_fract_x
_atom_site_fract_y
_atom_site_fract_z
_atom_type_partial_charge
C1    C     C_R   0.499873 0.220461 0.500003 0.550624
C2    C     C_R   0.057415 0.505107 0.656022 0.026895
C3    C     C_R   0.127695 0.519703 0.506022 -0.000291
C4    C     C_R   0.872710 0.477973 0.496594 -0.006877
C5    C     C_R   0.065766 0.537624 0.355305 -0.175491
C6    C     C_R   0.937304 0.533944 0.356469 -0.182796
C7    C     C_1   0.499743 0.065495 0.500043 -0.063075
C8    C     C_1   0.499775 0.934506 0.500038 -0.064150
C9    C     C_3   0.147349 0.827231 0.740147 -0.302856
C10   C     C_3   0.822515 0.143219 0.687220 -0.298662
C11   C     C_R   0.499921 0.779540 0.499990 0.546229
C12   C     C_R   0.262130 0.509892 0.502021 0.557815
C13   C     C_R   0.737902 0.489250 0.498848 0.556633
C14   C     C_R   0.085675 0.577773 0.808366 0.158159
C15   C     C_R   0.883288 0.384508 0.791512 0.163384
C16   C     C_R   0.004323 0.560194 0.945957 -0.146482
C17   C     C_R   0.912939 0.450817 0.944299 -0.125445
C18   C     C_R   0.938874 0.443322 0.643535 0.016300
Cu1   Cu    Cu3+1 0.500000 0.500000 0.669080 1.034593
Cu2   Cu    Cu3+1 0.500000 0.500000 0.330920 0.996989
H1    H     H_    0.118549 0.564336 0.242712 0.141153
H2    H     H_    0.744492 0.063849 0.692196 0.145974
H3    H     H_    0.905723 0.089039 0.739053 0.129618
H4    H     H_    0.839984 0.173121 0.552527 0.146275
H5    H     H_    0.886844 0.580780 0.253878 0.133089
H6    H     H_    0.009137 0.638527 0.046913 0.101318
H7    H     H_    0.858598 0.423903 0.055872 0.124306
H8    H     H_    0.215487 0.700512 0.935302 0.251397
H9    H     H_    0.227605 0.903169 0.745696 0.150276
H10   H     H_    0.067948 0.877664 0.810093 0.128207
H11   H     H_    0.123258 0.812639 0.605105 0.149063
H12   H     H_    0.749889 0.247051 0.902000 0.251302
N1    N     N_1   0.500000 0.500000 0.076820 -0.091902
N2    N     N_1   0.500000 0.500000 0.923180 -0.083716
N3    N     N_2   0.179469 0.687632 0.816091 -0.478062
N4    N     N_2   0.790878 0.272290 0.786535 -0.477868
O1    O     O_R   0.500000 0.288390 0.642760 -0.489658
O2    O     O_R   0.500000 0.711610 0.642760 -0.493758
O3    O     O_R   0.500000 0.288370 0.357190 -0.498042
O4    O     O_R   0.500000 0.711630 0.357190 -0.498933
O5    O     O_R   0.319650 0.500000 0.642810 -0.470875
O6    O     O_R   0.680350 0.500000 0.642810 -0.471380
O7    O     O_R   0.319630 0.500000 0.357240 -0.516339
O8    O     O_R   0.680370 0.500000 0.357240 -0.522942

loop_
_geom_bond_atom_site_label_1
_geom_bond_atom_site_label_2
_ccdc_geom_bond_type
C11   O2    A    
C15   C17   A    
C12   O5    A    
Cu1   O2    S    
C1    O1    A    
C10   H3    S    
C2    C18   A    
C15   C18   A    
Cu1   Cu2   S    
Cu1   O6    S    
C9    H9    S    
C4    C18   A    
C2    C3    A    
C7    C8    T    
C10   H2    S    
C5    C6    A    
C9    H10   S    
C8    C11   S    
Cu2   O4    S    
Cu2   N1    S    
H12   N4    S    
C13   O6    A    
Cu2   O8    S    
N1    N2    T    
C12   O7    A    
C16   H6    S    
C11   O4    A    
C2    C14   A    
C14   C16   A    
C6    H5    S    
C1    O3    A    
C17   H7    S    
C15   N4    S    
C14   N3    S    
Cu2   O7    S    
C5    H1    S    
C4    C6    A    
C4    C13   S    
C9    N3    S    
Cu2   O3    S    
C9    H11   S    
C10   N4    S    
C3    C12   S    
Cu1   O1    S    
C10   H4    S    
C1    C7    S    
C13   O8    A    
Cu1   O5    S    
H8    N3    S    
C16   C17   A    
C3    C5    A    
Cu1   N2    S    
