data_mof_unit_67921.cif
_audit_creation_date              2013-03-05T16:14:16-0500
_audit_creation_method            fapswitch 2.2
_symmetry_space_group_name_H-M    P1
_symmetry_Int_Tables_number       1
_space_group_crystal_system       triclinic
_cell_length_a                    10.821299
_cell_length_b                    10.65087
_cell_length_c                    10.024152
_cell_angle_alpha                 89.24576
_cell_angle_beta                  93.085295
_cell_angle_gamma                 86.267381
_cell_volume                      1151.06317409

loop_
_atom_site_label
_atom_site_type_symbol
_atom_site_description
_atom_site_fract_x
_atom_site_fract_y
_atom_site_fract_z
_atom_type_partial_charge
O1    O     O_R   0.499990 0.316750 0.614620 -0.579442
O2    O     O_R   0.500010 0.683250 0.385380 -0.579445
O3    O     O_R   0.499990 0.316780 0.385290 -0.568638
O4    O     O_R   0.500010 0.683220 0.614710 -0.568667
C1    C     C_R   0.500488 0.260771 0.500603 0.960068
C2    C     C_R   0.499509 0.739229 0.499397 0.960043
O5    O     O_R   0.316760 0.500000 0.614660 -0.552212
O6    O     O_R   0.683240 0.500000 0.385340 -0.552217
O7    O     O_R   0.316760 0.500020 0.385330 -0.628912
O8    O     O_R   0.683240 0.499980 0.614670 -0.628940
C3    C     C_R   0.260001 0.505878 0.496069 0.924169
C4    C     C_R   0.739999 0.494127 0.503931 0.924175
Zn1   Zn    Zn3+2 0.500000 0.499980 0.653120 1.114396
Zn2   Zn    Zn3+2 0.500000 0.500020 0.346880 1.114412
C5    C     C_R   0.036098 0.819275 0.123615 -0.152617
C6    C     C_R   0.963873 0.180728 0.876366 -0.152647
C7    C     C_R   0.030579 0.764815 0.251120 0.345500
C8    C     C_R   0.969398 0.235194 0.748863 0.345466
C9    C     C_R   0.080916 0.639246 0.275011 -0.018888
C10   C     C_R   0.919078 0.360772 0.724989 -0.018907
C11   C     C_R   0.131326 0.571972 0.169709 -0.227983
C12   C     C_R   0.868676 0.428042 0.830297 -0.227993
C13   C     C_R   0.137057 0.627081 0.042667 0.233181
C14   C     C_R   0.862942 0.372927 0.957335 0.233157
C15   C     C_R   0.090601 0.752808 0.020508 0.239741
C16   C     C_R   0.909384 0.247194 0.979482 0.239737
C17   C     C_R   0.920206 0.560284 0.403977 -0.120738
C18   C     C_R   0.079790 0.439744 0.596034 -0.120701
H1    H     H_    0.857784 0.608601 0.329051 0.219511
H2    H     H_    0.142210 0.391424 0.670960 0.219511
C19   C     C_R   0.872953 0.495812 0.509281 -0.053543
C20   C     C_R   0.127045 0.504208 0.490724 -0.053547
C21   C     C_R   0.954082 0.433393 0.607510 0.080868
C22   C     C_R   0.045914 0.566633 0.392499 0.080844
C23   C     C_R   0.405281 0.074443 0.431702 -0.158287
C24   C     C_R   0.594711 0.925557 0.568300 -0.158250
C25   C     C_R   0.401384 0.945418 0.430302 0.391273
C26   C     C_R   0.598612 0.054582 0.569696 0.391281
C27   C     C_R   0.497455 0.872036 0.498876 -0.191931
C28   C     C_R   0.502540 0.127963 0.501124 -0.191941
C29   C     C_R   0.527393 0.604727 0.071447 0.243305
C30   C     C_R   0.472608 0.395272 0.928552 0.243307
C31   C     C_R   0.528930 0.604173 0.929221 0.244045
C32   C     C_R   0.471071 0.395826 0.070779 0.244046
N1    N     N_R   0.499970 0.499970 0.857200 -0.213729
N2    N     N_R   0.500030 0.500030 0.142800 -0.213732
N3    N     N_R   0.091756 0.812246 0.892039 0.242052
O9    O     O_R   0.987935 0.838727 0.822899 -0.280406
O10   O     O_R   0.192949 0.858557 0.854712 -0.226442
N4    N     N_R   0.908221 0.187743 0.107946 0.242062
O11   O     O_R   0.012053 0.161092 0.177012 -0.280486
O12   O     O_R   0.806993 0.141527 0.145296 -0.226426
N5    N     N_R   0.567603 0.712932 0.862767 0.257810
O13   O     O_R   0.681795 0.715591 0.829266 -0.351172
O14   O     O_R   0.496055 0.816096 0.856274 -0.245373
N6    N     N_R   0.432386 0.287071 0.137234 0.257830
O15   O     O_R   0.318209 0.284454 0.170803 -0.351228
O16   O     O_R   0.503909 0.183895 0.143711 -0.245360
H3    H     H_    0.998022 0.914597 0.103908 0.227933
H4    H     H_    0.001927 0.085396 0.896064 0.227934
N7    N     N_R   0.970967 0.836616 0.353724 0.238438
O17   O     O_R   0.002277 0.815826 0.479655 -0.266790
O18   O     O_R   0.888197 0.927520 0.321363 -0.254328
N8    N     N_R   0.028979 0.163384 0.646242 0.238470
O19   O     O_R   0.997753 0.184283 0.520306 -0.266957
O20   O     O_R   0.111578 0.072312 0.678589 -0.254183
H5    H     H_    0.158906 0.473182 0.184624 0.245841
H6    H     H_    0.841102 0.526834 0.815388 0.245838
N9    N     N_R   0.179770 0.550897 0.935337 0.182689
O21   O     O_R   0.227025 0.601305 0.832732 -0.336672
O22   O     O_R   0.170559 0.429786 0.939356 -0.390366
N10   N     N_R   0.820245 0.449112 0.064671 0.182691
O23   O     O_R   0.773001 0.398708 0.167284 -0.336663
O24   O     O_R   0.829462 0.570221 0.060651 -0.390365
H7    H     H_    0.330423 0.133525 0.382863 0.229600
H8    H     H_    0.669569 0.866473 0.617141 0.229592
N11   N     N_R   0.297172 0.890894 0.365780 0.232084
O25   O     O_R   0.252776 0.792782 0.418977 -0.403145
O26   O     O_R   0.235786 0.949520 0.265865 -0.308619
N12   N     N_R   0.702829 0.109104 0.634208 0.232073
O27   O     O_R   0.747222 0.207215 0.581005 -0.403131
O28   O     O_R   0.764234 0.050465 0.734102 -0.308666
N13   N     N_R   0.555244 0.717310 0.139259 0.264263
O29   O     O_R   0.475065 0.813938 0.132780 -0.281191
O30   O     O_R   0.665992 0.729557 0.192298 -0.305171
N14   N     N_R   0.444743 0.282694 0.860739 0.264266
O31   O     O_R   0.524902 0.186050 0.867228 -0.281197
O32   O     O_R   0.334006 0.270476 0.807659 -0.305254

loop_
_geom_bond_atom_site_label_1
_geom_bond_atom_site_label_2
_geom_bond_distance
_ccdc_geom_bond_type
Zn1   N1    2.045745 S    
C17   H1    1.084055 S    
C13   N9    1.434319 S    
Zn2   N2    2.045745 S    
N5    O13   1.299812 A    
O5    C3    1.307204 A    
C23   H7    1.083839 S    
O1    C1    1.296135 A    
C23   C25   1.377851 A    
C14   C16   1.409882 A    
C16   N4    1.428530 S    
N14   O32   1.299811 A    
C5    C15   1.395629 A    
C29   N13   1.427304 S    
N6    O15   1.299831 A    
N9    O22   1.300500 A    
C6    H4    1.082153 S    
O4    Zn1   1.984312 S    
N7    O18   1.300943 A    
C24   H8    1.083846 S    
C7    N7    1.444541 S    
C31   N5    1.426030 S    
N3    O9    1.300717 A    
N4    O12   1.300739 A    
C29   N2    1.373875 A    
C19   C21   1.412797 A    
C30   N14   1.427303 S    
C15   N3    1.428515 S    
N7    O17   1.301610 A    
N11   O26   1.300841 A    
C11   H5    1.081071 S    
C29   C31   1.426775 A    
O2    C2    1.296135 A    
C30   C32   1.426781 A    
C32   N2    1.375952 A    
N5    O14   1.301134 A    
C17   C22   1.377286 A    
C6    C16   1.395632 A    
C17   C19   1.389970 A    
C18   C20   1.389977 A    
N10   O24   1.300491 A    
N14   O31   1.300815 A    
N12   O27   1.298238 A    
N11   O25   1.298233 A    
C25   N11   1.429665 S    
C9    C22   1.480130 S    
C30   N1    1.373879 A    
C20   C22   1.412811 A    
O7    Zn2   2.040270 S    
C31   N1    1.375944 A    
C32   N6    1.426031 S    
N13   O29   1.300822 A    
O6    C4    1.307206 A    
N4    O11   1.300744 A    
O7    C3    1.297543 A    
C12   H6    1.081076 S    
O3    Zn2   1.984311 S    
O8    C4    1.297536 A    
C10   C21   1.480115 S    
O4    C2    1.293366 A    
N13   O30   1.299827 A    
C10   C12   1.398640 A    
C18   C21   1.377278 A    
C11   C13   1.401322 A    
C4    C19   1.438138 S    
C12   C14   1.401315 A    
O1    Zn1   1.994336 S    
C14   N10   1.434316 S    
C5    C7    1.402444 A    
O6    Zn2   1.999538 S    
C9    C11   1.398644 A    
C5    H3    1.082150 S    
C24   C27   1.388021 A    
N10   O23   1.298232 A    
O3    C1    1.293367 A    
O8    Zn1   2.040268 S    
C3    C20   1.438148 S    
N3    O10   1.300766 A    
N8    O19   1.301640 A    
C18   H2    1.084048 S    
C23   C28   1.388025 A    
C25   C27   1.402603 A    
C26   C28   1.402605 A    
C8    N8    1.444574 S    
C26   N12   1.429667 S    
C24   C26   1.377850 A    
C7    C9    1.423174 A    
N12   O28   1.300838 A    
N6    O16   1.301099 A    
C8    C10   1.423178 A    
C13   C15   1.409880 A    
N9    O21   1.298244 A    
O2    Zn2   1.994336 S    
O5    Zn1   1.999540 S    
C6    C8    1.402458 A    
C1    C28   1.413182 S    
C2    C27   1.413179 S    
N8    O20   1.301001 A    
