data_mof_unit_13970.cif
_audit_creation_date              2012-12-10T17:33:03-0500
_audit_creation_method            fapswitch 2.2
_symmetry_space_group_name_H-M    P1
_symmetry_Int_Tables_number       1
_space_group_crystal_system       triclinic
_cell_length_a                    12.477285
_cell_length_b                    13.271143
_cell_length_c                    14.25923
_cell_angle_alpha                 94.752916
_cell_angle_beta                  108.009767
_cell_angle_gamma                 117.542344
_cell_volume                      1918.25967874

loop_
_atom_site_label
_atom_site_type_symbol
_atom_type_description
_atom_site_fract_x
_atom_site_fract_y
_atom_site_fract_z
_atom_type_partial_charge
C1    C     C_R   0.651194 0.714576 0.509492 0.860841
C2    C     C_R   0.841259 0.493123 0.920447 -0.080454
C3    C     C_R   0.797527 0.516836 0.995680 -0.225061
C4    C     C_R   0.940107 0.462743 0.945742 0.041705
C5    C     C_R   0.008007 0.472663 0.049706 -0.100291
C6    C     C_R   0.958461 0.491936 0.122437 0.509719
C7    C     C_R   0.855383 0.513483 0.095545 0.623738
C8    C     C_R   0.969135 0.417882 0.869500 -0.155471
C9    C     C_R   0.068109 0.391828 0.894750 -0.128256
C10   C     C_R   0.145257 0.413258 0.996827 -0.051761
C11   C     C_R   0.118743 0.457340 0.075458 0.062005
C12   C     C_R   0.618476 0.517346 0.687028 0.878527
C13   C     C_R   0.249333 0.391669 0.020957 0.579997
C14   C     C_R   0.328708 0.413484 0.122827 0.320499
C15   C     C_R   0.207094 0.488871 0.176881 -0.174179
C16   C     C_R   0.130591 0.959136 0.356947 0.392065
C17   C     C_R   0.247494 0.159854 0.461991 -0.109558
C18   C     C_R   0.738473 0.927753 0.578544 0.630352
C19   C     C_R   0.831061 0.045619 0.596929 -0.199388
C20   C     C_R   0.928320 0.077244 0.558506 -0.276706
C21   C     C_R   0.932478 0.990720 0.496925 0.120926
C22   C     C_R   0.827811 0.872240 0.467064 -0.001246
C23   C     C_R   0.345094 0.284776 0.484551 0.825357
C24   C     C_R   0.036314 0.018322 0.463010 0.057403
C25   C     C_R   0.027120 0.931095 0.390555 0.030607
C26   C     C_R   0.913845 0.818952 0.351903 -0.113478
C27   C     C_R   0.815533 0.790437 0.388640 -0.145435
C28   C     C_R   0.150231 0.130266 0.500565 -0.199146
C29   C     C_R   0.239352 0.073678 0.392090 -0.206587
C30   C     C_R   0.737195 0.839369 0.515442 -0.222839
C31   C     C_R   0.261338 0.689081 0.664932 -0.236549
C32   C     C_R   0.647899 0.330042 0.371143 0.169092
C33   C     C_R   0.717189 0.276969 0.358167 -0.211145
C34   C     C_R   0.380614 0.481339 0.312382 0.862725
C35   C     C_R   0.851955 0.333807 0.414560 -0.054103
C36   C     C_R   0.923225 0.449985 0.478341 -0.030038
C37   C     C_R   0.845564 0.494902 0.499113 0.140990
C38   C     C_R   0.066325 0.518855 0.528986 -0.085804
C39   C     C_R   0.124914 0.621064 0.609784 -0.000220
C40   C     C_R   0.047925 0.656980 0.635762 -0.272191
C41   C     C_R   0.913421 0.598289 0.582077 0.582335
C42   C     C_R   0.156397 0.496475 0.501979 0.548315
C43   C     C_R   0.342652 0.659574 0.638294 0.059561
C44   C     C_R   0.681513 0.522291 0.794462 -0.153126
C45   C     C_R   0.307204 0.462225 0.202378 -0.280421
C46   C     C_R   0.694907 0.541315 0.968677 0.762287
C47   C     C_R   0.636274 0.542104 0.868345 -0.259032
C48   C     C_R   0.786020 0.502245 0.821964 -0.145172
Cu1   Cu    Cu3+1 0.416420 0.526630 0.522910 1.035854
Cu2   Cu    Cu3+1 0.583580 0.473370 0.477090 1.020845
H1    H     H_    0.314804 0.096306 0.361823 0.180821
H2    H     H_    0.900006 0.751842 0.293102 0.252907
H3    H     H_    0.165792 0.197525 0.559759 0.163502
H4    H     H_    0.996609 0.170503 0.576293 0.159023
H5    H     H_    0.830160 0.113176 0.644251 0.169635
H6    H     H_    0.728201 0.704036 0.352398 0.193280
H7    H     H_    0.447964 0.711573 0.680923 0.182070
H8    H     H_    0.202657 0.538688 0.237551 0.265516
H9    H     H_    0.093260 0.734418 0.698787 0.195054
H10   H     H_    0.305164 0.765772 0.728127 0.167213
H11   H     H_    0.542351 0.283236 0.330098 0.150095
H12   H     H_    0.895066 0.280367 0.412740 0.186096
H13   H     H_    0.665314 0.188958 0.307897 0.163087
H14   H     H_    0.085364 0.356418 0.833371 0.187831
H15   H     H_    0.555698 0.558411 0.848689 0.189551
H16   H     H_    0.824790 0.496113 0.765388 0.174226
H17   H     H_    0.912931 0.396576 0.788713 0.126472
N1    N     N_R   0.290690 0.566960 0.557640 -0.223582
N2    N     N_R   0.709100 0.433710 0.442970 -0.200093
O1    O     O_R   0.545970 0.684450 0.528810 -0.531860
O2    O     O_R   0.687130 0.639470 0.490120 -0.523292
O3    O     O_R   0.519670 0.535100 0.660030 -0.600050
O4    O     O_R   0.660830 0.490120 0.621340 -0.535388
O5    O     O_R   0.312870 0.360530 0.509880 -0.551057
O6    O     O_R   0.454030 0.315550 0.471190 -0.613702
O7    O     O_R   0.339170 0.509880 0.378660 -0.528607
O8    O     O_R   0.480330 0.464900 0.339970 -0.554569
F1    F     F_    0.811491 0.529610 0.168354 -0.554680
F2    F     F_    0.273214 0.348036 0.945069 -0.620423
Cl1   Cl    Cl    0.126653 0.855053 0.268400 -0.592537
F3    F     F_    0.652420 0.900643 0.625012 -0.658274
Cl2   Cl    Cl    0.101594 0.388139 0.390489 -0.551557
F4    F     F_    0.857056 0.645648 0.620928 -0.651548
Cl3   Cl    Cl    0.453585 0.378955 0.144686 -0.441923
F5    F     F_    0.649770 0.563346 0.038473 -0.574112
F6    F     F_    0.998379 0.478392 0.217763 -0.597211

loop_
_geom_bond_atom_site_label_1
_geom_bond_atom_site_label_2
_ccdc_geom_bond_type
C13   F2    S    
Cu1   N1    S    
C37   N2    A    
C9    H14   S    
C17   C29   A    
C35   C36   A    
C42   Cl2   S    
C14   Cl3   S    
C4    C8    A    
C26   C27   A    
C17   C23   S    
C31   C43   A    
C36   C37   A    
Cu2   N2    S    
C32   H11   S    
C5    C11   A    
C3    C7    A    
C34   O8    A    
C5    C6    A    
C41   F4    S    
C18   F3    S    
C18   C19   A    
C11   C15   A    
C19   C20   A    
C8    C9    A    
Cu1   O3    S    
C18   C30   A    
C13   C14   A    
C9    C10   A    
C44   C47   A    
C46   F5    S    
C12   O3    A    
C40   H9    S    
C21   C22   A    
C42   N1    A    
C14   C45   A    
C24   C25   A    
C20   H4    S    
Cu2   O4    S    
C39   C40   A    
C27   H6    S    
C43   N1    A    
C2    C48   A    
C25   C26   A    
C16   Cl1   S    
C31   H10   S    
C2    C4    A    
Cu2   O2    S    
C26   H2    S    
C33   H13   S    
Cu1   O7    S    
C34   C45   S    
C1    O2    A    
C32   N2    A    
C7    F1    S    
C40   C41   A    
C22   C27   A    
C15   H8    S    
C15   C45   A    
C23   O5    A    
Cu2   O8    S    
C29   H1    S    
C19   H5    S    
C16   C25   A    
C46   C47   A    
C22   C30   A    
C17   C28   A    
C24   C28   A    
C23   O6    A    
C4    C5    A    
C10   C13   A    
C28   H3    S    
C38   C42   A    
C6    C7    A    
C3    C46   A    
C1    O1    A    
C6    F6    S    
Cu1   O1    S    
C32   C33   A    
C36   C38   A    
C2    C3    A    
C16   C29   A    
C12   C44   S    
Cu2   O6    S    
C38   C39   A    
C1    C30   S    
C33   C35   A    
C31   C39   A    
C35   H12   S    
C37   C41   A    
C10   C11   A    
C43   H7    S    
C20   C21   A    
C8    H17   S    
Cu1   Cu2   S    
C21   C24   A    
Cu1   O5    S    
C48   H16   S    
C12   O4    A    
C47   H15   S    
C44   C48   A    
C34   O7    A    
