data_mof_unit_60420.cif
_audit_creation_date              2012-10-26T17:16:49-0400
_audit_creation_method            fapswitch 2.2
_symmetry_space_group_name_H-M    P1
_symmetry_Int_Tables_number       1
_space_group_crystal_system       triclinic
_cell_length_a                    19.10063
_cell_length_b                    18.784364
_cell_length_c                    18.899162
_cell_angle_alpha                 109.444204
_cell_angle_beta                  110.270633
_cell_angle_gamma                 109.848354
_cell_volume                      5144.3465671

loop_
_atom_site_label
_atom_site_type_symbol
_atom_type_description
_atom_site_fract_x
_atom_site_fract_y
_atom_site_fract_z
_atom_type_partial_charge
C1    C     C_R   0.379461 0.380677 0.497123 0.531897
C2    C     C_R   0.224619 0.261056 0.419507 -0.001233
C3    C     C_R   0.310379 0.311387 0.491792 -0.001457
C4    C     C_R   0.618037 0.499473 0.620117 0.601137
C5    C     C_R   0.334853 0.286874 0.553532 -0.090596
C6    C     C_R   0.275027 0.216327 0.549413 0.092927
C7    C     C_R   0.185602 0.172002 0.485082 -0.011573
C8    C     C_R   0.337153 0.418002 0.191015 0.130245
C9    C     C_R   0.357726 0.430252 0.129876 0.102735
C10   C     C_R   0.321839 0.467179 0.086624 -0.120840
C11   C     C_R   0.262079 0.486941 0.100252 -0.140844
C12   C     C_3   0.809966 0.498701 0.807146 -0.051753
C13   C     C_R   0.247774 0.483416 0.167937 -0.010382
C14   C     C_R   0.296864 0.461325 0.222719 0.003968
C15   C     C_R   0.303117 0.483796 0.305852 0.018554
C16   C     C_R   0.612407 0.619592 0.494675 0.589723
C17   C     C_R   0.241908 0.502497 0.319822 0.082079
C18   C     C_R   0.180856 0.505144 0.255754 -0.087282
C19   C     C_R   0.184545 0.498370 0.181461 0.000943
C20   C     C_R   0.649391 0.806604 0.573536 0.092827
C21   C     C_R   0.691991 0.892473 0.642757 -0.072617
C22   C     C_R   0.767806 0.956412 0.657658 0.107482
C23   C     C_3   0.851086 0.565847 0.780910 -0.060337
C24   C     C_R   0.791513 0.935105 0.594773 0.091368
C25   C     C_R   0.767545 0.846390 0.545460 -0.009587
C26   C     C_R   0.695429 0.779568 0.536365 0.000216
C27   C     C_R   0.672881 0.690084 0.490922 0.009421
C28   C     C_R   0.376483 0.494627 0.378846 0.541741
C29   C     C_R   0.716129 0.668713 0.448478 -0.115824
C30   C     C_R   0.783560 0.733721 0.454261 -0.119790
C31   C     C_R   0.811592 0.822101 0.504002 0.023660
C32   C     C_R   0.995368 0.380275 0.877655 0.527719
C33   C     C_R   0.878024 0.498178 0.875908 0.585096
C34   C     C_3   0.754477 0.522722 0.843168 -0.214241
C35   C     C_R   0.993444 0.620214 0.111048 0.560207
C36   C     C_R   0.116915 0.499616 0.116058 0.524193
C37   C     C_R   0.006232 0.124847 0.619363 0.564139
C38   C     C_R   0.118763 0.113531 0.494601 0.530753
C39   C     C_R   0.999301 0.880392 0.381807 0.543887
C40   C     C_3   0.676513 0.407516 0.655349 -0.066996
C41   C     C_R   0.881216 0.885748 0.503773 0.559660
C42   C     C_R   0.088664 0.294744 0.925857 -0.095961
C43   C     C_R   0.147900 0.268539 0.953262 -0.115205
C44   C     C_R   0.179507 0.239681 0.900535 -0.079254
C45   C     C_R   0.200718 0.280388 0.351700 -0.052721
C46   C     C_R   0.145050 0.227948 0.816394 0.117864
C47   C     C_R   0.070632 0.234894 0.780516 0.035443
C48   C     C_R   0.051417 0.280824 0.840179 0.005478
C49   C     C_R   0.994848 0.310886 0.812576 -0.015117
C50   C     C_R   0.944909 0.281203 0.723194 -0.002148
C51   C     C_R   0.955759 0.226643 0.662834 -0.109834
C52   C     C_3   0.748030 0.406657 0.724446 -0.219697
C53   C     C_R   0.015184 0.199699 0.689156 -0.008960
C54   C     C_R   0.056874 0.811135 0.141996 0.087911
C55   C     C_R   0.109995 0.901543 0.176834 -0.095624
C56   C     C_R   0.117502 0.226245 0.277180 0.124560
C57   C     C_R   0.128400 0.962869 0.256272 -0.134397
C58   C     C_R   0.091294 0.935076 0.300350 -0.100857
C59   C     C_R   0.040301 0.844699 0.269209 -0.003842
C60   C     C_R   0.029130 0.780538 0.193171 0.006553
C61   C     C_R   0.992567 0.690942 0.174744 -0.013859
C62   C     C_R   0.964214 0.669214 0.227758 -0.114973
C63   C     C_R   0.969866 0.731398 0.297282 0.060179
C64   C     C_3   0.779338 0.563341 0.707181 -0.093480
C65   C     C_R   0.003205 0.817967 0.315183 0.030785
C66   C     C_3   0.688565 0.534454 0.779940 0.149217
C67   C     C_R   0.057857 0.151210 0.268193 -0.085097
C68   C     C_3   0.687710 0.502246 0.690271 -0.009998
C69   C     C_2   0.801477 0.654760 0.721077 0.600569
C70   C     C_2   0.872008 0.295512 0.688869 0.589583
C71   C     C_2   0.020218 0.755771 0.047567 0.613829
C72   C     C_R   0.079732 0.131639 0.334799 -0.121131
C73   C     C_R   0.161930 0.188300 0.413874 -0.005863
Cu1   Cu    Cu3+1 0.500370 0.438230 0.438530 1.080142
Cu2   Cu    Cu3+1 0.499630 0.561770 0.561470 1.121590
Cu3   Cu    Cu3+1 0.935490 0.438240 0.997340 1.040949
Cu4   Cu    Cu3+1 0.059110 0.561770 0.997270 1.060473
Cu5   Cu    Cu3+1 0.062130 0.000010 0.562160 1.097503
Cu6   Cu    Cu3+1 0.937870 0.000010 0.437860 1.032046
H1    H     H_    0.685145 0.391260 0.597782 0.172370
H2    H     H_    0.131520 0.515358 0.265302 0.158634
H3    H     H_    0.699345 0.601252 0.412000 0.170131
H4    H     H_    0.660729 0.911979 0.677133 0.171799
H5    H     H_    0.718921 0.357248 0.741146 0.207422
H6    H     H_    0.814020 0.714632 0.419249 0.163039
H7    H     H_    0.070986 0.324117 0.971386 0.149866
H8    H     H_    0.174619 0.277759 0.018359 0.170633
H9    H     H_    0.234749 0.232067 0.927372 0.175594
H10   H     H_    0.913377 0.201113 0.593811 0.188452
H11   H     H_    0.940195 0.603350 0.217613 0.174465
H12   H     H_    0.796167 0.582251 0.909142 0.196403
H13   H     H_    0.133176 0.925346 0.139791 0.173114
H14   H     H_    0.785210 0.387748 0.696420 0.223162
H15   H     H_    0.168329 0.032497 0.281808 0.145255
H16   H     H_    0.105367 0.985079 0.360831 0.114760
H17   H     H_    0.778762 0.531025 0.645661 0.139192
H18   H     H_    0.719415 0.469530 0.853017 0.166222
H19   H     H_    0.774571 0.726559 0.669383 0.344682
H20   H     H_    0.814912 0.244809 0.746642 0.342453
H21   H     H_    0.040041 0.729603 0.945784 0.357401
H22   H     H_    0.891456 0.631503 0.840960 0.217843
H23   H     H_    0.402442 0.321058 0.603791 0.183064
H24   H     H_    0.246530 0.336683 0.355402 0.139854
H25   H     H_    0.994485 0.106954 0.208692 0.156107
H26   H     H_    0.032761 0.069013 0.320212 0.152745
H27   H     H_    0.334314 0.473399 0.036673 0.164778
H28   H     H_    0.229160 0.505793 0.057683 0.166913
I1    I     I_    0.082665 0.254792 0.175624 -0.326149
I2    I     I_    0.233150 0.244758 0.770895 -0.229170
I3    I     I_    0.936802 0.690663 0.378614 -0.309484
I4    I     I_    0.939311 0.547990 0.738301 -0.240151
I5    I     I_    0.721272 0.670293 0.847445 -0.182720
I6    I     I_    0.564594 0.468388 0.768472 -0.245728
I7    I     I_    0.333621 0.177703 0.636475 -0.177301
I8    I     I_    0.228809 0.517099 0.430387 -0.246911
I9    I     I_    0.550582 0.294007 0.596894 -0.264524
I10   I     I_    0.312353 0.294398 0.183682 -0.266265
I11   I     I_    0.435205 0.386429 0.093420 -0.261571
I12   I     I_    0.511806 0.746161 0.502256 -0.250750
I13   I     I_    0.826800 0.087934 0.757602 -0.316953
I14   I     I_    0.770163 0.000060 0.523863 -0.233590
O1    O     O_R   0.410120 0.357660 0.448080 -0.495728
O2    O     O_R   0.946980 0.090140 0.537200 -0.496706
O3    O     O_R   0.142650 0.090190 0.552500 -0.467000
O4    O     O_R   0.409500 0.461990 0.551900 -0.486173
O5    O     O_R   0.037720 0.090180 0.447540 -0.529326
O6    O     O_R   0.053020 0.909880 0.462820 -0.484075
O7    O     O_R   0.948080 0.909870 0.357860 -0.516987
O8    O     O_R   0.962280 0.909830 0.552480 -0.488827
O9    O     O_R   0.857350 0.909830 0.447520 -0.480995
O10   O     O_R   0.590960 0.447820 0.538760 -0.502498
O11   O     O_R   0.590340 0.552160 0.642570 -0.456185
O12   O     O_R   0.049970 0.461970 0.907590 -0.498731
O13   O     O_R   0.590500 0.538010 0.448100 -0.500273
O14   O     O_R   0.589880 0.642340 0.551920 -0.478055
O15   O     O_R   0.409660 0.447840 0.357430 -0.504432
O16   O     O_R   0.409040 0.552180 0.461240 -0.471264
O17   O     O_R   0.945580 0.357650 0.907650 -0.506864
O18   O     O_2   0.864454 0.721341 0.789010 -0.469341
O19   O     O_R   0.752760 0.662842 0.653163 -0.679500
O20   O     O_2   0.865010 0.321828 0.637237 -0.446256
O21   O     O_R   0.807038 0.272724 0.709282 -0.676555
O22   O     O_2   0.943346 0.699281 0.000798 -0.551036
O23   O     O_R   0.854450 0.447860 0.906670 -0.508251
O24   O     O_R   0.072622 0.770846 0.011450 -0.673144
O25   O     O_R   0.958850 0.552170 0.906610 -0.473036
O26   O     O_R   0.944630 0.538040 0.087020 -0.514120
O27   O     O_R   0.049030 0.642360 0.086960 -0.489829
O28   O     O_R   0.035750 0.447840 0.088000 -0.498119
O29   O     O_R   0.140150 0.552150 0.087940 -0.520700
O30   O     O_R   0.051920 0.090140 0.642160 -0.488961

loop_
_geom_bond_atom_site_label_1
_geom_bond_atom_site_label_2
_ccdc_geom_bond_type
C25   C31   A    
C66   C68   S    
Cu6   O7    S    
C63   C65   A    
C69   O18   D    
C66   I6    S    
C27   C29   A    
H20   O21   S    
C58   H16   S    
C16   O13   A    
C34   C66   S    
C5    H23   S    
C7    C73   A    
C54   C60   A    
C22   I13   S    
C12   C23   S    
C26   C27   A    
C29   C30   A    
C64   C68   S    
C21   C22   A    
Cu5   O8    S    
C1    O4    A    
C18   C19   A    
C19   C36   S    
C32   O12   A    
C41   O9    A    
Cu2   O14   S    
C36   O28   A    
C23   H22   S    
C62   H11   S    
C34   H18   S    
C67   C72   A    
C46   C47   A    
C52   H5    S    
C34   H12   S    
C6    I7    S    
C45   H24   S    
C12   C52   S    
C37   O2    A    
C56   I1    S    
C54   C71   S    
C21   H4    S    
C45   C56   A    
C8    C9    A    
Cu1   O15   S    
C8    I10   S    
C33   O25   A    
C40   H1    S    
C42   H7    S    
Cu5   O3    S    
C9    C10   A    
C47   C53   A    
C37   C53   S    
C69   O19   S    
C59   C60   A    
C2    C45   A    
C13   C14   A    
C9    I11   S    
C39   C65   S    
Cu4   O12   S    
C37   O30   A    
Cu5   O6    S    
C38   O5    A    
C44   C46   A    
Cu5   O30   S    
C50   C51   A    
C4    O10   A    
C33   O23   A    
C66   I5    S    
C70   O21   S    
C39   O6    A    
Cu1   Cu2   S    
C13   C19   A    
Cu3   Cu4   S    
C64   H17   S    
C4    O11   A    
Cu2   O16   S    
C4    C68   S    
Cu5   Cu6   S    
C72   C73   A    
C42   C48   A    
C58   C59   A    
C40   C52   S    
Cu6   O9    S    
Cu6   O2    S    
H19   O19   S    
C60   C61   A    
C1    C3    S    
C43   C44   A    
C32   O17   A    
C62   C63   A    
C47   C48   A    
H21   O24   S    
C20   C21   A    
C17   C18   A    
C52   H14   S    
C35   C61   S    
C35   O26   A    
C64   C69   S    
C24   C25   A    
C30   H6    S    
Cu4   O27   S    
C2    C73   A    
Cu3   O23   S    
C23   C64   S    
Cu1   O1    S    
C55   H13   S    
C18   H2    S    
C55   C57   A    
C11   H28   S    
C22   C24   A    
C10   H27   S    
C42   C43   A    
C12   C34   S    
Cu2   O11   S    
C17   I8    S    
C71   O22   D    
C15   C17   A    
C54   C55   A    
C48   C49   A    
C70   O20   D    
C8    C14   A    
C39   O7    A    
C31   C41   S    
C71   O24   S    
C28   O15   A    
Cu6   O5    S    
C28   O16   A    
C67   H25   S    
C3    C5    A    
Cu4   O29   S    
C40   I9    S    
Cu3   O26   S    
C6    C7    A    
Cu3   O17   S    
C56   C67   A    
C23   I4    S    
C57   H15   S    
C43   H8    S    
C63   I3    S    
C2    C3    A    
C25   C26   A    
C29   H3    S    
C44   H9    S    
C59   C65   A    
C41   O8    A    
C11   C13   A    
C30   C31   A    
C36   O29   A    
C57   C58   A    
C5    C6    A    
C20   C26   A    
Cu3   O28   S    
C16   C27   S    
Cu1   O13   S    
C24   I14   S    
C7    C38   S    
C35   O27   A    
C50   C70   S    
C61   C62   A    
C38   O3    A    
C32   C49   S    
C10   C11   A    
C51   C53   A    
C15   C28   S    
C72   H26   S    
C49   C50   A    
C40   C68   S    
C46   I2    S    
C14   C15   A    
Cu2   O4    S    
C12   C33   S    
Cu1   O10   S    
C16   O14   A    
Cu4   O25   S    
C20   I12   S    
C51   H10   S    
C1    O1    A    
