data_mof_unit_38923.cif
_audit_creation_date              2012-12-10T18:34:28-0500
_audit_creation_method            fapswitch 2.2
_symmetry_space_group_name_H-M    P1
_symmetry_Int_Tables_number       1
_space_group_crystal_system       triclinic
_cell_length_a                    14.974862
_cell_length_b                    15.442125
_cell_length_c                    15.726767
_cell_angle_alpha                 89.520541
_cell_angle_beta                  104.819302
_cell_angle_gamma                 82.445958
_cell_volume                      3481.88914186

loop_
_atom_site_label
_atom_site_type_symbol
_atom_type_description
_atom_site_fract_x
_atom_site_fract_y
_atom_site_fract_z
_atom_type_partial_charge
C1    C     C_R   0.441996 0.662307 0.490174 0.862806
C2    C     C_R   0.558481 0.100650 0.567248 0.090588
C3    C     C_R   0.359084 0.926570 0.541648 0.177927
C4    C     C_R   0.654609 0.068206 0.582902 0.176796
C5    C     C_R   0.522218 0.952127 0.568508 0.069682
C6    C     C_R   0.492975 0.042730 0.568679 0.066898
C7    C     C_R   0.399012 0.072032 0.567844 -0.229660
C8    C     C_R   0.618922 0.921165 0.589469 -0.229143
C9    C     C_R   0.333594 0.014067 0.556554 -0.235299
C10   C     C_R   0.684203 0.978830 0.598357 -0.238287
C11   C     C_R   0.846358 0.629555 0.637873 -0.272316
C12   C     C_R   0.558237 0.337680 0.514808 0.865274
C13   C     C_R   0.157460 0.361848 0.369836 -0.276764
C14   C     C_R   0.755267 0.611477 0.611571 -0.013208
C15   C     C_R   0.246434 0.385489 0.391326 -0.008176
C16   C     C_R   0.500983 0.500658 0.662073 0.900679
C17   C     C_R   0.498742 0.499949 0.337799 0.904360
C18   C     C_R   0.793855 0.510679 0.509514 -0.030128
C19   C     C_R   0.206476 0.487207 0.492073 -0.031195
C20   C     C_R   0.888061 0.525392 0.533505 -0.041557
C21   C     C_R   0.115618 0.464018 0.475650 -0.039856
C22   C     C_R   0.914064 0.586300 0.599760 0.075329
C23   C     C_R   0.291444 0.869701 0.520748 -0.203474
C24   C     C_R   0.090871 0.401322 0.411254 0.067560
C25   C     C_R   0.956151 0.482236 0.493855 0.017508
C26   C     C_R   0.048901 0.502346 0.519373 0.020031
C27   C     C_R   0.073306 0.558052 0.589638 -0.348448
C28   C     C_R   0.934786 0.418511 0.430671 -0.333058
C29   C     C_R   0.006818 0.602809 0.627915 0.479529
C30   C     C_R   0.000147 0.379561 0.388242 0.474777
C31   C     C_3   0.417203 0.553611 0.005958 -0.321984
C32   C     C_3   0.577355 0.456159 0.992319 -0.326055
C33   C     C_3   0.494671 0.585803 0.970725 0.596190
C34   C     C_R   0.719412 0.125370 0.580113 -0.204890
C35   C     C_3   0.499965 0.423923 0.027377 0.600989
C36   C     C_1   0.502421 0.502993 0.751329 -0.182264
C37   C     C_1   0.495643 0.501161 0.247999 -0.185982
C38   C     C_3   0.422199 0.470728 0.951025 -0.316014
C39   C     C_3   0.572420 0.538980 0.047164 -0.324103
C40   C     C_3   0.499588 0.504576 0.916802 0.075490
C41   C     C_3   0.495105 0.505060 0.081504 0.071938
C42   C     C_1   0.501783 0.504395 0.826462 -0.002560
C43   C     C_1   0.494439 0.502900 0.172337 -0.002842
C44   C     C_R   0.409118 0.754005 0.500785 -0.052922
C45   C     C_R   0.316592 0.783281 0.501277 -0.206986
C46   C     C_R   0.593549 0.245310 0.537061 -0.058316
C47   C     C_3   0.481978 0.734671 0.995037 0.069435
C48   C     C_3   0.387849 0.791936 0.960110 -0.345380
C49   C     C_3   0.373255 0.864532 0.022405 -0.956957
C50   C     C_3   0.506122 0.275839 0.000009 0.059450
C51   C     C_3   0.416667 0.233566 0.980555 -0.329051
C52   C     C_3   0.418573 0.161712 0.914726 -0.958469
C53   C     C_3   0.096788 0.711743 0.688892 0.076295
C54   C     C_3   0.191650 0.682746 0.754480 -0.342643
C55   C     C_3   0.268551 0.727334 0.732456 -0.955805
C56   C     C_R   0.688999 0.213762 0.557404 -0.195267
C57   C     C_3   0.902364 0.346521 0.255982 0.068340
C58   C     C_3   0.822637 0.292316 0.250269 -0.344103
C59   C     C_3   0.738913 0.324823 0.173649 -0.931842
C60   C     C_R   0.475716 0.810949 0.520969 -0.259850
C61   C     C_R   0.529587 0.188925 0.542854 -0.264590
C62   C     C_R   0.453487 0.895725 0.545815 0.093462
H1    H     H_    0.230164 0.537582 0.535630 0.125862
H2    H     H_    0.641299 0.415535 0.984278 0.155829
H3    H     H_    0.632224 0.568155 0.087869 0.153662
H4    H     H_    0.362316 0.441966 0.909950 0.154833
H5    H     H_    0.262103 0.038590 0.555597 0.149286
H6    H     H_    0.757643 0.953028 0.612927 0.145008
H7    H     H_    0.456389 0.214203 0.524317 0.163683
H8    H     H_    0.545094 0.788725 0.514984 0.160227
H9    H     H_    0.739731 0.256949 0.554686 0.159087
H10   H     H_    0.264212 0.739557 0.487331 0.152438
H11   H     H_    0.219347 0.892122 0.519204 0.134227
H12   H     H_    0.767054 0.466244 0.460280 0.127950
H13   H     H_    0.793176 0.101329 0.593381 0.136520
H14   H     H_    0.374851 0.139265 0.577703 0.150902
H15   H     H_    0.645810 0.852477 0.600747 0.145804
H16   H     H_    0.538393 0.776050 0.000704 0.166160
H17   H     H_    0.487726 0.708620 0.062993 0.124524
H18   H     H_    0.384563 0.821865 0.894664 0.236884
H19   H     H_    0.330821 0.750922 0.952042 0.218591
H20   H     H_    0.374347 0.836167 0.087871 0.265298
H21   H     H_    0.304573 0.904924 0.994946 0.266604
H22   H     H_    0.428704 0.907313 0.030266 0.265725
H23   H     H_    0.298370 0.355101 0.360063 0.142486
H24   H     H_    0.566439 0.224863 0.028194 0.161940
H25   H     H_    0.516583 0.301050 0.936978 0.126754
H26   H     H_    0.408359 0.204979 0.042727 0.233561
H27   H     H_    0.355723 0.284180 0.953255 0.216864
H28   H     H_    0.424835 0.189206 0.851328 0.266325
H29   H     H_    0.352905 0.132254 0.902313 0.267263
H30   H     H_    0.478211 0.109600 0.941265 0.264602
H31   H     H_    0.070665 0.778826 0.704577 0.152514
H32   H     H_    0.103663 0.717728 0.620149 0.123113
H33   H     H_    0.186906 0.699015 0.822048 0.217450
H34   H     H_    0.703123 0.643389 0.641772 0.139065
H35   H     H_    0.211027 0.610843 0.754366 0.228888
H36   H     H_    0.275775 0.710152 0.665869 0.266210
H37   H     H_    0.335959 0.704704 0.780980 0.294956
H38   H     H_    0.252550 0.799450 0.734751 0.261218
H39   H     H_    0.926994 0.338060 0.195260 0.159194
H40   H     H_    0.875857 0.417545 0.256758 0.124562
H41   H     H_    0.847454 0.222752 0.241393 0.230850
H42   H     H_    0.800243 0.295886 0.312380 0.218537
H43   H     H_    0.711435 0.393688 0.182256 0.272629
H44   H     H_    0.682864 0.283783 0.171308 0.287410
H45   H     H_    0.863365 0.676582 0.688167 0.188027
H46   H     H_    0.758980 0.320358 0.110393 0.252217
H47   H     H_    0.141210 0.313330 0.320967 0.187366
H48   H     H_    0.144790 0.565622 0.618123 0.151269
H49   H     H_    0.868103 0.395652 0.413490 0.147031
H50   H     H_    0.353061 0.594007 0.013842 0.155077
N1    N     N_R   0.731710 0.552730 0.549140 -0.098934
N2    N     N_R   0.268290 0.447270 0.450860 -0.100021
O1    O     O_R   0.383110 0.605620 0.475230 -0.620030
O2    O     O_3   0.502777 0.339492 0.063754 -0.649616
O3    O     O_3   0.031738 0.656010 0.699156 -0.655383
O4    O     O_3   0.977985 0.314788 0.328706 -0.653381
O5    O     O_R   0.616890 0.394380 0.524770 -0.618859
O6    O     O_R   0.531900 0.639510 0.506760 -0.621812
O7    O     O_R   0.468100 0.360490 0.493240 -0.622095
O8    O     O_R   0.425620 0.483070 0.607460 -0.616756
O9    O     O_R   0.574380 0.516930 0.392540 -0.616876
O10   O     O_R   0.574400 0.516960 0.638990 -0.609525
O11   O     O_R   0.425600 0.483040 0.361010 -0.608872
O12   O     O_3   0.493318 0.669848 0.934174 -0.651224
Zn1   Zn    Zn3+2 0.400660 0.477370 0.478940 0.941648
Zn2   Zn    Zn3+2 0.599340 0.522630 0.521060 0.943370

loop_
_geom_bond_atom_site_label_1
_geom_bond_atom_site_label_2
_ccdc_geom_bond_type
C21   C26   A    
C34   C56   A    
C23   C45   A    
C22   C29   A    
C27   C29   A    
C39   H3    S    
C36   C42   T    
C47   H17   S    
C17   O11   A    
O9    Zn2   S    
C39   C41   S    
N1    Zn2   S    
C53   C54   S    
C25   C28   A    
C57   H40   S    
C26   C27   A    
C59   H43   S    
C49   H22   S    
C19   C21   A    
O7    Zn1   S    
C5    C6    A    
C11   C14   A    
C53   O3    S    
C20   C25   A    
O1    Zn1   S    
C48   H19   S    
C60   C62   A    
C32   C39   S    
O8    Zn1   S    
C3    C23   A    
C16   O8    A    
C13   H47   S    
C52   H28   S    
C17   O9    A    
C12   O7    A    
C38   H4    S    
C27   H48   S    
C19   H1    S    
C55   H38   S    
C31   H50   S    
C31   C33   S    
C54   H35   S    
C50   O2    S    
C2    C61   A    
C34   H13   S    
O10   Zn2   S    
O5    Zn2   S    
C40   C42   S    
C18   H12   S    
C45   H10   S    
C41   C43   S    
C2    C6    A    
C23   H11   S    
C18   N1    A    
C14   H34   S    
C28   H49   S    
C4    C34   A    
C59   H44   S    
C46   C61   A    
C53   H31   S    
C51   C52   S    
C33   C40   S    
C32   C35   S    
C35   C38   S    
C32   H2    S    
C12   C46   S    
C17   C37   S    
C30   O4    S    
C19   N2    A    
C25   C26   A    
C29   O3    S    
C13   C24   A    
C1    O6    A    
C49   H20   S    
C37   C43   T    
C2    C4    A    
C9    H5    S    
C3    C9    A    
C12   O5    A    
C1    C44   S    
C47   C48   S    
C60   H8    S    
C56   H9    S    
C50   C51   S    
C15   N2    A    
C35   O2    S    
C33   C39   S    
C54   H33   S    
C7    H14   S    
C50   H25   S    
C48   C49   S    
C20   C22   A    
C13   C15   A    
C11   H45   S    
C8    H15   S    
C52   H30   S    
C58   H42   S    
C46   C56   A    
C44   C45   A    
C47   O12   S    
C3    C62   A    
C61   H7    S    
C7    C9    A    
C54   C55   S    
C31   C41   S    
C53   H32   S    
C51   H26   S    
C5    C8    A    
O6    Zn2   S    
C6    C7    A    
C10   H6    S    
C14   N1    A    
C57   H39   S    
C11   C22   A    
C59   H46   S    
C31   C38   S    
C15   H23   S    
C49   H21   S    
C28   C30   A    
C58   C59   S    
C16   C36   S    
C38   C40   S    
N2    Zn1   S    
C48   H18   S    
C57   C58   S    
C44   C60   A    
C55   H36   S    
C33   O12   S    
C5    C62   A    
C18   C20   A    
C32   C40   S    
C16   O10   A    
C35   C41   S    
C24   C30   A    
C50   H24   S    
C8    C10   A    
C21   C24   A    
C55   H37   S    
O11   Zn1   S    
C52   H29   S    
C58   H41   S    
C1    O1    A    
C47   H16   S    
C4    C10   A    
C51   H27   S    
C57   O4    S    
