data_mof_unit_56346.cif
_audit_creation_date              2012-12-10T17:55:06-0500
_audit_creation_method            fapswitch 2.2
_symmetry_space_group_name_H-M    P1
_symmetry_Int_Tables_number       1
_space_group_crystal_system       triclinic
_cell_length_a                    8.806816
_cell_length_b                    10.855645
_cell_length_c                    9.703223
_cell_angle_alpha                 92.818545
_cell_angle_beta                  98.594829
_cell_angle_gamma                 91.477678
_cell_volume                      915.620468266

loop_
_atom_site_label
_atom_site_type_symbol
_atom_type_description
_atom_site_fract_x
_atom_site_fract_y
_atom_site_fract_z
_atom_type_partial_charge
C1    C     C_R   0.491984 0.262914 0.495968 0.800250
C2    C     C_R   0.501012 0.737396 0.503312 0.800820
C3    C     C_R   0.204233 0.499337 0.463791 0.851520
C4    C     C_R   0.795804 0.503701 0.536309 0.867820
C5    C     C_2   0.037850 0.495406 0.444992 -0.306949
C6    C     C_2   0.962319 0.512185 0.554947 -0.361130
C7    C     C_R   0.349392 0.060019 0.491645 0.119091
C8    C     C_R   0.633671 0.943564 0.527164 0.093242
C9    C     C_R   0.351955 0.929416 0.491310 0.115832
C10   C     C_R   0.629274 0.069017 0.498718 0.129613
C11   C     C_R   0.495452 0.872220 0.509203 -0.089810
C12   C     C_R   0.488565 0.128172 0.489802 -0.072333
C13   C     C_R   0.404550 0.421897 0.056353 0.046565
C14   C     C_R   0.608157 0.567056 0.945864 0.014165
C15   C     C_R   0.401085 0.424198 0.908710 0.041876
C16   C     C_R   0.598621 0.576173 0.091516 0.042452
Cu1   Cu    Cu3+1 0.500000 0.500020 0.640660 0.994176
Cu2   Cu    Cu3+1 0.500000 0.499980 0.359340 1.002351
H1    H     H_    0.977259 0.474475 0.340274 0.242143
H2    H     H_    0.023015 0.531729 0.659902 0.218520
N1    N     N_R   0.500040 0.500030 0.852080 -0.251461
N2    N     N_R   0.499960 0.499970 0.147920 -0.256784
O1    O     O_R   0.499990 0.319660 0.618740 -0.574981
O2    O     O_R   0.500010 0.680340 0.381260 -0.572424
O3    O     O_R   0.499990 0.319630 0.381170 -0.577515
O4    O     O_R   0.500010 0.680370 0.618830 -0.552679
O5    O     O_R   0.274840 0.500010 0.591370 -0.572870
O6    O     O_R   0.725160 0.499990 0.408630 -0.561384
O7    O     O_R   0.274830 0.499980 0.353800 -0.568705
O8    O     O_R   0.725170 0.500020 0.646200 -0.558597
C17   C     C_3   0.200339 0.126992 0.494346 -0.472714
C18   C     C_3   0.130941 0.161877 0.350145 -0.810727
H3    H     H_    0.021377 0.208800 0.352067 0.253809
H4    H     H_    0.210242 0.229956 0.317731 0.286701
H5    H     H_    0.112340 0.079822 0.275980 0.253907
H6    H     H_    0.220396 0.213059 0.560679 0.236510
H7    H     H_    0.116059 0.071954 0.540567 0.220539
C19   C     C_3   0.778325 0.895406 0.607921 -0.399493
C20   C     C_3   0.787083 0.936626 0.762761 -0.663259
H8    H     H_    0.683957 0.902319 0.804160 0.285507
H9    H     H_    0.892815 0.902269 0.823924 0.241633
H10   H     H_    0.787098 0.037888 0.779817 0.240866
H11   H     H_    0.781437 0.793581 0.596178 0.218219
H12   H     H_    0.882298 0.929112 0.568824 0.195580
C21   C     C_3   0.204408 0.850517 0.479940 -0.410413
C22   C     C_3   0.168251 0.821479 0.624484 -0.836598
H13   H     H_    0.062161 0.762518 0.613198 0.239916
H14   H     H_    0.262208 0.771098 0.683594 0.284028
H15   H     H_    0.151243 0.907441 0.686207 0.243795
H16   H     H_    0.105401 0.895127 0.420278 0.202210
H17   H     H_    0.213552 0.762948 0.418322 0.208256
C23   C     C_3   0.772936 0.138159 0.471188 -0.435074
C24   C     C_3   0.862501 0.204688 0.601903 -0.768521
H18   H     H_    0.942683 0.273645 0.570186 0.264065
H19   H     H_    0.785373 0.251819 0.666352 0.280404
H20   H     H_    0.934679 0.140808 0.666007 0.245091
H21   H     H_    0.847532 0.073997 0.422264 0.209314
H22   H     H_    0.742804 0.206314 0.390873 0.228148
C25   C     C_2   0.310176 0.326761 0.107423 0.874059
O9    O     O_2   0.174666 0.344840 0.112614 -0.584291
O10   O     O_R   0.369322 0.208988 0.122478 -0.735093
H23   H     H_    0.287069 0.142277 0.123089 0.327342
C26   C     C_2   0.749706 0.615695 0.902751 0.879491
O11   O     O_2   0.743243 0.690334 0.813624 -0.615962
O12   O     O_R   0.892205 0.576271 0.965729 -0.716622
H24   H     H_    0.981379 0.616128 0.927349 0.331959
C27   C     C_2   0.303748 0.329286 0.821566 0.887794
O13   O     O_2   0.172018 0.351657 0.773139 -0.625199
O14   O     O_R   0.354289 0.208227 0.817936 -0.743301
H25   H     H_    0.268500 0.145344 0.783037 0.313465
C28   C     C_2   0.688081 0.677227 0.177207 0.898604
O15   O     O_2   0.635163 0.780200 0.180271 -0.604433
O16   O     O_R   0.837429 0.658974 0.242220 -0.743545
H26   H     H_    0.887017 0.736196 0.295031 0.311221

loop_
_geom_bond_atom_site_label_1
_geom_bond_atom_site_label_2
_ccdc_geom_bond_type
C26   O12   S    
C9    C21   S    
C13   C25   S    
Cu2   N2    S    
C6    H2    S    
O16   H26   S    
C24   H19   S    
C17   C18   S    
C18   H5    S    
C15   N1    A    
C10   C23   S    
C18   H3    S    
O10   H23   S    
C3    O5    A    
Cu1   Cu2   S    
C15   C27   S    
C25   O9    D    
C2    O4    A    
Cu2   O7    S    
C16   C28   S    
C21   C22   S    
C1    O3    A    
Cu1   O8    S    
C9    C11   A    
C22   H15   S    
Cu1   O1    S    
C1    C12   S    
C8    C19   S    
C21   H16   S    
C8    C11   A    
C5    C6    D    
C2    C11   S    
C10   C12   A    
C14   N1    A    
C4    C6    S    
C4    O6    A    
Cu1   O4    S    
C13   N2    A    
C1    O1    A    
C20   H10   S    
C19   H12   S    
O14   H25   S    
C13   C15   A    
C2    O2    A    
C19   C20   S    
C23   H22   S    
Cu2   O3    S    
C14   C16   A    
C7    C12   A    
C25   O10   S    
C7    C17   S    
C23   H21   S    
C14   C26   S    
C27   O13   D    
Cu1   O5    S    
C22   H14   S    
C7    C9    A    
C28   O15   D    
Cu2   O6    S    
C23   C24   S    
C20   H9    S    
Cu2   O2    S    
C8    C10   A    
O12   H24   S    
C24   H20   S    
C28   O16   S    
C20   H8    S    
C3    O7    A    
C21   H17   S    
C17   H6    S    
C16   N2    A    
C3    C5    S    
C22   H13   S    
C5    H1    S    
C4    O8    A    
C19   H11   S    
C17   H7    S    
C24   H18   S    
C18   H4    S    
C26   O11   D    
C27   O14   S    
Cu1   N1    S    
