data_mof_unit_14596.cif
_audit_creation_date              2012-12-10T17:44:28-0500
_audit_creation_method            fapswitch 2.2
_symmetry_space_group_name_H-M    P1
_symmetry_Int_Tables_number       1
_space_group_crystal_system       triclinic
_cell_length_a                    9.897286
_cell_length_b                    10.720136
_cell_length_c                    15.549846
_cell_angle_alpha                 91.661734
_cell_angle_beta                  67.931644
_cell_angle_gamma                 88.160454
_cell_volume                      1526.67884017

loop_
_atom_site_label
_atom_site_type_symbol
_atom_type_description
_atom_site_fract_x
_atom_site_fract_y
_atom_site_fract_z
_atom_type_partial_charge
C1    C     C_R   0.499485 0.740350 0.495546 0.870733
C2    C     C_R   0.742704 0.514171 0.030829 -0.028223
C3    C     C_R   0.606968 0.461953 0.080699 0.032499
C4    C     C_R   0.408889 0.499806 0.675818 0.840813
C5    C     C_R   0.837794 0.542973 0.075980 -0.292433
C6    C     C_R   0.793085 0.534994 0.172221 0.511267
C7    C     C_R   0.564144 0.453854 0.176821 -0.317847
C8    C     C_R   0.230736 0.902097 0.510220 -0.250164
C9    C     C_R   0.098856 0.972233 0.549056 -0.297942
C10   C     C_R   0.092529 0.087563 0.596243 0.592144
C11   C     C_R   0.222696 0.134394 0.595476 -0.228430
C12   C     C_R   0.434826 0.458531 0.904609 0.132655
C13   C     C_R   0.358432 0.070594 0.545547 0.013325
C14   C     C_R   0.360706 0.946298 0.515851 0.099972
C15   C     C_R   0.494408 0.874519 0.491867 -0.098013
C16   C     C_R   0.496932 0.261217 0.508237 0.873890
C17   C     C_R   0.625249 0.932912 0.476833 -0.210874
C18   C     C_R   0.624967 0.060119 0.486558 -0.240833
C19   C     C_R   0.492624 0.129247 0.519632 -0.086949
C20   C     C_R   0.784208 0.667787 0.621677 -0.179271
C21   C     C_R   0.818529 0.750414 0.680203 -0.250211
C22   C     C_R   0.958273 0.748045 0.680348 -0.133560
C23   C     C_R   0.308470 0.391140 0.950268 0.160278
C24   C     C_R   0.064228 0.662598 0.622707 -0.138382
C25   C     C_R   0.034394 0.580424 0.560707 0.144221
C26   C     C_R   0.889930 0.581676 0.560291 0.193028
C27   C     C_R   0.965274 0.422054 0.442192 -0.139936
C28   C     C_R   0.591659 0.499010 0.324207 0.917718
C29   C     C_R   0.108537 0.422216 0.442114 -0.099151
C30   C     C_R   0.355815 0.482387 0.775546 -0.066765
C31   C     C_R   0.652120 0.495400 0.222806 -0.166765
C32   C     C_R   0.205118 0.373997 0.909421 -0.210933
C33   C     C_R   0.230270 0.417294 0.821217 -0.134140
C34   C     C_R   0.542113 0.471300 0.944159 -0.012366
C35   C     C_R   0.449819 0.510806 0.820416 -0.257930
C36   C     C_3   0.864109 0.154417 0.600900 -0.297057
C37   C     C_3   0.008673 0.514210 0.193927 -0.294175
C38   C     C_3   0.884748 0.729771 0.906239 -0.340093
C39   C     C_R   0.511672 0.430698 0.035120 0.095302
C40   C     C_R   0.386960 0.360255 0.077602 -0.212868
C41   C     C_R   0.288426 0.339603 0.035044 -0.274312
C42   C     C_R   0.679209 0.521834 0.895445 -0.320747
C43   C     C_R   0.777804 0.543948 0.938047 0.537975
H1    H     H_    0.194828 0.284447 0.069401 0.142989
H2    H     H_    0.457046 0.424305 0.218617 0.170269
H3    H     H_    0.986080 0.814983 0.723643 0.151082
H4    H     H_    0.169366 0.665539 0.626544 0.204914
H5    H     H_    0.192456 0.358651 0.394852 0.140000
H6    H     H_    0.108367 0.322487 0.943910 0.146039
H7    H     H_    0.156100 0.394730 0.787182 0.177354
H8    H     H_    0.537619 0.570606 0.785855 0.146099
H9    H     H_    0.365347 0.316157 0.142649 0.140338
H10   H     H_    0.714911 0.544153 0.823394 0.185413
H11   H     H_    0.802648 0.067520 0.615352 0.165648
H12   H     H_    0.942940 0.580327 0.037901 0.196191
H13   H     H_    0.918731 0.166002 0.524773 0.145272
H14   H     H_    0.783523 0.234147 0.629294 0.214261
H15   H     H_    0.941352 0.358423 0.395057 0.133743
H16   H     H_    0.992045 0.411899 0.197997 0.140766
H17   H     H_    0.060195 0.539729 0.243819 0.194986
H18   H     H_    0.085383 0.537275 0.123811 0.174122
H19   H     H_    0.848068 0.756507 0.981470 0.165351
H20   H     H_    0.990103 0.773972 0.871051 0.189659
H21   H     H_    0.804069 0.768196 0.878682 0.169596
H22   H     H_    0.728959 0.880521 0.455381 0.177883
H23   H     H_    0.228656 0.816951 0.472283 0.200027
H24   H     H_    0.002056 0.933749 0.544403 0.163207
H25   H     H_    0.217272 0.223128 0.632042 0.170022
H26   H     H_    0.728579 0.104315 0.466004 0.156844
H27   H     H_    0.674204 0.675638 0.626551 0.203922
H28   H     H_    0.736225 0.817126 0.725413 0.154137
N1    N     N_R   0.856800 0.501200 0.500850 -0.112255
N2    N     N_R   0.142390 0.501280 0.500880 -0.118977
O1    O     O_R   0.385310 0.683220 0.500000 -0.653116
O2    O     O_3   0.875792 0.584556 0.218601 -0.594654
O3    O     O_3   0.907035 0.599191 0.888719 -0.606766
O4    O     O_R   0.614640 0.683250 0.500010 -0.629970
O5    O     O_R   0.319840 0.499980 0.632240 -0.631737
O6    O     O_R   0.549160 0.500000 0.632250 -0.632697
O7    O     O_R   0.385360 0.316750 0.499990 -0.618294
O8    O     O_R   0.614690 0.316780 0.500000 -0.630725
O9    O     O_R   0.450840 0.500000 0.367750 -0.626646
O10   O     O_R   0.680160 0.500020 0.367760 -0.558322
O11   O     O_3   0.963612 0.156274 0.646250 -0.615808
Zn1   Zn    Zn3+2 0.346880 0.499980 0.499990 0.928275
Zn2   Zn    Zn3+2 0.653120 0.500020 0.500010 0.946112

loop_
_geom_bond_atom_site_label_1
_geom_bond_atom_site_label_2
_ccdc_geom_bond_type
C8    H23   S    
C27   C29   A    
C26   N1    A    
C34   C42   A    
C6    O2    S    
C38   O3    S    
C12   C23   A    
C30   C35   A    
C21   H28   S    
C1    O1    A    
C7    H2    S    
C3    C7    A    
C42   H10   S    
C5    C6    A    
C29   N2    A    
C1    O4    A    
C18   C19   A    
C8    C9    A    
C1    C15   S    
C9    C10   A    
O8    Zn2   S    
C18   H26   S    
C6    C31   A    
C37   O2    S    
C3    C39   A    
C13   C14   A    
C28   O10   A    
C20   H27   S    
C38   H21   S    
C7    C31   A    
C13   C19   A    
C29   H5    S    
C28   O9    A    
C34   C39   A    
C24   C25   A    
C4    O6    A    
C36   H14   S    
C39   C40   A    
C25   C26   A    
C40   H9    S    
C16   O7    A    
C9    H24   S    
C4    O5    A    
O7    Zn1   S    
C36   H13   S    
C37   H18   S    
C2    C43   A    
C17   C18   A    
C12   C35   A    
N2    Zn1   S    
C37   H16   S    
O5    Zn1   S    
C40   C41   A    
C22   H3    S    
O4    Zn2   S    
C35   H8    S    
C41   H1    S    
C22   C24   A    
C2    C5    A    
C42   C43   A    
C12   C34   A    
C11   H25   S    
C38   H20   S    
C43   O3    S    
C15   C17   A    
C8    C14   A    
C30   C33   A    
C24   H4    S    
C5    H12   S    
C28   C31   S    
C27   H15   S    
N1    Zn2   S    
O9    Zn1   S    
C17   H22   S    
C23   C41   A    
C23   C32   A    
C2    C3    A    
C33   H7    S    
C32   C33   A    
C11   C13   A    
C20   C26   A    
C36   O11   S    
C16   C19   S    
C10   O11   S    
C16   O8    A    
C25   N2    A    
O1    Zn1   S    
C32   H6    S    
C37   H17   S    
C36   H11   S    
C10   C11   A    
O10   Zn2   S    
C20   C21   A    
C14   C15   A    
C21   C22   A    
O6    Zn2   S    
C4    C30   S    
C27   N1    A    
C38   H19   S    
