data_mof_unit_11391.cif
_audit_creation_date              2012-12-10T19:33:09-0500
_audit_creation_method            fapswitch 2.2
_symmetry_space_group_name_H-M    P1
_symmetry_Int_Tables_number       1
_space_group_crystal_system       triclinic
_cell_length_a                    8.926226
_cell_length_b                    15.922854
_cell_length_c                    17.206783
_cell_angle_alpha                 95.39001
_cell_angle_beta                  92.959178
_cell_angle_gamma                 84.182166
_cell_volume                      2420.07286419

loop_
_atom_site_label
_atom_site_type_symbol
_atom_type_description
_atom_site_fract_x
_atom_site_fract_y
_atom_site_fract_z
_atom_type_partial_charge
C1    C     C_R   0.503798 0.490067 0.349093 0.841119
C2    C     C_R   0.494660 0.509976 0.651441 0.827068
C3    C     C_R   0.421241 0.754408 0.459057 0.552842
C4    C     C_R   0.555039 0.243834 0.548407 0.537527
C5    C     C_R   0.420231 0.844113 0.458039 -0.212493
C6    C     C_R   0.539845 0.155552 0.550572 -0.200127
C7    C     C_R   0.532307 0.887511 0.501435 0.221281
C8    C     C_R   0.449219 0.113189 0.493413 0.223332
C9    C     C_R   0.633912 0.840818 0.550320 -0.207126
C10   C     C_R   0.370857 0.160700 0.436918 -0.183521
C11   C     C_R   0.615729 0.754412 0.559379 -0.004664
C12   C     C_R   0.395902 0.247010 0.433140 0.023567
C13   C     C_R   0.206398 0.521773 0.501172 0.782586
C14   C     C_R   0.793284 0.478510 0.497063 0.860119
C15   C     C_2   0.042552 0.534416 0.497515 -0.259887
C16   C     C_2   0.956872 0.467160 0.498244 -0.326167
C17   C     C_R   0.505186 0.487041 0.263295 -0.173071
C18   C     C_R   0.488950 0.514977 0.738247 -0.211465
C19   C     C_R   0.600916 0.534083 0.225643 -0.165564
C20   C     C_R   0.478984 0.443192 0.780417 -0.178619
C21   C     C_R   0.585785 0.537834 0.144144 0.376233
C22   C     C_R   0.506524 0.449907 0.861776 0.380891
C23   C     C_R   0.473151 0.493871 0.099948 0.157645
C24   C     C_R   0.513959 0.530883 0.903084 0.161982
C25   C     C_R   0.382867 0.443995 0.138241 -0.102821
C26   C     C_R   0.511832 0.603495 0.861943 -0.115193
C27   C     C_R   0.398363 0.442984 0.219183 -0.225282
C28   C     C_R   0.501231 0.594066 0.780279 -0.243303
Cu1   Cu    Cu3+1 0.492520 0.415770 0.496210 1.061602
Cu2   Cu    Cu3+1 0.507480 0.584230 0.503790 1.056163
H1    H     H_    0.322823 0.409646 0.248610 0.215213
H2    H     H_    0.499379 0.649653 0.748931 0.253057
N1    N     N_2   0.448352 0.495727 0.017645 -0.148123
N2    N     N_2   0.531103 0.539164 0.985526 -0.156015
N3    N     N_R   0.518730 0.710760 0.509500 -0.233445
N4    N     N_R   0.481270 0.289240 0.490500 -0.233926
N5    N     N_2   0.547941 0.976744 0.498629 -0.149244
N6    N     N_2   0.427905 0.024684 0.494320 -0.138784
O1    O     O_R   0.493000 0.421040 0.382520 -0.576000
O2    O     O_R   0.507000 0.578960 0.617480 -0.589417
O3    O     O_R   0.505640 0.563310 0.388930 -0.582446
O4    O     O_R   0.494360 0.436690 0.611070 -0.520363
O5    O     O_R   0.269980 0.445280 0.497530 -0.541243
O6    O     O_R   0.730020 0.554720 0.502470 -0.519619
O7    O     O_R   0.282610 0.587550 0.503940 -0.516988
O8    O     O_R   0.717390 0.412450 0.496060 -0.593901
C29   C     C_2   0.981882 0.624439 0.489633 0.990934
O9    O     O_2   0.899315 0.643188 0.433885 -0.580293
O10   O     O_R   0.029830 0.688502 0.543649 -0.708246
H3    H     H_    0.987099 0.747129 0.530503 0.349229
C30   C     C_2   0.020904 0.379158 0.511296 0.914679
O11   O     O_2   0.990438 0.319918 0.464801 -0.507058
O12   O     O_R   0.103334 0.362409 0.580053 -0.700627
H4    H     H_    0.106553 0.415368 0.617412 0.305606
C31   C     C_2   0.431080 0.361833 0.743247 1.015135
O13   O     O_2   0.321678 0.361949 0.697885 -0.573200
O14   O     O_R   0.503733 0.284835 0.763954 -0.741377
H5    H     H_    0.454228 0.234409 0.737912 0.357292
C32   C     C_2   0.720067 0.578241 0.270163 0.890819
O15   O     O_2   0.808224 0.539429 0.313790 -0.582035
O16   O     O_R   0.734648 0.663050 0.259860 -0.715564
H6    H     H_    0.821869 0.686120 0.292111 0.352845
O17   O     O_3   0.516376 0.376815 0.900799 -0.535141
C33   C     C_3   0.665008 0.358368 0.932062 0.119529
H7    H     H_    0.668440 0.380281 0.995047 0.156161
H8    H     H_    0.752110 0.388815 0.903203 0.096234
C34   C     C_3   0.706483 0.262526 0.925067 -0.302295
H9    H     H_    0.618259 0.231024 0.951356 0.257269
H10   H     H_    0.712786 0.238521 0.862587 0.251220
C35   C     C_3   0.858386 0.239495 0.966536 -0.895441
H11   H     H_    0.948541 0.270519 0.941464 0.264126
H12   H     H_    0.886812 0.169776 0.959092 0.281210
H13   H     H_    0.853413 0.259812 0.029975 0.260689
O18   O     O_3   0.671974 0.590469 0.109379 -0.529715
C36   C     C_3   0.812178 0.546146 0.089360 0.099807
H14   H     H_    0.798888 0.481474 0.061037 0.107133
H15   H     H_    0.887637 0.540222 0.142343 0.150339
C37   C     C_3   0.885533 0.595905 0.032195 -0.311208
H16   H     H_    0.807375 0.605685 0.980783 0.234697
H17   H     H_    0.907451 0.659103 0.061223 0.246153
C38   C     C_3   0.033240 0.549623 0.003602 -0.855290
H18   H     H_    0.117051 0.544065 0.053054 0.260582
H19   H     H_    0.079235 0.585980 0.959831 0.270772
H20   H     H_    0.014699 0.485451 0.975805 0.260878
C39   C     C_2   0.267995 0.393180 0.095586 0.882532
O19   O     O_2   0.279425 0.369320 0.026305 -0.544476
O20   O     O_R   0.146539 0.371587 0.135341 -0.775670
H21   H     H_    0.075513 0.337618 0.100255 0.333948
C40   C     C_2   0.519924 0.690267 0.902338 0.880364
O21   O     O_2   0.506234 0.703459 0.972903 -0.533665
O22   O     O_R   0.541827 0.757840 0.859115 -0.710447
H22   H     H_    0.545082 0.813480 0.892762 0.353977
O23   O     O_3   0.626454 0.286518 0.611390 -0.589359
C41   C     C_3   0.784981 0.269290 0.609727 0.110718
H23   H     H_    0.830165 0.325559 0.592141 0.184546
H24   H     H_    0.824428 0.215241 0.567258 0.156620
C42   C     C_3   0.853641 0.253891 0.691460 -0.275891
H25   H     H_    0.782530 0.215008 0.721637 0.248934
H26   H     H_    0.966701 0.218192 0.685423 0.229641
C43   C     C_3   0.872342 0.336418 0.742219 -0.805769
H27   H     H_    0.950814 0.374331 0.715962 0.255835
H28   H     H_    0.919861 0.321794 0.800816 0.242946
H29   H     H_    0.762327 0.374545 0.748740 0.259313
O24   O     O_3   0.306453 0.712500 0.419987 -0.567040
C44   C     C_3   0.315183 0.708569 0.337644 0.069291
H30   H     H_    0.430231 0.685710 0.318295 0.171089
H31   H     H_    0.283823 0.770621 0.314725 0.158914
C45   C     C_3   0.200841 0.649852 0.300615 -0.303153
H32   H     H_    0.230746 0.584508 0.317367 0.213489
H33   H     H_    0.088042 0.672033 0.323102 0.251824
C46   C     C_3   0.191291 0.649154 0.211860 -0.869892
H34   H     H_    0.142893 0.711938 0.194267 0.273013
H35   H     H_    0.117356 0.600532 0.187275 0.253163
H36   H     H_    0.304504 0.633927 0.187666 0.270213
C47   C     C_2   0.602647 0.109257 0.617390 0.895298
O25   O     O_2   0.737946 0.088611 0.623904 -0.587515
O26   O     O_R   0.504912 0.082980 0.669106 -0.735636
H37   H     H_    0.560262 0.049748 0.711087 0.352385
C48   C     C_2   0.303516 0.890812 0.410674 0.897974
O27   O     O_2   0.170618 0.891681 0.425094 -0.517863
O28   O     O_R   0.345511 0.929106 0.346377 -0.735836
H38   H     H_    0.255337 0.950831 0.313210 0.347752
C49   C     C_2   0.760849 0.883247 0.590838 0.910806
O29   O     O_2   0.847472 0.915381 0.552315 -0.506560
O30   O     O_R   0.780170 0.888374 0.672176 -0.706591
H39   H     H_    0.870121 0.919511 0.692043 0.355494
C50   C     C_2   0.253720 0.121322 0.385476 0.933466
O31   O     O_2   0.256926 0.120298 0.314446 -0.548357
O32   O     O_R   0.138200 0.086064 0.419145 -0.688789
H40   H     H_    0.062781 0.062728 0.378774 0.352108
C51   C     C_2   0.682490 0.717732 0.630736 0.935954
O33   O     O_2   0.644621 0.751354 0.694404 -0.534861
O34   O     O_R   0.788857 0.647328 0.627065 -0.748568
H41   H     H_    0.824044 0.629483 0.680570 0.320947
C52   C     C_2   0.331985 0.288531 0.364346 0.950287
O35   O     O_2   0.389734 0.269445 0.301413 -0.557035
O36   O     O_R   0.201060 0.344008 0.369391 -0.727975
H42   H     H_    0.155268 0.358569 0.316711 0.338854

loop_
_geom_bond_atom_site_label_1
_geom_bond_atom_site_label_2
_ccdc_geom_bond_type
C3    O24   S    
C31   O13   D    
C4    N4    A    
O23   C41   S    
Cu1   O4    S    
C2    C18   S    
Cu2   O7    S    
C46   H34   S    
C16   C30   S    
C15   C29   S    
O20   H21   S    
C38   H20   S    
C42   H25   S    
C49   O29   D    
C14   O8    A    
O12   H4    S    
C26   C40   S    
C44   H31   S    
Cu1   N4    S    
N5    N6    D    
Cu2   N3    S    
C5    C48   S    
C4    O23   S    
C19   C21   A    
C24   C26   A    
C37   H17   S    
C49   O30   S    
C15   C16   D    
C45   H32   S    
C52   O36   S    
C38   H19   S    
C22   O17   S    
C47   O26   S    
C12   C52   S    
Cu2   O3    S    
C35   H11   S    
C12   N4    A    
C52   O35   D    
C18   C20   A    
C39   O20   S    
C32   O15   D    
Cu1   O5    S    
Cu2   O6    S    
C41   H23   S    
C8    N6    S    
C20   C31   S    
C43   H28   S    
O24   C44   S    
C42   H26   S    
C38   H18   S    
C48   O28   S    
C44   C45   S    
C32   O16   S    
O18   C36   S    
C27   H1    S    
C34   H9    S    
C17   C27   A    
C33   C34   S    
C28   H2    S    
C18   C28   A    
C29   O10   S    
O22   H22   S    
C5    C7    A    
C37   H16   S    
C17   C19   A    
C6    C8    A    
C41   C42   S    
C23   N1    S    
C39   O19   D    
C21   O18   S    
C43   H29   S    
C24   N2    S    
C30   O11   D    
C34   H10   S    
C33   H8    S    
C36   H14   S    
C50   O32   S    
Cu1   Cu2   S    
C9    C11   A    
C29   O9    D    
C13   C15   S    
C3    N3    A    
Cu1   O1    S    
C35   H13   S    
C25   C39   S    
N1    N2    D    
C7    N5    S    
Cu2   O2    S    
C46   H35   S    
C41   H24   S    
C36   H15   S    
O28   H38   S    
C10   C12   A    
C1    O3    A    
C20   C22   A    
C21   C23   A    
O30   H39   S    
C14   C16   S    
C4    C6    A    
C40   O22   S    
C10   C50   S    
C3    C5    A    
C13   O5    A    
C42   C43   S    
C14   O6    A    
O32   H40   S    
C44   H30   S    
C7    C9    A    
C1    C17   S    
C47   O25   D    
C51   O34   S    
C51   O33   D    
C11   C51   S    
C48   O27   D    
C25   C27   A    
O36   H42   S    
C26   C28   A    
C45   C46   S    
Cu1   O8    S    
C34   C35   S    
C19   C32   S    
C33   H7    S    
C31   O14   S    
O26   H37   S    
C13   O7    A    
C37   C38   S    
O14   H5    S    
O34   H41   S    
C2    O4    A    
C11   N3    A    
C43   H27   S    
C9    C49   S    
C45   H33   S    
C46   H36   S    
C22   C24   A    
C23   C25   A    
O16   H6    S    
C36   C37   S    
C6    C47   S    
C1    O1    A    
O17   C33   S    
C2    O2    A    
C8    C10   A    
O10   H3    S    
C35   H12   S    
C30   O12   S    
C40   O21   D    
C50   O31   D    
