data_mof_unit_60941.cif
_audit_creation_date              2012-12-10T18:30:46-0500
_audit_creation_method            fapswitch 2.2
_symmetry_space_group_name_H-M    P1
_symmetry_Int_Tables_number       1
_space_group_crystal_system       triclinic
_cell_length_a                    18.229273
_cell_length_b                    18.231516
_cell_length_c                    42.889858
_cell_angle_alpha                 89.99988
_cell_angle_beta                  90.000214
_cell_angle_gamma                 89.991861
_cell_volume                      14254.3276035

loop_
_atom_site_label
_atom_site_type_symbol
_atom_type_description
_atom_site_fract_x
_atom_site_fract_y
_atom_site_fract_z
_atom_type_partial_charge
C1    C     C_R   0.999988 0.500000 0.665801 0.510478
C2    C     C_R   0.500172 0.999976 0.131464 -0.049404
C3    C     C_3   0.197624 0.700493 0.750455 -0.001399
C4    C     C_3   0.299716 0.802197 0.750333 -0.008232
C5    C     C_3   0.198160 0.300073 0.249845 -0.008136
C6    C     C_3   0.700272 0.197819 0.750318 -0.012075
C7    C     C_3   0.802427 0.700549 0.249513 -0.003219
C8    C     C_R   0.066370 0.493671 0.884980 -0.104829
C9    C     C_R   0.495048 0.933795 0.114972 -0.103097
C10   C     C_R   0.933952 0.503983 0.885100 -0.093463
C11   C     C_R   0.505554 0.066110 0.114954 -0.100986
C12   C     C_R   0.933737 0.499976 0.114896 -0.096773
C13   C     C_R   0.000068 0.499645 0.131444 -0.050988
C14   C     C_R   0.504478 0.933609 0.885023 -0.103275
C15   C     C_R   0.066498 0.498841 0.114968 -0.095389
C16   C     C_R   0.497179 0.066231 0.885082 -0.098466
C17   C     C_R   0.566049 0.996048 0.385101 -0.093456
C18   C     C_R   0.993234 0.433914 0.614973 -0.100255
C19   C     C_R   0.433628 0.006318 0.384980 -0.104830
C20   C     C_R   0.006199 0.566103 0.614963 -0.102550
C21   C     C_R   0.433501 0.001135 0.614968 -0.095374
C22   C     C_R   0.001451 0.433706 0.385066 -0.098921
C23   C     C_R   0.566262 0.000050 0.614896 -0.096743
C24   C     C_R   0.500547 0.999948 0.868542 -0.050022
C25   C     C_R   0.996945 0.566360 0.385047 -0.103777
C26   C     C_R   0.066889 0.492968 0.917508 0.203786
C27   C     C_R   0.495371 0.933282 0.082442 0.204600
C28   C     C_R   0.933671 0.503367 0.917634 0.206938
C29   C     C_R   0.505792 0.066521 0.082420 0.204720
C30   C     C_R   0.933402 0.499606 0.082359 0.205234
C31   C     C_R   0.504772 0.933160 0.917556 0.204123
C32   C     C_R   0.067039 0.498276 0.082437 0.205431
C33   C     C_R   0.497660 0.066559 0.917617 0.205771
C34   C     C_R   0.566330 0.996668 0.417635 0.206932
C35   C     C_R   0.499894 0.000762 0.368535 -0.047608
C36   C     C_R   0.992995 0.433538 0.582441 0.205147
C37   C     C_R   0.433109 0.007024 0.417508 0.203783
C38   C     C_R   0.005924 0.566504 0.582430 0.204974
C39   C     C_R   0.432959 0.001702 0.582437 0.205445
C40   C     C_R   0.000992 0.433262 0.417599 0.205546
C41   C     C_R   0.566596 0.000424 0.582359 0.205249
C42   C     C_R   0.996713 0.566834 0.417582 0.203915
C43   C     C_R   0.000353 0.497942 0.934142 0.042844
C44   C     C_R   0.500728 0.999874 0.065790 0.042137
C45   C     C_R   0.000276 0.498704 0.065780 0.039577
C46   C     C_R   0.999836 0.500003 0.631472 -0.048585
C47   C     C_R   0.501335 0.999823 0.934140 0.042606
C48   C     C_R   0.499646 0.002072 0.434142 0.042829
C49   C     C_R   0.999324 0.500028 0.565882 0.043574
C50   C     C_R   0.499722 0.001301 0.565780 0.039577
C51   C     C_R   0.998775 0.500055 0.434231 0.041168
C52   C     C_3   0.177174 0.317664 0.832073 0.000018
C53   C     C_3   0.114574 0.298577 0.854039 -0.312645
C54   C     C_3   0.306724 0.834496 0.168767 -0.002988
C55   C     C_3   0.287642 0.901830 0.149495 -0.307207
C56   C     C_3   0.870929 0.721292 0.823559 -0.014275
C57   C     C_R   0.499931 0.000356 0.631444 -0.050975
C58   C     C_3   0.938356 0.760956 0.835807 -0.288951
C59   C     C_3   0.691595 0.167613 0.168560 -0.002183
C60   C     C_3   0.710113 0.100744 0.148900 -0.308874
C61   C     C_3   0.869028 0.279579 0.175953 -0.012601
C62   C     C_3   0.933697 0.237702 0.162430 -0.289744
C63   C     C_3   0.693587 0.834867 0.831187 -0.003214
C64   C     C_3   0.712460 0.902433 0.850346 -0.306196
C65   C     C_3   0.129824 0.720454 0.176231 -0.014310
C66   C     C_3   0.062323 0.759765 0.163839 -0.289930
C67   C     C_3   0.292693 0.145211 0.827397 -0.010206
C68   C     C_R   0.999469 0.500026 0.368549 -0.050838
C69   C     C_3   0.255018 0.082245 0.844203 -0.300908
C70   C     C_3   0.629005 0.778625 0.323543 -0.014255
C71   C     C_3   0.561566 0.738957 0.335775 -0.288915
C72   C     C_3   0.808385 0.332241 0.668531 -0.002054
C73   C     C_3   0.789808 0.399028 0.648830 -0.309134
C74   C     C_3   0.322900 0.182422 0.332071 0.000002
C75   C     C_3   0.385554 0.201473 0.354015 -0.312669
C76   C     C_3   0.193195 0.665715 0.668734 -0.002864
C77   C     C_3   0.212294 0.598470 0.649410 -0.307474
C78   C     C_3   0.370157 0.779582 0.676229 -0.014320
C79   C     C_R   0.499588 0.001656 0.531486 0.399525
C80   C     C_3   0.437641 0.740254 0.663829 -0.289951
C81   C     C_3   0.207541 0.355009 0.327352 -0.010180
C82   C     C_3   0.245344 0.417950 0.344122 -0.300840
C83   C     C_3   0.630880 0.220442 0.675982 -0.012693
C84   C     C_3   0.566182 0.262322 0.662485 -0.289683
C85   C     C_3   0.806268 0.664875 0.331151 -0.003363
C86   C     C_3   0.787374 0.597223 0.350251 -0.305930
C87   C     C_R   0.998855 0.500045 0.468552 0.399659
C88   C     C_R   0.499467 0.002114 0.468382 0.400342
C89   C     C_R   0.499985 0.000125 0.334202 0.508511
C90   C     C_R   0.999134 0.500029 0.531661 0.401213
C91   C     C_R   0.000410 0.498353 0.031486 0.399508
C92   C     C_R   0.501303 0.999731 0.968360 0.401641
C93   C     C_R   0.000532 0.497899 0.968382 0.400332
C94   C     C_R   0.500960 0.999809 0.031469 0.400428
C95   C     C_R   0.141194 0.641346 0.750038 0.607376
C96   C     C_R   0.641141 0.858591 0.250113 0.582530
C97   C     C_R   0.858821 0.358641 0.750046 0.608676
C98   C     C_R   0.358985 0.141518 0.250171 0.608144
C99   C     C_R   0.858848 0.641387 0.249935 0.607369
C100  C     C_R   0.999897 0.500005 0.334206 0.509582
C101  C     C_R   0.358879 0.858565 0.749876 0.582612
C102  C     C_R   0.141654 0.359111 0.250262 0.587226
C103  C     C_R   0.641093 0.141466 0.749855 0.583402
C104  C     C_R   0.641178 0.141360 0.250047 0.608632
C105  C     C_R   0.141011 0.358478 0.750174 0.608106
C106  C     C_R   0.358808 0.858652 0.250040 0.607324
C107  C     C_R   0.858863 0.641412 0.750116 0.582506
C108  C     C_R   0.358344 0.140887 0.750264 0.587308
C109  C     C_R   0.858905 0.358535 0.249855 0.583477
C110  C     C_R   0.641156 0.858617 0.749938 0.607427
C111  C     C_R   0.499993 0.000038 0.665791 0.505976
C112  C     C_R   0.141123 0.641433 0.249877 0.582657
C113  C     C_3   0.168340 0.227478 0.738004 -0.241843
C114  C     C_3   0.229929 0.829068 0.265224 -0.241429
C115  C     C_3   0.825886 0.766748 0.731331 -0.246888
C116  C     C_3   0.770350 0.170664 0.264867 -0.240128
C117  C     C_3   0.826350 0.232758 0.268243 -0.247475
C118  C     C_3   0.769935 0.828906 0.734634 -0.238645
C119  C     C_3   0.173862 0.767005 0.268469 -0.246267
C120  C     C_3   0.229695 0.170503 0.734927 -0.243671
C121  C     C_3   0.674147 0.733287 0.231300 -0.246872
C122  C     C_R   0.500013 0.999998 0.165799 0.510339
C123  C     C_3   0.729641 0.329344 0.764857 -0.240143
C124  C     C_3   0.331637 0.272500 0.237970 -0.241810
C125  C     C_3   0.270096 0.670909 0.765195 -0.241457
C126  C     C_3   0.326155 0.732977 0.768452 -0.246300
C127  C     C_3   0.270270 0.329460 0.234882 -0.243664
C128  C     C_3   0.673651 0.267243 0.768244 -0.247506
C129  C     C_3   0.730101 0.671130 0.234592 -0.238636
C130  C     C_3   0.265019 0.326558 0.727818 0.388362
C131  C     C_3   0.330138 0.731249 0.269841 0.385823
C132  C     C_3   0.728248 0.666594 0.733491 0.393061
C133  C     C_R   0.000015 0.499876 0.834202 0.508527
C134  C     C_3   0.670261 0.268428 0.270168 0.384687
C135  C     C_3   0.728683 0.332976 0.266913 0.387910
C136  C     C_3   0.669726 0.731059 0.730241 0.383312
C137  C     C_3   0.271532 0.666844 0.266708 0.393633
C138  C     C_3   0.329585 0.267931 0.730325 0.385533
C139  C     C_3   0.771782 0.833439 0.233516 0.393073
C140  C     C_3   0.829727 0.231581 0.770174 0.384658
C141  C     C_3   0.234942 0.173405 0.227838 0.388334
C142  C     C_3   0.169892 0.768723 0.769861 0.385799
C143  C     C_3   0.228484 0.833139 0.766720 0.393622
C144  C     C_R   0.500101 0.999992 0.834204 0.509711
C145  C     C_3   0.170371 0.232023 0.230359 0.385591
C146  C     C_3   0.771317 0.167026 0.766909 0.387908
C147  C     C_3   0.830317 0.768985 0.230271 0.383339
C148  C     C_3   0.229624 0.289590 0.783675 0.147832
C149  C     C_3   0.284718 0.775246 0.216267 0.148196
C150  C     C_3   0.782242 0.722274 0.783898 0.143223
C151  C     C_3   0.714560 0.225444 0.216295 0.148036
C152  C     C_3   0.781456 0.278416 0.216052 0.143365
C153  C     C_3   0.715462 0.775428 0.783718 0.148074
C154  C     C_3   0.218054 0.721965 0.216079 0.143307
C155  C     C_R   0.000007 0.499962 0.165791 0.505981
C156  C     C_3   0.283832 0.223698 0.784153 0.144441
C157  C     C_3   0.717713 0.777680 0.283891 0.143261
C158  C     C_3   0.785454 0.274538 0.716295 0.148048
C159  C     C_3   0.270421 0.210454 0.283674 0.147850
C160  C     C_3   0.215236 0.724804 0.716266 0.148207
C161  C     C_3   0.281921 0.778060 0.716075 0.143270
C162  C     C_3   0.216249 0.276375 0.284152 0.144397
C163  C     C_3   0.718535 0.221593 0.716050 0.143317
C164  C     C_3   0.784472 0.724500 0.283716 0.148060
C165  C     C_3   0.200062 0.301947 0.749795 -0.007718
C166  C     C_R   0.000106 0.499245 0.868535 -0.047578
C167  C     C_3   0.302379 0.799504 0.250457 -0.001406
C168  C     C_3   0.799674 0.697746 0.749655 -0.011107
C169  C     C_3   0.697603 0.200509 0.250464 -0.008200
C170  C     C_3   0.799725 0.302184 0.250320 -0.012074
C171  C     C_3   0.697578 0.799457 0.749517 -0.003213
C172  C     C_3   0.200287 0.697800 0.250336 -0.008214
C173  C     C_3   0.301839 0.199925 0.749848 -0.008103
C174  C     C_3   0.700331 0.802260 0.249651 -0.011099
C175  C     C_3   0.802395 0.299493 0.750463 -0.008178
C176  C     C_3   0.299933 0.198048 0.249791 -0.007691
Cl1   Cl    Cl    0.230413 0.336402 0.688519 -0.448549
Cl2   Cl    Cl    0.842977 0.260398 0.810118 -0.449744
Cl3   Cl    Cl    0.269481 0.163540 0.188530 -0.448795
Cl4   Cl    Cl    0.155506 0.740452 0.809807 -0.490258
Cl5   Cl    Cl    0.251933 0.873051 0.803975 -0.470884
Cl6   Cl    Cl    0.138295 0.261922 0.192559 -0.476140
Cl7   Cl    Cl    0.747500 0.127025 0.804115 -0.441804
Cl8   Cl    Cl    0.844773 0.741193 0.190271 -0.489364
Cl9   Cl    Cl    0.295263 0.418361 0.737334 -0.446200
Cl10  Cl    Cl    0.420763 0.702975 0.257543 -0.467795
Cl11  Cl    Cl    0.693163 0.589866 0.755729 -0.461339
Cl12  Cl    Cl    0.344604 0.759476 0.309787 -0.490364
Cl13  Cl    Cl    0.579260 0.296707 0.258396 -0.439136
Cl14  Cl    Cl    0.693084 0.410161 0.245112 -0.460143
Cl15  Cl    Cl    0.579050 0.703013 0.742552 -0.468185
Cl16  Cl    Cl    0.306651 0.589596 0.244806 -0.467382
Cl17  Cl    Cl    0.411297 0.305449 0.748175 -0.482351
Cl18  Cl    Cl    0.806824 0.910147 0.255779 -0.461251
Cl19  Cl    Cl    0.920745 0.203310 0.758421 -0.439113
Cl20  Cl    Cl    0.204726 0.081604 0.237375 -0.446156
Cl21  Cl    Cl    0.079240 0.796999 0.757600 -0.467830
Cl22  Cl    Cl    0.193332 0.910383 0.744826 -0.467388
Cl23  Cl    Cl    0.751232 0.625846 0.696336 -0.443690
Cl24  Cl    Cl    0.088721 0.194520 0.248266 -0.482144
Cl25  Cl    Cl    0.806931 0.089866 0.745097 -0.460184
Cl26  Cl    Cl    0.920962 0.797018 0.242628 -0.468023
Cl27  Cl    Cl    0.151991 0.482651 0.936509 -0.457379
Cl28  Cl    Cl    0.492326 0.847423 0.063585 -0.449132
Cl29  Cl    Cl    0.848679 0.512741 0.936817 -0.445222
Cl30  Cl    Cl    0.509182 0.152315 0.063523 -0.446515
Cl31  Cl    Cl    0.847772 0.503658 0.063342 -0.441143
Cl32  Cl    Cl    0.512456 0.847942 0.936674 -0.452949
Cl33  Cl    Cl    0.152795 0.493668 0.063543 -0.439750
Cl34  Cl    Cl    0.656964 0.239620 0.310110 -0.449683
Cl35  Cl    Cl    0.490507 0.151721 0.936821 -0.449268
Cl36  Cl    Cl    0.651325 0.987326 0.436818 -0.445211
Cl37  Cl    Cl    0.981596 0.348770 0.563300 -0.451733
Cl38  Cl    Cl    0.348004 0.017314 0.436508 -0.457352
Cl39  Cl    Cl    0.017022 0.651285 0.563266 -0.453786
Cl40  Cl    Cl    0.347201 0.006277 0.563543 -0.439693
Cl41  Cl    Cl    0.999884 0.347396 0.436491 -0.445130
Cl42  Cl    Cl    0.652228 0.996407 0.563343 -0.441088
Cl43  Cl    Cl    0.997271 0.652720 0.436458 -0.448344
Cl44  Cl    Cl    0.752509 0.372944 0.304124 -0.442117
Cl45  Cl    Cl    0.655365 0.758923 0.690244 -0.489245
Cl46  Cl    Cl    0.248108 0.626930 0.303965 -0.471227
Cl47  Cl    Cl    0.361547 0.237952 0.692518 -0.476128
Cl48  Cl    Cl    0.748850 0.874227 0.196363 -0.443895
H1    H     H_    0.140494 0.233243 0.715072 0.201795
H2    H     H_    0.738569 0.354789 0.788107 0.201174
H3    H     H_    0.295865 0.192720 0.843605 0.138658
H4    H     H_    0.349095 0.127345 0.821112 0.151610
H5    H     H_    0.251402 0.033847 0.828563 0.224564
H6    H     H_    0.286939 0.067024 0.865290 0.125506
H7    H     H_    0.198862 0.098876 0.851350 0.192668
H8    H     H_    0.613051 0.836014 0.317915 0.142148
H9    H     H_    0.671497 0.778881 0.342162 0.140254
H10   H     H_    0.575894 0.681623 0.342073 0.197175
H11   H     H_    0.540356 0.767546 0.356788 0.130073
H12   H     H_    0.518069 0.738356 0.317652 0.235605
H13   H     H_    0.359468 0.266699 0.215037 0.201788
H14   H     H_    0.791528 0.282059 0.655620 0.140139
H15   H     H_    0.868843 0.331416 0.672179 0.156969
H16   H     H_    0.807124 0.449834 0.661095 0.193086
H17   H     H_    0.818962 0.395805 0.626133 0.127564
H18   H     H_    0.729781 0.401215 0.644483 0.194957
H19   H     H_    0.325517 0.122587 0.327071 0.160236
H20   H     H_    0.270132 0.195134 0.343923 0.137289
H21   H     H_    0.384366 0.260971 0.359563 0.192519
H22   H     H_    0.380054 0.169728 0.375989 0.131419
H23   H     H_    0.438900 0.187657 0.342949 0.187939
H24   H     H_    0.260723 0.646086 0.788535 0.198629
H25   H     H_    0.209873 0.715622 0.655589 0.139932
H26   H     H_    0.132703 0.666295 0.672293 0.156543
H27   H     H_    0.195271 0.547920 0.661938 0.193156
H28   H     H_    0.183203 0.600819 0.626678 0.127327
H29   H     H_    0.272352 0.596556 0.645116 0.195662
H30   H     H_    0.385964 0.836965 0.681926 0.143674
H31   H     H_    0.327503 0.779879 0.657678 0.140162
H32   H     H_    0.423465 0.682936 0.657451 0.196651
H33   H     H_    0.458582 0.769118 0.642837 0.129475
H34   H     H_    0.481288 0.739616 0.681890 0.234721
H35   H     H_    0.334014 0.745964 0.793568 0.201668
H36   H     H_    0.204313 0.307543 0.343581 0.138344
H37   H     H_    0.151161 0.372952 0.321070 0.151719
H38   H     H_    0.249035 0.466299 0.328458 0.224859
H39   H     H_    0.213471 0.433286 0.365207 0.125289
H40   H     H_    0.301476 0.401236 0.351268 0.192568
H41   H     H_    0.612161 0.164121 0.681981 0.145613
H42   H     H_    0.674554 0.217363 0.657903 0.137983
H43   H     H_    0.583808 0.318167 0.655344 0.191113
H44   H     H_    0.544394 0.232867 0.641799 0.132150
H45   H     H_    0.522085 0.267043 0.680224 0.237593
H46   H     H_    0.261656 0.342329 0.209801 0.205626
H47   H     H_    0.789296 0.714496 0.344425 0.139679
H48   H     H_    0.866777 0.665753 0.327654 0.156851
H49   H     H_    0.804643 0.546958 0.337574 0.195766
H50   H     H_    0.816387 0.599278 0.373006 0.125302
H51   H     H_    0.727311 0.595005 0.354502 0.196966
H52   H     H_    0.665755 0.254570 0.793387 0.200858
H53   H     H_    0.739698 0.646443 0.211242 0.202134
H54   H     H_    0.126056 0.207028 0.754589 0.229594
H55   H     H_    0.206627 0.873334 0.250335 0.229452
H56   H     H_    0.880052 0.786093 0.740065 0.222268
H57   H     H_    0.239334 0.853843 0.288570 0.198663
H58   H     H_    0.793469 0.126848 0.249689 0.231284
H59   H     H_    0.880357 0.213661 0.259232 0.220943
H60   H     H_    0.793407 0.873164 0.749475 0.231299
H61   H     H_    0.119845 0.786313 0.259550 0.221455
H62   H     H_    0.212089 0.118556 0.746339 0.221996
H63   H     H_    0.619975 0.713920 0.240018 0.222298
H64   H     H_    0.706519 0.373138 0.749669 0.231287
H65   H     H_    0.373929 0.292986 0.254543 0.229631
H66   H     H_    0.293386 0.626678 0.750285 0.229443
H67   H     H_    0.380173 0.713685 0.759528 0.221411
H68   H     H_    0.833320 0.753466 0.706219 0.201149
H69   H     H_    0.287896 0.381443 0.246258 0.222002
H70   H     H_    0.619634 0.286332 0.759240 0.220896
H71   H     H_    0.706607 0.626829 0.249404 0.231304
H72   H     H_    0.261405 0.339753 0.790223 0.129617
H73   H     H_    0.333396 0.743907 0.207618 0.130746
H74   H     H_    0.765340 0.673197 0.797778 0.127765
H75   H     H_    0.665818 0.257172 0.207974 0.129475
H76   H     H_    0.764439 0.327859 0.202433 0.128216
H77   H     H_    0.666886 0.744044 0.792435 0.130535
H78   H     H_    0.235198 0.672748 0.202339 0.128421
H79   H     H_    0.761411 0.145246 0.288121 0.201212
H80   H     H_    0.335279 0.243748 0.795493 0.130124
H81   H     H_    0.734615 0.826735 0.297785 0.127730
H82   H     H_    0.834193 0.242788 0.707987 0.129549
H83   H     H_    0.238622 0.160314 0.290239 0.129623
H84   H     H_    0.166552 0.756176 0.707643 0.130811
H85   H     H_    0.264785 0.827288 0.702341 0.128448
H86   H     H_    0.164825 0.256382 0.295528 0.130093
H87   H     H_    0.735527 0.172155 0.702422 0.128235
H88   H     H_    0.833038 0.755844 0.292469 0.130463
H89   H     H_    0.117974 0.489227 0.872593 0.177179
H90   H     H_    0.834269 0.245431 0.293386 0.200891
H91   H     H_    0.491057 0.882126 0.127333 0.179896
H92   H     H_    0.882257 0.508763 0.872808 0.186164
H93   H     H_    0.509364 0.117811 0.127300 0.181603
H94   H     H_    0.881861 0.500987 0.127211 0.189532
H95   H     H_    0.507774 0.881887 0.872668 0.180339
H96   H     H_    0.118307 0.498137 0.127337 0.190425
H97   H     H_    0.493694 0.118000 0.872773 0.183087
H98   H     H_    0.617746 0.991283 0.372809 0.186197
H99   H     H_    0.987622 0.382375 0.627317 0.179903
H100  H     H_    0.382022 0.010745 0.372593 0.177219
H101  H     H_    0.760385 0.853655 0.711292 0.202143
H102  H     H_    0.011983 0.617634 0.627298 0.178280
H103  H     H_    0.381692 0.001818 0.627337 0.190424
H104  H     H_    0.002977 0.381883 0.372725 0.184558
H105  H     H_    0.618139 0.999060 0.627211 0.189542
H106  H     H_    0.995564 0.618169 0.372690 0.181923
H107  H     H_    0.174484 0.377487 0.827056 0.160261
H108  H     H_    0.229973 0.305031 0.843915 0.137379
H109  H     H_    0.115833 0.239089 0.859601 0.192557
H110  H     H_    0.120076 0.330358 0.876004 0.131489
H111  H     H_    0.061196 0.312323 0.842985 0.187915
H112  H     H_    0.166004 0.753992 0.293583 0.201691
H113  H     H_    0.290053 0.784648 0.155580 0.139678
H114  H     H_    0.367213 0.833901 0.172332 0.156707
H115  H     H_    0.304621 0.952324 0.162075 0.193380
H116  H     H_    0.316784 0.899605 0.126773 0.126432
H117  H     H_    0.227593 0.903746 0.145180 0.195638
H118  H     H_    0.886901 0.663919 0.817912 0.142174
H119  H     H_    0.828435 0.720987 0.842178 0.140335
H120  H     H_    0.924012 0.818275 0.842122 0.197203
H121  H     H_    0.959566 0.732334 0.856812 0.130070
H122  H     H_    0.981858 0.761598 0.817686 0.235524
H123  H     H_    0.238257 0.157554 0.709851 0.205617
H124  H     H_    0.708422 0.217744 0.155607 0.139864
H125  H     H_    0.631145 0.168455 0.172233 0.157170
H126  H     H_    0.692864 0.049987 0.161220 0.193291
H127  H     H_    0.680862 0.103853 0.126222 0.126592
H128  H     H_    0.770123 0.098557 0.144511 0.194906
H129  H     H_    0.887748 0.335913 0.181931 0.145640
H130  H     H_    0.825300 0.282623 0.157896 0.137912
H131  H     H_    0.916064 0.181844 0.155308 0.191105
H132  H     H_    0.955418 0.267141 0.141727 0.132059
H133  H     H_    0.977847 0.233009 0.180146 0.237556
H134  H     H_    0.666734 0.746614 0.206191 0.201153
H135  H     H_    0.710565 0.785189 0.844422 0.139960
H136  H     H_    0.633079 0.833991 0.827685 0.156670
H137  H     H_    0.695156 0.952752 0.837717 0.195486
H138  H     H_    0.683467 0.900247 0.873103 0.126141
H139  H     H_    0.772525 0.904659 0.854591 0.196993
H140  H     H_    0.114047 0.663052 0.181910 0.143658
H141  H     H_    0.172485 0.720210 0.157682 0.140112
H142  H     H_    0.076472 0.817098 0.157474 0.196664
H143  H     H_    0.041398 0.730919 0.142840 0.129453
H144  H     H_    0.018675 0.760359 0.181900 0.234742
N1    N     N_R   0.959098 0.449032 0.984460 -0.124936
N2    N     N_R   0.949495 0.540749 0.515681 -0.125877
N3    N     N_R   0.540882 0.050995 0.484460 -0.124948
N4    N     N_R   0.048630 0.459323 0.515600 -0.125255
N5    N     N_R   0.540886 0.050806 0.515483 -0.126356
N6    N     N_R   0.949300 0.540666 0.484658 -0.126158
N7    N     N_R   0.458199 0.952771 0.515382 -0.126935
N8    N     N_R   0.048551 0.459425 0.484579 -0.126410
N9    N     N_R   0.552472 0.038095 0.015444 -0.126700
N10   N     N_R   0.041920 0.546972 0.984363 -0.124782
N11   N     N_R   0.449637 0.961472 0.015360 -0.126310
N12   N     N_R   0.041817 0.547223 0.015383 -0.126936
N13   N     N_R   0.552585 0.038157 0.984421 -0.126060
N14   N     N_R   0.959094 0.449218 0.015482 -0.126359
N15   N     N_R   0.449856 0.961341 0.984339 -0.126329
N16   N     N_R   0.458096 0.953024 0.484362 -0.124798
O1    O     O_3   0.000000 0.500000 0.750000 -0.473186
O2    O     O_R   0.561290 0.999980 0.680680 -0.543988
O3    O     O_R   0.000020 0.561290 0.319320 -0.542862
O4    O     O_R   0.438710 0.000020 0.680680 -0.541632
O5    O     O_R   0.500020 0.938710 0.180680 -0.543739
O6    O     O_R   0.938710 0.499980 0.819320 -0.541860
O7    O     O_R   0.499980 0.061290 0.180680 -0.540734
O8    O     O_R   0.061290 0.500020 0.819320 -0.546014
O9    O     O_R   0.499980 0.938710 0.819320 -0.542700
O10   O     O_R   0.061290 0.499980 0.180680 -0.541634
O11   O     O_R   0.500020 0.061290 0.819320 -0.544913
O12   O     O_3   0.500000 0.000000 0.250000 -0.473127
O13   O     O_R   0.938710 0.500020 0.180680 -0.544006
O14   O     O_R   0.086240 0.647480 0.731820 -0.517095
O15   O     O_R   0.647480 0.913760 0.268180 -0.521418
O16   O     O_R   0.913760 0.352520 0.731820 -0.517164
O17   O     O_R   0.352520 0.086240 0.268180 -0.519770
O18   O     O_R   0.913760 0.647480 0.268180 -0.516864
O19   O     O_R   0.352520 0.913760 0.731820 -0.522250
O20   O     O_R   0.086240 0.352520 0.268180 -0.528220
O21   O     O_R   0.647480 0.086240 0.731820 -0.520769
O22   O     O_R   0.586240 0.147480 0.231820 -0.517225
O23   O     O_3   1.000000 0.500000 0.250000 -0.471574
O24   O     O_R   0.147480 0.413760 0.768180 -0.519848
O25   O     O_R   0.413760 0.852520 0.231820 -0.517119
O26   O     O_R   0.852520 0.586240 0.768180 -0.521490
O27   O     O_R   0.413760 0.147480 0.768180 -0.528326
O28   O     O_R   0.852520 0.413760 0.231820 -0.520745
O29   O     O_R   0.586240 0.852520 0.768180 -0.516857
O30   O     O_R   0.147480 0.586240 0.231820 -0.522204
O31   O     O_R   0.852520 0.413810 0.768170 -0.508358
O32   O     O_R   0.413810 0.147480 0.231830 -0.508502
O33   O     O_R   0.147480 0.586190 0.768170 -0.514998
O34   O     O_3   0.500000 0.000000 0.750000 -0.471612
O35   O     O_R   0.586190 0.852520 0.231830 -0.514390
O36   O     O_R   0.147480 0.413810 0.231830 -0.504991
O37   O     O_R   0.586190 0.147480 0.768170 -0.512126
O38   O     O_R   0.852520 0.586190 0.231830 -0.509497
O39   O     O_R   0.413810 0.852520 0.768170 -0.513738
O40   O     O_R   0.352520 0.913810 0.268170 -0.514987
O41   O     O_R   0.913810 0.647480 0.731830 -0.514335
O42   O     O_R   0.647480 0.086190 0.268170 -0.508332
O43   O     O_R   0.086190 0.352520 0.731830 -0.508411
O44   O     O_R   0.647480 0.913810 0.731830 -0.509462
O45   O     O_R   0.000020 0.438710 0.680680 -0.540493
O46   O     O_R   0.086190 0.647480 0.268170 -0.513766
O47   O     O_R   0.352520 0.086190 0.731830 -0.504944
O48   O     O_R   0.913810 0.352520 0.268170 -0.512144
O49   O     O_3   0.169751 0.276593 0.804305 -0.508755
O50   O     O_3   0.269688 0.838214 0.197660 -0.507698
O51   O     O_3   0.844851 0.758024 0.796760 -0.509246
O52   O     O_3   0.728869 0.162830 0.197371 -0.508146
O53   O     O_3   0.843596 0.242648 0.202804 -0.511276
O54   O     O_3   0.730450 0.838521 0.802252 -0.507872
O55   O     O_3   0.155504 0.757458 0.203028 -0.509620
O56   O     O_R   0.438710 0.999980 0.319320 -0.546000
O57   O     O_3   0.252079 0.163334 0.800412 -0.511771
O58   O     O_3   0.655073 0.741940 0.296731 -0.509187
O59   O     O_3   0.771190 0.337139 0.697357 -0.508140
O60   O     O_3   0.330326 0.223441 0.304289 -0.508731
O61   O     O_3   0.230204 0.661868 0.697632 -0.507703
O62   O     O_3   0.344448 0.742547 0.703013 -0.509669
O63   O     O_3   0.248089 0.336759 0.300366 -0.511784
O64   O     O_3   0.656407 0.257399 0.702810 -0.511329
O65   O     O_3   0.769410 0.661364 0.302212 -0.507867
O66   O     O_R   0.999980 0.561290 0.680680 -0.543513
O67   O     O_R   0.561290 0.000020 0.319320 -0.541837
O68   O     O_R   0.999980 0.438710 0.319320 -0.545041
Zn1   Zn    Zn3+2 0.087550 0.500010 0.775970 1.003647
Zn2   Zn    Zn3+2 0.000010 0.412450 0.724030 1.016863
Zn3   Zn    Zn3+2 0.412450 0.999990 0.275970 1.003684
Zn4   Zn    Zn3+2 0.999990 0.587550 0.724030 1.004011
Zn5   Zn    Zn3+2 0.412450 0.000010 0.724030 1.004646
Zn6   Zn    Zn3+2 0.999990 0.412450 0.275970 1.000128
Zn7   Zn    Zn3+2 0.587550 0.999990 0.724030 1.007756
Zn8   Zn    Zn3+2 0.000010 0.587550 0.275970 1.002334
Zn9   Zn    Zn3+2 0.500010 0.912450 0.224030 1.003832
Zn10  Zn    Zn3+2 0.912450 0.499990 0.775970 1.012444
Zn11  Zn    Zn3+2 0.499990 0.087550 0.224030 1.016628
Zn12  Zn    Zn3+2 0.912450 0.500010 0.224030 1.007729
Zn13  Zn    Zn3+2 0.499990 0.912450 0.775970 1.002447
Zn14  Zn    Zn3+2 0.087550 0.499990 0.224030 1.004651
Zn15  Zn    Zn3+2 0.500010 0.087550 0.775970 1.000147
Zn16  Zn    Zn3+2 0.587550 0.000010 0.275970 1.012492

loop_
_geom_bond_atom_site_label_1
_geom_bond_atom_site_label_2
_ccdc_geom_bond_type
C159  O60   S    
C53   H109  S    
C72   O59   S    
C134  Cl34  S    
C65   H140  S    
C8    C26   A    
C32   C45   A    
C30   C45   A    
C76   H26   S    
C154  O55   S    
C41   Cl42  S    
C15   C32   A    
C97   O16   A    
C93   N1    A    
C128  H70   S    
C58   H122  S    
C150  H74   S    
C7    C99   S    
C146  Cl7   S    
C60   H128  S    
C98   O32   A    
O22   Zn11  S    
C146  Cl25  S    
C133  O6    A    
C6    C146  S    
C1    C46   S    
C2    C11   A    
C10   C28   A    
C104  O42   A    
C71   H10   S    
C143  Cl22  S    
C19   C37   A    
C5    C102  S    
C117  C170  S    
C61   H129  S    
C161  O62   S    
C127  H46   S    
C140  Cl2   S    
C98   O17   A    
O23   Zn12  S    
C38   Cl39  S    
C61   O53   S    
O1    Zn2   S    
C141  C145  S    
C74   H20   S    
C110  C171  S    
C88   N3    A    
C1    O66   A    
C52   O49   S    
C59   C60   S    
C157  H81   S    
C50   C79   S    
C148  C165  S    
O38   Zn12  S    
C59   H124  S    
C156  C173  S    
C103  O21   A    
O34   Zn5   S    
C94   N9    A    
C83   H41   S    
C151  H75   S    
O47   Zn5   S    
C160  H84   S    
C137  Cl46  S    
C62   H131  S    
C84   H43   S    
C141  Cl20  S    
C130  Cl1   S    
C113  C120  S    
C152  C170  S    
C113  H1    S    
C78   O62   S    
C136  C171  S    
O56   Zn3   S    
C150  C168  S    
C108  C173  S    
C109  O48   A    
C153  O54   S    
O26   Zn10  S    
C34   Cl36  S    
C21   H103  S    
C124  C127  S    
C35   C89   S    
C53   H111  S    
C29   C44   A    
C128  H52   S    
C33   C47   A    
C34   C48   A    
C17   C34   A    
O68   Zn6   S    
C130  C138  S    
C37   Cl38  S    
O12   Zn16  S    
O31   Zn10  S    
C138  Cl17  S    
C101  O39   A    
C76   O61   S    
C80   H32   S    
C102  O20   A    
C72   C73   S    
C79   N7    A    
C133  O8    A    
C15   H96   S    
C66   H143  S    
C144  O9    A    
C23   C41   A    
C86   H51   S    
C26   Cl27  S    
C19   C35   A    
C133  C166  S    
O32   Zn11  S    
C32   Cl33  S    
C130  C165  S    
C57   C111  S    
C118  C171  S    
C30   Cl31  S    
C162  O63   S    
C162  H86   S    
C74   O60   S    
C132  Cl23  S    
O1    Zn4   S    
C44   C94   S    
C123  H64   S    
C31   Cl32  S    
O16   Zn2   S    
C6    C163  S    
C63   H135  S    
C115  H68   S    
C164  O65   S    
C156  H80   S    
C125  H24   S    
C3    C95   S    
C80   H33   S    
C18   H99   S    
C113  H54   S    
C110  O44   A    
C115  H56   S    
C55   H117  S    
C81   H37   S    
C97   C175  S    
C47   C92   S    
C14   C31   A    
C114  C167  S    
C85   C86   S    
C120  H62   S    
C65   H141  S    
C95   O14   A    
C84   H45   S    
C62   H132  S    
C78   H31   S    
C85   H48   S    
O12   Zn3   S    
O17   Zn3   S    
C36   Cl37  S    
C78   C80   S    
C129  H71   S    
O5    Zn9   S    
C54   H114  S    
C135  C170  S    
C14   C24   A    
C105  O24   A    
C27   C44   A    
C142  Cl4   S    
C73   H18   S    
C71   H11   S    
C114  C119  S    
C132  C136  S    
C157  C174  S    
C127  H69   S    
O8    Zn1   S    
C131  C167  S    
C96   O15   A    
C85   O65   S    
C151  O52   S    
C45   C91   S    
C14   H95   S    
C79   N5    A    
C7    C147  S    
C122  O7    A    
C144  O11   A    
C5    C145  S    
C86   H49   S    
C111  O4    A    
C77   H29   S    
O39   Zn13  S    
O37   Zn15  S    
C59   H125  S    
O11   Zn15  S    
C55   H116  S    
O35   Zn9   S    
C70   H9    S    
C68   C100  S    
C135  Cl14  S    
C148  O49   S    
C91   N14   A    
C69   H5    S    
C83   C84   S    
C67   H3    S    
C10   C166  A    
C52   H107  S    
C158  O59   S    
C158  H82   S    
C72   H15   S    
C64   H137  S    
C77   H28   S    
C156  O57   S    
C157  O58   S    
C157  C164  S    
C75   H22   S    
C158  C163  S    
O41   Zn4   S    
C114  H55   S    
C159  C176  S    
C120  H123  S    
C82   H40   S    
C142  Cl21  S    
C52   C53   S    
C25   H106  S    
C23   C57   A    
C54   C55   S    
O45   Zn2   S    
C4    C161  S    
C123  C175  S    
C163  O64   S    
C124  C176  S    
C40   C51   A    
C148  C156  S    
C151  C169  S    
C4    C126  S    
C99   O38   A    
C106  C167  S    
O27   Zn15  S    
C6    C128  S    
C63   O54   S    
O1    Zn10  S    
C23   H105  S    
C149  H73   S    
C135  Cl44  S    
C56   C58   S    
C100  O68   A    
C61   C62   S    
C140  Cl19  S    
C134  C169  S    
C63   C64   S    
C89   O56   A    
C153  H77   S    
C158  C175  S    
O42   Zn16  S    
C12   C13   A    
C56   H119  S    
C115  C168  S    
C2    C9    A    
O1    Zn1   S    
C159  H83   S    
C9    H91   S    
C106  O40   A    
C147  Cl8   S    
C10   H92   S    
C122  O5    A    
O30   Zn14  S    
O40   Zn3   S    
C8    H89   S    
C111  O2    A    
C116  H58   S    
C149  C167  S    
C49   C90   S    
O12   Zn9   S    
C130  Cl9   S    
C19   H100  S    
C38   C49   A    
O4    Zn5   S    
C110  O29   A    
C96   C174  S    
C126  H35   S    
C134  Cl13  S    
C99   O18   A    
C91   N12   A    
C69   H7    S    
C113  C165  S    
C155  O10   A    
C84   H44   S    
C64   H139  S    
C65   O55   S    
C137  C172  S    
O18   Zn8   S    
C118  H101  S    
O66   Zn4   S    
O36   Zn14  S    
C150  C153  S    
C58   H120  S    
C82   H38   S    
C141  C176  S    
C151  C152  S    
C48   C88   S    
C70   C71   S    
O21   Zn7   S    
C96   O35   A    
C119  H61   S    
N7    N16   A    
C53   H110  S    
C87   N8    A    
C88   N16   A    
C31   C47   A    
C28   Cl29  S    
C25   C68   A    
C76   H25   S    
C18   C46   A    
C132  Cl11  S    
C2    C122  S    
C58   H121  S    
C107  O26   A    
C136  Cl15  S    
C60   H127  S    
O48   Zn6   S    
C145  Cl24  S    
C124  H65   S    
C140  C146  S    
N1    N14   A    
C66   H144  S    
C67   O57   S    
C56   O51   S    
O44   Zn7   S    
C149  C154  S    
N9    N13   A    
C131  C137  S    
C137  Cl16  S    
C98   C176  S    
C114  H57   S    
N11   N15   A    
C61   H130  S    
N3    N5    A    
C92   N13   A    
C5    C127  S    
C138  C173  S    
C159  C162  S    
C6    C103  S    
O3    Zn8   S    
C22   C68   A    
C134  C135  S    
C112  O30   A    
C73   H16   S    
C164  H88   S    
C74   H19   S    
C97   O31   A    
C59   O52   S    
C155  O13   A    
C160  O61   S    
C42   Cl43  S    
C95   O33   A    
C125  C126  S    
C72   H14   S    
C80   H34   S    
N10   N12   A    
O12   Zn11  S    
C86   H50   S    
C41   C50   A    
C75   H23   S    
C9    C27   A    
O7    Zn11  S    
C104  O22   A    
C109  O28   A    
C107  C168  S    
C81   H36   S    
C119  H112  S    
C12   C30   A    
C141  Cl3   S    
C83   H42   S    
C121  C129  S    
C25   C42   A    
O15   Zn16  S    
C16   H97   S    
C90   N4    A    
C7    C164  S    
C28   C43   A    
C62   H133  S    
C5    C162  S    
C85   H47   S    
O13   Zn12  S    
O67   Zn16  S    
C94   N11   A    
C112  C172  S    
C138  Cl47  S    
C24   C144  S    
C140  C175  S    
C43   C93   S    
C105  C165  S    
O24   Zn1   S    
C152  H76   S    
C70   H8    S    
C7    C129  S    
N4    N8    A    
C83   O64   S    
C73   H17   S    
C87   N6    A    
C142  C143  S    
C121  H134  S    
C17   C35   A    
C18   C36   A    
C36   C49   A    
C54   O50   S    
C139  Cl48  S    
O29   Zn13  S    
O23   Zn14  S    
C12   H94   S    
C56   H118  S    
C3    C142  S    
O23   Zn8   S    
C106  O25   A    
C4    C143  S    
C81   C82   S    
O20   Zn6   S    
C123  H2    S    
C66   H142  S    
C139  C147  S    
C1    O45   A    
C39   Cl40  S    
C143  Cl5   S    
C103  O37   A    
O43   Zn2   S    
C107  O41   A    
O6    Zn10  S    
O34   Zn15  S    
C154  H78   S    
C55   H115  S    
C92   N15   A    
C116  C117  S    
C121  H63   S    
C13   C155  S    
C105  O43   A    
C101  O19   A    
C136  Cl45  S    
C121  C174  S    
C63   H136  S    
C52   H108  S    
C129  H53   S    
C118  H60   S    
C77   H27   S    
C125  H66   S    
C75   H21   S    
C139  Cl18  S    
C42   C51   A    
C131  Cl12  S    
C115  C118  S    
C16   C24   A    
C4    C101  S    
C108  O27   A    
C149  O50   S    
C26   C43   A    
C117  H90   S    
C90   N2    A    
C148  H72   S    
C100  O3    A    
C74   C75   S    
C70   O58   S    
C27   Cl28  S    
C78   H30   S    
O19   Zn5   S    
C76   C77   S    
C102  O36   A    
C51   C87   S    
C116  H79   S    
C11   H93   S    
C152  O53   S    
C145  Cl6   S    
O10   Zn14  S    
C54   H113  S    
C29   Cl30  S    
O9    Zn13  S    
C150  O51   S    
C67   C69   S    
C60   H126  S    
C117  H59   S    
C112  O46   A    
C21   C57   A    
C16   C33   A    
C20   C38   A    
C21   C39   A    
C22   C40   A    
C153  C171  S    
O46   Zn8   S    
C154  C172  S    
N2    N6    A    
C71   H12   S    
C37   C48   A    
C64   H138  S    
C17   H98   S    
C8    C166  A    
C13   C15   A    
C161  H85   S    
C3    C160  S    
O25   Zn9   S    
O23   Zn6   S    
C89   O67   A    
C108  O47   A    
C109  C170  S    
C81   O63   S    
O14   Zn4   S    
C147  Cl26  S    
C132  C168  S    
C139  C174  S    
C3    C125  S    
O34   Zn13  S    
C119  C172  S    
O33   Zn1   S    
O34   Zn7   S    
C160  C161  S    
C69   H6    S    
C124  H13   S    
C33   Cl35  S    
C20   H102  S    
C123  C128  S    
C67   H4    S    
C22   H104  S    
C116  C169  S    
O28   Zn12  S    
C20   C46   A    
C40   Cl41  S    
C126  H67   S    
C131  Cl10  S    
C120  C173  S    
C39   C50   A    
C93   N10   A    
C11   C29   A    
C65   C66   S    
C82   H39   S    
C163  H87   S    
O2    Zn7   S    
C104  C169  S    
