data_mof_unit_27861.cif
_audit_creation_date              2012-12-10T19:47:25-0500
_audit_creation_method            fapswitch 2.2
_symmetry_space_group_name_H-M    P1
_symmetry_Int_Tables_number       1
_space_group_crystal_system       triclinic
_cell_length_a                    15.00965
_cell_length_b                    14.103947
_cell_length_c                    10.756035
_cell_angle_alpha                 89.888306
_cell_angle_beta                  89.979943
_cell_angle_gamma                 89.971159
_cell_volume                      2276.99738932

loop_
_atom_site_label
_atom_site_type_symbol
_atom_type_description
_atom_site_fract_x
_atom_site_fract_y
_atom_site_fract_z
_atom_type_partial_charge
C1    C     C_R   0.327660 0.500055 0.500196 0.868859
C2    C     C_R   0.951880 0.500509 0.503276 0.117881
C3    C     C_R   0.563909 0.105261 0.430652 -0.235895
C4    C     C_R   0.437226 0.104306 0.568305 -0.218053
C5    C     C_R   0.562280 0.204868 0.432136 -0.005444
C6    C     C_R   0.438091 0.203964 0.567576 -0.009114
C7    C     C_R   0.500703 0.053339 0.499171 0.237673
C8    C     C_R   0.578569 0.895569 0.530785 0.374524
C9    C     C_R   0.423245 0.895999 0.466125 0.354959
C10   C     C_R   0.574730 0.795037 0.535025 -0.160797
C11   C     C_R   0.425863 0.795708 0.463832 -0.117682
C12   C     C_R   0.672332 0.500024 0.500139 0.862125
C13   C     C_R   0.500868 0.946710 0.498838 -0.073891
C14   C     C_R   0.492834 0.500703 0.259660 0.879716
C15   C     C_R   0.508567 0.500492 0.739943 0.881222
C16   C     C_R   0.461051 0.678245 0.111235 -0.311273
C17   C     C_R   0.550099 0.676454 0.885855 -0.361057
C18   C     C_R   0.483327 0.764508 0.055264 0.520225
C19   C     C_R   0.533539 0.763893 0.944469 0.410803
C20   C     C_R   0.519998 0.590030 0.938367 0.053013
C21   C     C_R   0.488983 0.590716 0.060363 0.018415
C22   C     C_R   0.487238 0.503322 0.125971 -0.080242
C23   C     C_R   0.231946 0.500273 0.501215 -0.021419
C24   C     C_R   0.517262 0.502684 0.873250 -0.080755
C25   C     C_R   0.495541 0.417230 0.063099 -0.215087
C26   C     C_R   0.507016 0.416958 0.936813 -0.219130
C27   C     C_R   0.093947 0.580589 0.460139 -0.177277
C28   C     C_R   0.905493 0.580090 0.546123 -0.179878
C29   C     C_R   0.185909 0.580581 0.459674 -0.199391
C30   C     C_R   0.813539 0.580176 0.544374 -0.205300
C31   C     C_3   0.733542 0.904270 0.522189 0.076844
C32   C     C_3   0.805688 0.979726 0.515225 -0.833070
C33   C     C_3   0.271527 0.916276 0.487519 0.101278
C34   C     C_R   0.768029 0.500190 0.501187 -0.017874
C35   C     C_3   0.200675 0.992820 0.474876 -0.820902
C36   C     C_3   0.518782 0.912893 0.141168 0.171551
C37   C     C_3   0.599455 0.869775 0.208175 -0.985008
C38   C     C_3   0.649820 0.850788 0.863077 0.087495
C39   C     C_3   0.682097 0.953075 0.862584 -0.765298
C40   C     C_R   0.186154 0.420343 0.544282 -0.189632
C41   C     C_R   0.814329 0.420370 0.459156 -0.192494
C42   C     C_R   0.094213 0.420840 0.546213 -0.178939
C43   C     C_R   0.906274 0.420779 0.459451 -0.179223
C44   C     C_R   0.048082 0.500765 0.503563 0.115753
H1    H     H_    0.492730 0.349722 0.111221 0.169551
H2    H     H_    0.778170 0.641976 0.578184 0.128870
H3    H     H_    0.221317 0.358240 0.577814 0.147211
H4    H     H_    0.779574 0.358481 0.424570 0.146982
H5    H     H_    0.059152 0.359331 0.581649 0.131809
H6    H     H_    0.941745 0.359492 0.424351 0.132101
H7    H     H_    0.613732 0.069154 0.375548 0.143536
H8    H     H_    0.387895 0.067281 0.623492 0.147410
H9    H     H_    0.610901 0.244262 0.378724 0.122834
H10   H     H_    0.389245 0.242634 0.621364 0.123463
H11   H     H_    0.725820 0.873197 0.427639 0.141282
H12   H     H_    0.507203 0.349377 0.889050 0.170629
H13   H     H_    0.756101 0.848374 0.587979 0.129255
H14   H     H_    0.816542 0.011373 0.608465 0.256719
H15   H     H_    0.869030 0.947527 0.482602 0.204466
H16   H     H_    0.785564 0.036445 0.449161 0.248354
H17   H     H_    0.283836 0.904546 0.588723 0.131457
H18   H     H_    0.245074 0.850187 0.445211 0.139317
H19   H     H_    0.185329 0.005278 0.375162 0.263565
H20   H     H_    0.138864 0.970208 0.523322 0.200588
H21   H     H_    0.224673 0.059978 0.516954 0.248111
H22   H     H_    0.488549 0.965231 0.205631 0.178054
H23   H     H_    0.631659 0.754308 0.565120 0.125517
H24   H     H_    0.539520 0.954752 0.059039 0.189112
H25   H     H_    0.642578 0.830435 0.142518 0.244627
H26   H     H_    0.639856 0.927174 0.250179 0.221324
H27   H     H_    0.576909 0.820346 0.281673 0.274692
H28   H     H_    0.662660 0.819792 0.770273 0.154749
H29   H     H_    0.690124 0.811097 0.933108 0.110808
H30   H     H_    0.680209 0.982410 0.958220 0.217319
H31   H     H_    0.751782 0.956123 0.828138 0.208128
H32   H     H_    0.639228 0.997222 0.801436 0.294987
H33   H     H_    0.368883 0.755968 0.431820 0.138507
H34   H     H_    0.420015 0.681130 0.193780 0.196705
H35   H     H_    0.587502 0.677029 0.800126 0.177285
H36   H     H_    0.058681 0.642198 0.425327 0.129493
H37   H     H_    0.940345 0.641559 0.581734 0.127374
H38   H     H_    0.220860 0.642527 0.425306 0.138210
N1    N     N_R   0.500000 0.252470 0.500000 -0.090059
N2    N     N_R   0.500000 0.747550 0.500000 -0.120891
O1    O     O_R   0.369060 0.579480 0.500010 -0.630250
O2    O     O_3   0.349310 0.945916 0.424336 -0.595791
O3    O     O_3   0.451058 0.846746 0.110373 -0.616633
O4    O     O_3   0.557227 0.848786 0.888309 -0.612876
O5    O     O_R   0.630940 0.579480 0.499990 -0.633566
O6    O     O_R   0.369050 0.420520 0.500010 -0.625401
O7    O     O_R   0.630950 0.420520 0.499990 -0.626266
O8    O     O_R   0.500000 0.579490 0.316770 -0.619910
O9    O     O_R   0.500000 0.579490 0.683230 -0.610167
O10   O     O_R   0.499990 0.420540 0.316770 -0.624127
O11   O     O_R   0.500010 0.420540 0.683230 -0.625188
O12   O     O_3   0.653948 0.946304 0.565937 -0.610473
Zn1   Zn    Zn3+2 0.500000 0.606140 0.500000 0.940597
Zn2   Zn    Zn3+2 0.500000 0.393860 0.500000 0.948389

loop_
_geom_bond_atom_site_label_1
_geom_bond_atom_site_label_2
_ccdc_geom_bond_type
C40   H3    S    
C1    O6    A    
C37   H25   S    
C27   C29   A    
C12   O7    A    
C8    O12   S    
C32   H14   S    
O11   Zn2   S    
C10   H23   S    
C19   O4    S    
C8    C13   A    
C4    H8    S    
N2    Zn1   S    
C23   C29   A    
C5    H9    S    
C36   C37   S    
C24   C26   A    
C3    C7    A    
C15   O11   A    
C38   C39   S    
C5    N1    A    
C36   H22   S    
O10   Zn2   S    
C23   C40   A    
C17   H35   S    
C17   C20   A    
C18   C19   A    
C39   H30   S    
C9    C13   A    
C11   H33   S    
C33   C35   S    
C27   C44   A    
C20   C24   A    
C2    C44   S    
C33   H18   S    
C22   C25   A    
C35   H20   S    
C39   H31   S    
C40   C42   A    
C37   H26   S    
C41   C43   A    
C34   C41   A    
C42   C44   A    
C6    H10   S    
C4    C7    A    
O8    Zn1   S    
C36   O3    S    
C1    O1    A    
C38   H28   S    
C30   C34   A    
C12   O5    A    
C4    C6    A    
C27   H36   S    
C3    H7    S    
C25   C26   A    
C16   C21   A    
N1    Zn2   S    
C38   O4    S    
C33   O2    S    
C9    O2    S    
O9    Zn1   S    
C31   C32   S    
C2    C43   A    
C39   H32   S    
C9    C11   A    
C14   O8    A    
C16   C18   A    
C15   C24   S    
C1    C23   S    
C37   H27   S    
C32   H16   S    
C12   C34   S    
C25   H1    S    
C6    N1    A    
C28   H37   S    
C30   H2    S    
C3    C5    A    
C26   H12   S    
C15   O9    A    
C35   H19   S    
C36   H24   S    
C43   H6    S    
C11   N2    A    
C18   O3    S    
C14   C22   S    
C28   C30   A    
C29   H38   S    
C31   H13   S    
C33   H17   S    
C10   N2    A    
C17   C19   A    
C41   H4    S    
O6    Zn2   S    
C16   H34   S    
O7    Zn2   S    
O1    Zn1   S    
C42   H5    S    
C7    C13   S    
C20   C21   A    
C8    C10   A    
O5    Zn1   S    
C35   H21   S    
C2    C28   A    
C32   H15   S    
C31   H11   S    
C21   C22   A    
C14   O10   A    
C31   O12   S    
C38   H29   S    
