data_mof_unit_48968.cif
_audit_creation_date              2013-03-05T15:57:02-0500
_audit_creation_method            fapswitch 2.2
_symmetry_space_group_name_H-M    P1
_symmetry_Int_Tables_number       1
_space_group_crystal_system       triclinic
_cell_length_a                    8.666613
_cell_length_b                    16.797337
_cell_length_c                    18.806053
_cell_angle_alpha                 101.227082
_cell_angle_beta                  91.96609
_cell_angle_gamma                 94.781645
_cell_volume                      2672.39427448

loop_
_atom_site_label
_atom_site_type_symbol
_atom_site_description
_atom_site_fract_x
_atom_site_fract_y
_atom_site_fract_z
_atom_type_partial_charge
P1    P     P_3+3 0.056550 0.421630 0.336220 0.609828
O1    O     O_2   0.884010 0.444810 0.325060 -0.410074
O2    O     O_3   0.132090 0.451130 0.414310 -0.319169
O3    O     O_3   0.640770 0.594650 0.368950 -0.350571
O4    O     O_2   0.716427 0.527497 0.239644 -0.342076
O5    O     O_3   0.092849 0.319183 0.292735 -0.624513
O6    O     O_3   0.669093 0.679233 0.247973 -0.583493
H1    H     H_    0.687196 0.746325 0.353942 0.049434
C1    C     C_3   0.733878 0.823552 0.276021 -0.055265
H2    H     H_    0.852376 0.808499 0.263361 0.145545
P2    P     P_3+3 0.635450 0.689180 0.556380 0.558331
P3    P     P_3+3 0.093625 0.743762 0.414696 0.539690
O7    O     O_2   0.808690 0.699720 0.534830 -0.323905
O8    O     O_3   0.053760 0.638480 0.405010 -0.421749
O9    O     O_2   0.956377 0.782555 0.453266 -0.311718
O10   O     O_3   0.637796 0.724355 0.652539 -0.600240
O11   O     O_3   0.081586 0.770929 0.329130 -0.508559
C2    C     C_3   0.059098 0.701497 0.272675 0.204592
H3    H     H_    0.938021 0.675397 0.270415 0.152633
H4    H     H_    0.131145 0.652960 0.281672 0.079596
C3    C     C_3   0.103469 0.725731 0.200460 0.156337
H5    H     H_    0.123065 0.793081 0.207410 0.183320
C4    C     C_3   0.245116 0.716325 0.631927 0.109237
H6    H     H_    0.327773 0.673245 0.607523 0.108356
H7    H     H_    0.169451 0.730226 0.587953 0.088702
C5    C     C_3   0.338459 0.794217 0.672759 0.031449
H8    H     H_    0.398868 0.780168 0.721311 0.235600
H9    H     H_    0.426668 0.815424 0.638162 0.084513
Ba1   Ba    Ba6+2 0.845660 0.536000 0.465120 1.763615
C6    C     C_3   0.005752 0.242505 0.291418 0.866967
C7    C     C_3   0.079582 0.176668 0.235596 -0.040440
H10   H     H_    0.109442 0.203298 0.187693 0.157473
H11   H     H_    0.182533 0.158508 0.260524 0.049862
C8    C     C_3   0.767315 0.713546 0.696909 0.658294
H12   H     H_    0.833834 0.664051 0.670137 0.005534
C9    C     C_3   0.880706 0.791002 0.721425 0.000497
H13   H     H_    0.969416 0.792342 0.681570 0.136372
H14   H     H_    0.948438 0.786624 0.771019 0.185969
P4    P     P_3+3 0.133150 0.578440 0.663790 0.565552
O12   O     O_2   0.305690 0.555220 0.674980 -0.353461
O13   O     O_3   0.057610 0.548940 0.585700 -0.336515
O14   O     O_3   0.548930 0.405410 0.631060 -0.358027
O15   O     O_3   0.152370 0.685086 0.681254 -0.552886
P5    P     P_3+3 0.093279 0.254734 0.590084 0.545737
O16   O     O_3   0.631040 0.400420 0.463490 -0.288641
O17   O     O_3   0.135930 0.361590 0.595000 -0.327023
O18   O     O_2   0.207394 0.213578 0.536246 -0.333828
O19   O     O_3   0.151283 0.223782 0.671188 -0.614100
Ba2   Ba    Ba6+2 0.344160 0.464070 0.534880 1.776649
P6    P     P_3+3 0.604917 0.588231 0.276154 0.555590
C10   C     C_3   0.642930 0.750161 0.298550 0.539833
H15   H     H_    0.680826 0.836793 0.225459 0.200915
O20   O     O_3   0.558660 0.599640 0.536520 -0.332171
C11   C     C_3   0.442251 0.259515 0.304458 0.830418
H16   H     H_    0.334216 0.248855 0.331120 0.065220
C12   C     C_3   0.452000 0.196630 0.233449 -0.737295
H17   H     H_    0.452230 0.134071 0.244574 0.249723
H18   H     H_    0.358253 0.198487 0.193052 0.205320
H19   H     H_    0.554058 0.211183 0.203383 0.318598
P7    P     P_3+3 0.554513 0.297627 0.443249 0.580116
O21   O     O_2   0.381010 0.300300 0.465220 -0.312213
O22   O     O_3   0.570956 0.256475 0.350749 -0.571691
H20   H     H_    0.214010 0.700422 0.183737 0.113197
C13   C     C_3   0.112163 0.277430 0.734235 0.647099
H21   H     H_    0.140839 0.341943 0.729461 -0.017678
C14   C     C_3   0.204075 0.264948 0.802331 0.081590
H22   H     H_    0.327917 0.280652 0.797436 0.123855
H23   H     H_    0.171597 0.308431 0.850752 0.098544
P8    P     P_3+3 0.572749 0.414845 0.725066 0.508292
C15   C     C_3   0.507252 0.260605 0.675268 0.442899
H24   H     H_    0.593988 0.263585 0.634253 0.089294
O23   O     O_2   0.430040 0.454720 0.758596 -0.446667
O24   O     O_3   0.553177 0.314921 0.741139 -0.481652
H25   H     H_    0.399164 0.277625 0.652525 0.115979
H26   H     H_    0.470933 0.169628 0.743513 0.312761
C16   C     C_3   0.486942 0.172567 0.685869 -0.671976
H27   H     H_    0.589500 0.140510 0.668024 0.248687
H28   H     H_    0.386364 0.138930 0.651675 0.239873
C17   C     C_R   0.997631 0.463142 0.047886 0.063100
C18   C     C_R   0.903007 0.430131 0.096018 0.072204
C19   C     C_R   0.751943 0.396946 0.072623 -0.174613
C20   C     C_R   0.692060 0.397671 0.002465 0.305286
C21   C     C_R   0.784726 0.434040 0.954436 -0.044909
C22   C     C_R   0.939317 0.464660 0.976605 0.023976
C23   C     C_R   0.725962 0.441379 0.885415 -0.053499
C24   C     C_R   0.820931 0.471869 0.835461 0.034126
C25   C     C_R   0.976520 0.502509 0.857477 0.003465
C26   C     C_R   0.034300 0.498968 0.928480 0.003919
C27   C     C_R   0.765238 0.470240 0.763494 0.183294
C28   C     C_R   0.865644 0.500373 0.715333 0.014686
C29   C     C_R   0.017155 0.536660 0.736377 0.142277
C30   C     C_R   0.071700 0.540575 0.810468 -0.183321
C31   C     C_R   0.148920 0.496683 0.071892 0.078198
C32   C     C_R   0.201450 0.502880 0.145797 0.038551
C33   C     C_R   0.102916 0.472800 0.195785 -0.083419
C34   C     C_R   0.958099 0.432611 0.167730 -0.011007
H29   H     H_    0.679812 0.369636 0.108990 0.231004
H30   H     H_    0.605194 0.423139 0.870536 0.173074
H31   H     H_    0.882260 0.406222 0.201766 0.208718
C35   C     C_R   0.211444 0.586503 0.841808 0.373299
C36   C     C_R   0.280907 0.567571 0.905394 -0.035448
C37   C     C_R   0.188100 0.529023 0.951312 -0.015105
C38   C     C_R   0.245771 0.526810 0.022559 0.117100
C39   C     C_R   0.437624 0.592027 0.927460 -0.032661
C40   C     C_R   0.496007 0.586805 0.996251 -0.203778
C41   C     C_R   0.398984 0.557764 0.045297 0.125017
C42   C     C_R   0.353645 0.537615 0.168807 -0.064718
C43   C     C_R   0.452552 0.561301 0.117028 -0.160081
C44   C     C_R   0.401558 0.549537 0.243069 0.316201
C45   C     C_R   0.294547 0.530721 0.293751 -0.301512
C46   C     C_R   0.152338 0.484109 0.271506 0.278976
H32   H     H_    0.517003 0.615171 0.891874 0.233533
H33   H     H_    0.616215 0.608100 0.011871 0.186471
H34   H     H_    0.570705 0.585613 0.132041 0.218662
H35   H     H_    0.329542 0.545284 0.350901 0.169777
C47   C     C_R   0.386946 0.734590 0.480520 -0.508588
C48   C     C_R   0.535139 0.763629 0.511778 0.064615
C49   C     C_R   0.583747 0.850105 0.521019 0.359800
C50   C     C_R   0.475637 0.903523 0.500234 0.079176
C51   C     C_R   0.326505 0.870487 0.472444 -0.228653
C52   C     C_R   0.282170 0.786948 0.462080 0.344225
C53   C     C_R   0.590628 0.154426 0.493690 -0.302218
C54   C     C_R   0.649943 0.234767 0.496095 0.186340
C55   C     C_R   0.684417 0.100467 0.518394 0.265811
N1    N     N_2   0.505874 0.991183 0.512137 -0.031927
N2    N     N_2   0.642130 0.015003 0.501634 0.065112
C56   C     C_R   0.798447 0.262016 0.525142 -0.214930
H36   H     H_    0.478935 0.132157 0.466260 0.193424
H37   H     H_    0.244784 0.910426 0.457230 0.182616
C57   C     C_R   0.892354 0.212003 0.554184 0.320732
C58   C     C_R   0.835839 0.129798 0.549021 -0.227925
H38   H     H_    0.911268 0.088393 0.566322 0.176297
H39   H     H_    0.349778 0.670182 0.472555 0.166992
H40   H     H_    0.848687 0.317810 0.513882 0.204782
N3    N     N_R   0.241035 0.860210 0.695104 0.255894
O25   O     O_R   0.185705 0.897981 0.647069 -0.384664
O26   O     O_R   0.229651 0.889762 0.763794 -0.269256
N4    N     N_R   0.848106 0.241451 0.263690 0.185103
O27   O     O_R   0.829886 0.265132 0.202288 -0.455265
O28   O     O_R   0.753366 0.181443 0.274194 -0.310067
S1    S     S_3+6 0.021391 0.215234 0.379171 -0.023363
O29   O     O_2   0.051186 0.292457 0.434684 -0.287337
O30   O     O_2   0.875686 0.167905 0.393970 -0.288153
O31   O     O_3   0.168895 0.157557 0.386683 -0.565157
H41   H     H_    0.122728 0.100318 0.374468 0.384206
S2    S     S_3+6 0.972131 0.079555 0.200479 0.110573
O32   O     O_2   0.902395 0.043454 0.260412 -0.181689
O33   O     O_2   0.846001 0.088631 0.146540 -0.113485
O34   O     O_3   0.094137 0.015683 0.157731 -0.428815
H42   H     H_    0.167603 0.007145 0.196499 0.351656
S3    S     S_3+6 0.695208 0.689927 0.779480 -0.025712
O35   O     O_2   0.816427 0.656636 0.821131 -0.349558
O36   O     O_2   0.648095 0.765830 0.826847 -0.146812
O37   O     O_3   0.541805 0.621613 0.760494 -0.516084
H43   H     H_    0.571313 0.583111 0.717907 0.365792
N5    N     N_R   0.743589 0.896579 0.333026 0.268924
O38   O     O_R   0.879082 0.931957 0.358107 -0.282791
O39   O     O_R   0.621028 0.934876 0.348647 -0.321405
N6    N     N_R   0.809935 0.868498 0.737163 0.323434
O40   O     O_R   0.660743 0.872133 0.733544 -0.282542
O41   O     O_R   0.898988 0.935508 0.759849 -0.230011
N7    N     N_R   0.477356 0.760804 0.298871 0.210806
O42   O     O_R   0.417105 0.814291 0.267381 -0.385095
O43   O     O_R   0.386701 0.712128 0.327478 -0.517733
S4    S     S_3+6 0.448685 0.355493 0.280481 -0.033399
O44   O     O_2   0.327103 0.355235 0.221798 -0.323494
O45   O     O_2   0.428289 0.416498 0.348125 -0.321095
O46   O     O_3   0.618037 0.376540 0.247569 -0.500428
H44   H     H_    0.686722 0.354888 0.279901 0.383283
S5    S     S_3+6 0.911208 0.262230 0.747005 -0.003427
O47   O     O_2   0.876394 0.297579 0.823676 -0.249938
O48   O     O_2   0.835692 0.306824 0.696215 -0.395696
O49   O     O_3   0.845393 0.162964 0.728554 -0.428162
H45   H     H_    0.917180 0.135224 0.694497 0.372773
S6    S     S_3+6 0.179318 0.163685 0.820576 0.107924
O50   O     O_2   0.312244 0.152111 0.869831 -0.153687
O51   O     O_2   0.030542 0.152559 0.857761 -0.129003
O52   O     O_3   0.176409 0.093700 0.743246 -0.498534
H46   H     H_    0.148356 0.040944 0.757705 0.436898
N8    N     N_R   0.539762 0.358110 0.980268 0.233470
O53   O     O_R   0.518807 0.304948 0.919671 -0.318469
O54   O     O_R   0.431393 0.361653 0.026702 -0.371173
N9    N     N_R   0.816733 0.488157 0.641368 0.239843
O55   O     O_R   0.721633 0.533883 0.618352 -0.381893
O56   O     O_R   0.866488 0.429217 0.596293 -0.387745
N10   N     N_R   0.238736 0.668991 0.830531 0.269130
O57   O     O_R   0.119085 0.707970 0.821289 -0.334439
O58   O     O_R   0.366262 0.713366 0.854833 -0.269666
S7    S     S_3+6 0.768636 0.896220 0.562095 0.024582
O59   O     O_2   0.742590 0.965272 0.623249 -0.256554
O60   O     O_2   0.865685 0.840570 0.590955 -0.272267
O61   O     O_3   0.876157 0.933059 0.500987 -0.478660
H47   H     H_    0.979966 0.949946 0.525606 0.376643
S8    S     S_3+6 0.961507 0.690733 0.127138 -0.045800
O62   O     O_2   0.877649 0.611253 0.134551 -0.342767
O63   O     O_2   0.846744 0.752751 0.126133 -0.245852
O64   O     O_3   0.051720 0.678448 0.048621 -0.495962
H48   H     H_    0.967310 0.663175 0.010273 0.385752

loop_
_geom_bond_atom_site_label_1
_geom_bond_atom_site_label_2
_geom_bond_distance
_ccdc_geom_bond_type
S8    O63   1.501307 D    
C25   C26   1.423826 A    
O16   P7    1.761231 S    
S4    O44   1.498609 D    
C6    N4    1.443048 S    
S7    O61   1.681114 S    
C2    C3    1.543674 S    
C14   H23   1.111203 S    
C33   C34   1.408518 A    
C1    C10   1.544291 S    
C56   H40   1.062234 S    
N9    O55   1.291173 A    
C31   C38   1.409549 A    
O52   H46   0.990337 S    
O2    Ba2   2.832327 S    
O34   H42   0.990748 S    
N3    O25   1.301031 A    
P4    O13   1.558012 S    
Ba1   Ba2   4.790048 S    
C23   C24   1.411535 A    
C12   H17   1.110842 S    
O17   Ba2   2.806814 S    
C5    H8    1.111399 S    
C36   C37   1.410825 A    
C6    S1    1.800276 S    
C41   C43   1.400007 A    
O1    Ba1   2.822844 S    
C40   H33   1.084217 S    
C9    H13   1.093886 S    
C16   H28   1.109284 S    
P1    O1    1.593437 D    
S1    O30   1.498986 D    
C17   C22   1.421961 A    
C49   S7    1.799840 S    
O19   C13   1.412537 S    
S8    O64   1.679771 S    
S5    O47   1.499649 D    
O64   H48   0.990727 S    
P5    C57   1.877642 S    
O12   Ba2   2.823422 S    
C34   H31   1.062526 S    
C4    O15   1.397260 S    
C47   C48   1.401812 A    
C20   N8    1.437341 S    
C10   N7    1.460854 S    
P7    O22   1.757668 S    
C8    H12   1.101754 S    
S3    O37   1.662926 S    
C43   H34   1.077300 S    
S7    O60   1.474140 D    
C49   C50   1.444777 A    
C5    N3    1.455097 S    
C9    N6    1.467587 S    
O10   C8    1.420523 S    
C45   C46   1.408264 A    
C7    S2    1.802593 S    
P3    C52   1.855037 S    
N6    O40   1.299591 A    
C1    N5    1.457937 S    
N8    O54   1.301359 A    
P3    O11   1.758075 S    
C15   H25   1.098612 S    
S3    O35   1.497316 D    
N6    O41   1.300083 A    
P8    O24   1.758112 S    
C15   H24   1.100485 S    
C23   H30   1.077365 S    
C3    S8    1.791101 S    
C18   C34   1.406801 A    
C1    H2    1.100872 S    
N7    O43   1.291675 A    
O3    Ba1   2.856521 S    
P2    O20   1.562640 S    
P5    O18   1.546380 D    
S3    O36   1.501755 D    
S8    O62   1.499225 D    
S4    O45   1.495869 D    
C3    H5    1.111144 S    
C53   H36   1.083182 S    
C42   C44   1.414351 A    
C32   C33   1.427021 A    
C1    H15   1.111049 S    
P8    C27   1.888837 S    
O13   Ba2   3.055428 S    
C39   C40   1.394271 A    
P5    O17   1.785851 S    
C19   C20   1.403787 A    
S6    O52   1.680569 S    
S2    O33   1.502996 D    
C21   C23   1.409536 A    
S5    O48   1.489695 D    
C11   C12   1.542582 S    
C32   C42   1.414820 A    
Ba2   O21   2.856135 S    
C47   C52   1.395926 A    
C48   C49   1.453378 A    
C51   H37   1.083330 S    
C16   H27   1.105663 S    
S6    O51   1.503022 D    
S1    O31   1.685284 S    
P4    O12   1.593754 D    
C39   H32   1.077306 S    
C24   C25   1.420425 A    
C2    H3    1.099124 S    
P4    O15   1.749869 S    
C47   H39   1.082656 S    
C11   O22   1.401721 S    
O49   H45   0.986844 S    
O14   P8    1.747435 S    
P1    O5    1.813542 S    
C55   C58   1.423548 A    
Ba1   O16   2.812437 S    
P7    O21   1.574954 D    
P1    O2    1.558011 S    
C13   C14   1.543008 S    
C4    C5    1.531536 S    
P8    O23   1.550194 D    
C35   N10   1.443602 S    
H26   C16   1.107637 S    
S2    O34   1.681371 S    
P2    O10   1.788610 S    
C54   C56   1.385827 A    
C21   C22   1.413031 A    
P3    O9    1.539474 D    
O16   Ba2   3.039803 S    
C4    H6    1.107739 S    
C15   O24   1.410980 S    
C7    H11   1.086857 S    
O11   C2    1.411083 S    
C31   C32   1.429027 A    
C50   C51   1.404525 A    
H1    C10   1.113232 S    
O37   H43   0.982357 S    
N4    O28   1.296101 A    
C50   N1    1.445745 S    
O46   H44   0.976570 S    
O5    C6    1.433015 S    
P3    O8    1.745964 S    
P6    C44   1.868706 S    
S4    O46   1.650236 S    
C15   C16   1.526905 S    
N1    N2    1.249634 D    
C14   S6    1.796783 S    
C42   C43   1.411572 A    
C53   C55   1.399610 A    
C58   H38   1.079933 S    
P2    C48   1.887557 S    
C29   C30   1.443334 A    
C25   C30   1.432845 A    
C51   C52   1.397549 A    
C30   C35   1.423903 A    
C55   N2    1.422211 S    
S2    O32   1.501716 D    
O7    Ba1   2.855869 S    
S7    O59   1.503645 D    
N3    O26   1.300800 A    
C11   H16   1.095152 S    
N5    O38   1.300396 A    
Ba1   O13   2.831830 S    
P4    C29   1.927722 S    
C7    H10   1.110065 S    
C22   C26   1.415614 A    
O6    P6    1.766557 S    
C18   C19   1.400587 A    
C24   C27   1.415619 A    
C2    H4    1.102063 S    
C26   C37   1.407146 A    
C8    S3    1.795664 S    
P4    Ba2   3.462443 S    
C17   C31   1.406263 A    
N7    O42   1.301815 A    
C40   C41   1.398510 A    
C5    H9    1.101644 S    
C12   H19   1.101757 S    
O31   H41   0.990368 S    
O61   H47   0.990927 S    
N9    O56   1.286126 A    
C57   C58   1.409883 A    
N10   O57   1.295906 A    
C56   C57   1.388720 A    
O6    C10   1.412135 S    
S6    O50   1.502405 D    
C33   C46   1.444508 A    
S1    O29   1.495822 D    
C13   H21   1.112947 S    
C9    H14   1.102812 S    
P2    O7    1.573271 D    
O2    Ba1   3.054482 S    
P1    Ba1   3.461706 S    
C6    C7    1.564127 S    
C19   H29   1.082914 S    
Ba2   O20   2.811661 S    
N5    O39   1.300042 A    
C35   C36   1.422695 A    
C12   H18   1.099694 S    
C14   H22   1.095007 S    
C38   C41   1.405597 A    
C8    C9    1.547006 S    
C4    H7    1.109933 S    
C13   S5    1.770439 S    
C37   C38   1.422326 A    
O4    P6    1.543782 D    
C3    H20   1.110825 S    
N4    O27   1.301304 A    
O14   Ba2   2.856084 S    
C17   C18   1.403535 A    
P5    O19   1.774583 S    
P7    C54   1.812291 S    
C28   N9    1.410868 S    
P2    Ba1   3.487315 S    
C20   C21   1.420162 A    
O3    P6    1.742873 S    
C53   C54   1.395163 A    
C36   C39   1.409826 A    
C11   S4    1.753661 S    
O8    Ba1   2.806030 S    
C27   C28   1.411700 A    
C44   C45   1.413351 A    
N10   O58   1.296652 A    
C45   H35   1.081579 S    
P1    C46   1.921753 S    
N8    O53   1.300607 A    
C28   C29   1.410432 A    
Ba1   O20   3.040719 S    
S5    O49   1.681829 S    
