data_mof_unit_55175.cif
_audit_creation_date              2012-12-11T15:45:08-0500
_audit_creation_method            fapswitch 2.2
_symmetry_space_group_name_H-M    P1
_symmetry_Int_Tables_number       1
_space_group_crystal_system       triclinic
_cell_length_a                    19.47533
_cell_length_b                    11.080998
_cell_length_c                    18.579985
_cell_angle_alpha                 89.375548
_cell_angle_beta                  90.5436
_cell_angle_gamma                 90.01885
_cell_volume                      4009.25527449

loop_
_atom_site_label
_atom_site_type_symbol
_atom_type_description
_atom_site_fract_x
_atom_site_fract_y
_atom_site_fract_z
_atom_type_partial_charge
C1    C     C_R   0.759394 0.534849 0.647128 0.545469
C2    C     C_R   0.240488 0.536759 0.352401 0.548587
C3    C     C_R   0.259394 0.034849 0.647128 0.545469
C4    C     C_R   0.740488 0.036758 0.352401 0.548587
C5    C     C_R   0.839806 0.129465 0.516779 -0.112682
C6    C     C_R   0.172702 0.070377 0.470405 -0.157071
C7    C     C_R   0.339806 0.629465 0.516779 -0.112682
C8    C     C_R   0.672702 0.570377 0.470405 -0.157071
C9    C     C_R   0.828008 0.106334 0.443192 -0.055191
C10   C     C_R   0.187190 0.036205 0.539716 -0.125353
C11   C     C_R   0.328008 0.606334 0.443192 -0.055192
C12   C     C_R   0.687190 0.536205 0.539716 -0.125354
C13   C     C_3   0.639918 0.159829 0.462724 0.134112
C14   C     C_3   0.336090 0.230320 0.550959 0.183095
C15   C     C_3   0.139918 0.659829 0.462724 0.134112
C16   C     C_3   0.836090 0.730320 0.550959 0.183095
C17   C     C_3   0.653751 0.170694 0.543069 0.737140
C18   C     C_3   0.323473 0.252835 0.471977 0.783414
C19   C     C_3   0.153751 0.670694 0.543069 0.737140
C20   C     C_3   0.823473 0.752835 0.471977 0.783415
C21   C     C_R   0.785527 0.167362 0.560290 -0.005984
C22   C     C_R   0.207419 0.166649 0.438631 -0.009817
C23   C     C_R   0.285527 0.667362 0.560290 -0.005984
C24   C     C_R   0.707419 0.666649 0.438631 -0.009817
C25   C     C_R   0.994935 0.332443 0.424055 0.020628
C26   C     C_R   0.004298 0.346527 0.575626 0.064296
C27   C     C_R   0.494935 0.832443 0.424055 0.020628
C28   C     C_R   0.504298 0.846527 0.575626 0.064296
C29   C     C_R   0.001489 0.108816 0.436782 0.327697
C30   C     C_R   0.033892 0.133635 0.582748 0.357886
C31   C     C_R   0.501489 0.608816 0.436782 0.327697
C32   C     C_R   0.533892 0.633636 0.582748 0.357886
C33   C     C_R   0.013676 0.008244 0.480353 -0.064004
C34   C     C_R   0.031200 0.020906 0.552552 -0.082846
C35   C     C_R   0.513676 0.508243 0.480353 -0.064004
C36   C     C_R   0.531200 0.520906 0.552552 -0.082846
C37   C     C_R   0.014412 0.235755 0.541936 -0.051060
C38   C     C_R   0.003985 0.225826 0.466367 -0.060474
C39   C     C_R   0.514412 0.735755 0.541936 -0.051060
C40   C     C_R   0.503985 0.725826 0.466367 -0.060474
C41   C     C_R   0.998421 0.452234 0.532528 -0.079450
C42   C     C_R   0.982573 0.441768 0.459154 -0.111417
C43   C     C_R   0.498421 0.952233 0.532528 -0.079450
C44   C     C_R   0.482573 0.941768 0.459154 -0.111417
C45   C     C_R   0.792064 0.173423 0.639177 0.562714
C46   C     C_R   0.206112 0.175707 0.359734 0.572337
C47   C     C_R   0.292064 0.673423 0.639177 0.562714
C48   C     C_R   0.706112 0.675707 0.359734 0.572337
C49   C     C_R   0.005295 0.569304 0.560974 -0.062560
C50   C     C_R   0.962455 0.545387 0.420033 -0.051981
C51   C     C_R   0.505294 0.069305 0.560974 -0.062560
C52   C     C_R   0.462455 0.045387 0.420033 -0.051981
C53   C     C_R   0.990324 0.670407 0.519607 0.426483
C54   C     C_R   0.972791 0.658913 0.447751 0.482656
C55   C     C_R   0.490324 0.170407 0.519607 0.426484
C56   C     C_R   0.472791 0.158913 0.447751 0.482656
C57   C     C_R   0.727928 0.997676 0.062267 0.011612
C58   C     C_R   0.263759 0.023004 0.934509 -0.029978
C59   C     C_R   0.227928 0.497676 0.062267 0.011612
C60   C     C_R   0.763759 0.523004 0.934509 -0.029978
C61   C     C_R   0.768270 0.924817 0.018276 -0.079718
C62   C     C_R   0.196887 0.032240 0.960485 0.017140
C63   C     C_R   0.268270 0.424817 0.018276 -0.079718
C64   C     C_R   0.696887 0.532240 0.960485 0.017139
C65   C     C_R   0.777440 0.953708 0.946069 0.032892
C66   C     C_R   0.185739 0.061017 0.032002 0.025935
C67   C     C_R   0.277440 0.453708 0.946069 0.032892
C68   C     C_R   0.685739 0.561017 0.032002 0.025935
C69   C     C_R   0.691926 0.105653 0.953292 -0.137278
C70   C     C_R   0.306806 0.045368 0.056716 -0.117222
C71   C     C_R   0.191926 0.605653 0.953292 -0.137278
C72   C     C_R   0.806806 0.545369 0.056716 -0.117222
C73   C     C_R   0.686602 0.083877 0.027489 -0.146955
C74   C     C_R   0.318004 0.015494 0.984681 -0.147195
C75   C     C_R   0.186602 0.583877 0.027489 -0.146955
C76   C     C_R   0.818004 0.515494 0.984681 -0.147195
C77   C     C_3   0.838308 0.870704 0.026568 0.321557
C78   C     C_3   0.151285 0.924269 0.965630 0.400791
C79   C     C_3   0.338308 0.370704 0.026568 0.321558
C80   C     C_3   0.651285 0.424269 0.965630 0.400790
C81   C     C_3   0.848725 0.903006 0.947322 0.477518
C82   C     C_3   0.137761 0.955887 0.041910 0.447494
C83   C     C_3   0.348725 0.403006 0.947322 0.477517
C84   C     C_3   0.637761 0.455887 0.041910 0.447494
C85   C     C_R   0.745148 0.054767 0.914317 -0.003864
C86   C     C_R   0.241806 0.081089 0.077700 -0.009792
C87   C     C_R   0.245148 0.554767 0.914317 -0.003864
C88   C     C_R   0.741806 0.581089 0.077700 -0.009792
C89   C     C_R   0.972202 0.347742 0.647693 0.595549
C90   C     C_R   0.027754 0.344289 0.352375 0.564098
C91   C     C_R   0.472202 0.847742 0.647693 0.595549
C92   C     C_R   0.527754 0.844289 0.352375 0.564098
C93   C     C_R   0.012188 0.347966 0.069768 -0.037213
C94   C     C_R   0.010339 0.339336 0.919188 -0.079416
C95   C     C_R   0.512188 0.847966 0.069768 -0.037213
C96   C     C_R   0.510339 0.839336 0.919188 -0.079416
C97   C     C_R   0.033644 0.447909 0.028242 -0.067314
C98   C     C_R   0.028495 0.445707 0.954550 -0.034033
C99   C     C_R   0.533644 0.947909 0.028242 -0.067314
C100  C     C_R   0.528494 0.945707 0.954550 -0.034032
C101  C     C_R   0.008221 0.231540 0.960124 0.253864
C102  C     C_R   0.997480 0.238765 0.034441 0.255289
C103  C     C_R   0.508221 0.731540 0.960124 0.253864
C104  C     C_R   0.497480 0.738765 0.034441 0.255289
C105  C     C_3   0.011176 0.577793 0.030439 0.289490
C106  C     C_3   0.001967 0.573029 0.949877 0.304886
C107  C     C_3   0.511176 0.077793 0.030439 0.289491
C108  C     C_3   0.501966 0.073029 0.949877 0.304886
C109  C     C_R   0.772553 0.486947 0.860113 0.532635
C110  C     C_R   0.225834 0.481309 0.140819 0.557345
C111  C     C_R   0.272553 0.986947 0.860113 0.532635
C112  C     C_R   0.725834 0.981309 0.140819 0.557345
C113  C     C_R   0.771522 0.120305 0.850735 0.542788
C114  C     C_R   0.227045 0.124489 0.148499 0.553561
C115  C     C_R   0.271522 0.620305 0.850735 0.542788
C116  C     C_R   0.727045 0.624489 0.148499 0.553561
C117  C     C_R   0.972088 0.346735 0.851883 0.539144
C118  C     C_R   0.031384 0.348447 0.145361 0.546279
C119  C     C_R   0.472088 0.846736 0.851883 0.539144
C120  C     C_R   0.531384 0.848447 0.145361 0.546279
C121  C     C_R   0.761256 0.114078 0.413590 -0.007922
C122  C     C_R   0.235610 0.097700 0.581937 0.004993
C123  C     C_R   0.261256 0.614078 0.413590 -0.007922
C124  C     C_R   0.735610 0.597700 0.581937 0.004993
C125  C     C_R   0.714074 0.179834 0.452725 -0.042779
C126  C     C_R   0.262155 0.205419 0.555231 -0.022720
C127  C     C_R   0.214074 0.679834 0.452725 -0.042778
C128  C     C_R   0.762155 0.705419 0.555231 -0.022720
C129  C     C_R   0.725386 0.202490 0.525309 0.043027
C130  C     C_R   0.249136 0.238594 0.482754 0.038926
C131  C     C_R   0.225386 0.702491 0.525309 0.043027
C132  C     C_R   0.749135 0.738594 0.482754 0.038926
Cr1   Cr    Cr6+3 0.885860 0.491680 0.749630 1.070856
Cr2   Cr    Cr6+3 0.114140 0.491680 0.250370 1.041110
Cr3   Cr    Cr6+3 0.385860 0.991680 0.749630 1.070855
Cr4   Cr    Cr6+3 0.614140 0.991680 0.250370 1.041110
Cr5   Cr    Cr6+3 0.730490 0.332970 0.748720 1.159279
Cr6   Cr    Cr6+3 0.269510 0.332970 0.251280 1.173926
Cr7   Cr    Cr6+3 0.230490 0.832970 0.748720 1.159279
Cr8   Cr    Cr6+3 0.769510 0.832970 0.251280 1.173926
Cr9   Cr    Cr6+3 0.887570 0.179310 0.750150 1.138312
Cr10  Cr    Cr6+3 0.112430 0.179310 0.249850 1.103036
Cr11  Cr    Cr6+3 0.387570 0.679310 0.750150 1.138312
Cr12  Cr    Cr6+3 0.612430 0.679310 0.249850 1.103036
H1    H     H_    0.889025 0.107892 0.540711 0.162374
H2    H     H_    0.140858 0.009634 0.439655 0.197278
H3    H     H_    0.389025 0.607892 0.540711 0.162374
H4    H     H_    0.640858 0.509634 0.439655 0.197278
H5    H     H_    0.659993 0.171818 0.927676 0.230248
H6    H     H_    0.346139 0.035438 0.097360 0.227246
H7    H     H_    0.159993 0.671818 0.927676 0.230248
H8    H     H_    0.846139 0.535438 0.097360 0.227246
H9    H     H_    0.655134 0.141512 0.058822 0.148012
H10   H     H_    0.366460 0.977645 0.969386 0.123777
H11   H     H_    0.155134 0.641512 0.058822 0.148012
H12   H     H_    0.866460 0.477645 0.969386 0.123777
H13   H     H_    0.837646 0.772881 0.038406 0.150222
H14   H     H_    0.182021 0.842348 0.960036 0.068976
H15   H     H_    0.337646 0.272881 0.038406 0.150222
H16   H     H_    0.682021 0.342348 0.960036 0.068976
H17   H     H_    0.049776 0.643559 0.048037 0.166767
H18   H     H_    0.948348 0.584077 0.931832 0.160159
H19   H     H_    0.549776 0.143559 0.048037 0.166767
H20   H     H_    0.448348 0.084077 0.931832 0.160159
H21   H     H_    0.868314 0.066604 0.412324 0.261713
H22   H     H_    0.165265 0.952009 0.556789 0.219321
H23   H     H_    0.368314 0.566604 0.412324 0.261713
H24   H     H_    0.665265 0.452009 0.556789 0.219322
H25   H     H_    0.120005 0.570237 0.445902 0.124183
H26   H     H_    0.868373 0.650681 0.564266 0.101535
H27   H     H_    0.620005 0.070236 0.445902 0.124183
H28   H     H_    0.368373 0.150681 0.564266 0.101535
H29   H     H_    0.013712 0.920942 0.456497 0.303325
H30   H     H_    0.046482 0.944950 0.585470 0.276843
H31   H     H_    0.513712 0.420942 0.456497 0.303325
H32   H     H_    0.546482 0.444950 0.585470 0.276843
H33   H     H_    0.941364 0.539124 0.365983 0.209078
H34   H     H_    0.024830 0.585438 0.614647 0.247881
H35   H     H_    0.441364 0.039124 0.365983 0.209078
H36   H     H_    0.524830 0.085438 0.614647 0.247881
O1    O     O_R   0.957020 0.451640 0.669920 -0.539767
O2    O     O_R   0.042980 0.451640 0.330080 -0.544389
O3    O     O_R   0.457020 0.951640 0.669920 -0.539767
O4    O     O_R   0.542980 0.951640 0.330080 -0.544389
O5    O     O_R   0.736470 0.210100 0.823360 -0.506842
O6    O     O_R   0.263530 0.210100 0.176640 -0.512733
O7    O     O_R   0.236470 0.710100 0.823360 -0.506842
O8    O     O_R   0.763530 0.710100 0.176640 -0.512733
O9    O     O_R   0.831960 0.093290 0.830130 -0.454835
O10   O     O_R   0.168040 0.093290 0.169870 -0.493851
O11   O     O_R   0.331960 0.593290 0.830130 -0.454836
O12   O     O_R   0.668040 0.593290 0.169870 -0.493851
O13   O     O_R   0.945600 0.250580 0.824860 -0.474962
O14   O     O_R   0.054400 0.250580 0.175140 -0.498388
O15   O     O_R   0.445600 0.750580 0.824860 -0.474962
O16   O     O_R   0.554400 0.750580 0.175140 -0.498388
O17   O     O_3   0.834640 0.334650 0.749500 -0.360039
O18   O     O_3   0.165360 0.334650 0.250500 -0.361191
O19   O     O_3   0.334640 0.834650 0.749500 -0.360039
O20   O     O_3   0.665360 0.834650 0.250500 -0.361191
O21   O     O_R   0.821450 0.543440 0.674610 -0.523113
O22   O     O_R   0.178550 0.543440 0.325390 -0.526341
O23   O     O_R   0.321450 0.043440 0.674610 -0.523113
O24   O     O_R   0.678550 0.043440 0.325390 -0.526341
O25   O     O_R   0.715320 0.458650 0.668100 -0.470634
O26   O     O_R   0.284680 0.458650 0.331900 -0.430629
O27   O     O_R   0.215320 0.958650 0.668100 -0.470634
O28   O     O_R   0.784680 0.958650 0.331900 -0.430629
O29   O     O_R   0.737170 0.209590 0.674530 -0.420924
O30   O     O_R   0.262830 0.209590 0.325470 -0.399915
O31   O     O_R   0.237170 0.709590 0.674530 -0.420924
O32   O     O_R   0.762830 0.709590 0.325470 -0.399915
O33   O     O_R   0.832710 0.092740 0.669580 -0.461929
O34   O     O_R   0.167290 0.092740 0.330420 -0.500144
O35   O     O_R   0.332710 0.592740 0.669580 -0.461929
O36   O     O_R   0.667290 0.592740 0.330420 -0.500144
O37   O     O_R   0.946290 0.250060 0.676040 -0.467730
O38   O     O_R   0.053710 0.250060 0.323960 -0.435957
O39   O     O_R   0.446290 0.750060 0.676040 -0.467730
O40   O     O_R   0.553710 0.750060 0.323960 -0.435957
O41   O     O_R   0.956270 0.452200 0.830470 -0.500359
O42   O     O_R   0.043730 0.452200 0.169530 -0.478378
O43   O     O_R   0.456270 0.952200 0.830470 -0.500359
O44   O     O_R   0.543730 0.952200 0.169530 -0.478378
O45   O     O_R   0.820760 0.543950 0.823440 -0.462633
O46   O     O_R   0.179240 0.543950 0.176560 -0.507014
O47   O     O_R   0.320760 0.043950 0.823440 -0.462633
O48   O     O_R   0.679240 0.043950 0.176560 -0.507014
O49   O     O_R   0.714570 0.459210 0.828640 -0.448300
O50   O     O_R   0.285430 0.459210 0.171360 -0.418715
O51   O     O_R   0.214570 0.959210 0.828640 -0.448300
O52   O     O_R   0.785430 0.959210 0.171360 -0.418715
F1    F     F_    0.987458 0.778058 0.551661 -0.602939
F2    F     F_    0.960838 0.756762 0.405081 -0.540177
F3    F     F_    0.487458 0.278058 0.551661 -0.602939
F4    F     F_    0.460838 0.256762 0.405081 -0.540177
F5    F     F_    0.880694 0.935429 0.072263 -0.544790
F6    F     F_    0.094646 0.931291 0.920400 -0.511056
F7    F     F_    0.380694 0.435429 0.072263 -0.544790
F8    F     F_    0.594646 0.431291 0.920400 -0.511056
O53   O     O_3   0.900892 0.987935 0.935434 -0.501544
H37   H     H_    0.888300 0.063136 0.960789 0.364965
O54   O     O_3   0.069653 0.989741 0.053887 -0.520187
H38   H     H_    0.065573 0.003266 0.106340 0.371541
O55   O     O_3   0.400892 0.487935 0.935433 -0.501545
H39   H     H_    0.388300 0.563136 0.960789 0.364965
O56   O     O_3   0.569653 0.489741 0.053887 -0.520187
H40   H     H_    0.565573 0.503266 0.106340 0.371541
O57   O     O_3   0.854351 0.802212 0.902942 -0.661852
H41   H     H_    0.902364 0.773702 0.908281 0.376020
O58   O     O_3   0.162661 0.868780 0.091413 -0.731940
H42   H     H_    0.123007 0.818188 0.105891 0.338059
O59   O     O_3   0.354351 0.302212 0.902943 -0.661854
H43   H     H_    0.402364 0.273703 0.908281 0.376021
O60   O     O_3   0.662661 0.368780 0.091413 -0.731940
H44   H     H_    0.623007 0.318188 0.105890 0.338059
O61   O     O_3   0.010349 0.120056 0.928634 -0.501056
H45   H     H_    0.033833 0.128682 0.881726 0.371152
O62   O     O_3   0.969069 0.140970 0.069681 -0.562756
H46   H     H_    0.949356 0.168031 0.115752 0.343699
O63   O     O_3   0.510349 0.620056 0.928634 -0.501056
H47   H     H_    0.533833 0.628682 0.881726 0.371152
O64   O     O_3   0.469069 0.640970 0.069681 -0.562757
H48   H     H_    0.449356 0.668031 0.115752 0.343699
F9    F     F_    0.950923 0.594127 0.066284 -0.673975
F10   F     F_    0.045129 0.649577 0.913001 -0.615453
F11   F     F_    0.450923 0.094127 0.066284 -0.673975
F12   F     F_    0.545129 0.149577 0.913001 -0.615453
O65   O     O_3   0.604381 0.259038 0.433781 -0.690579
H49   H     H_    0.601153 0.245239 0.381162 0.355925
O66   O     O_3   0.353311 0.335612 0.588202 -0.592632
H50   H     H_    0.360584 0.310426 0.639113 0.353481
O67   O     O_3   0.104381 0.759038 0.433781 -0.690579
H51   H     H_    0.101153 0.745239 0.381162 0.355925
O68   O     O_3   0.853311 0.835612 0.588202 -0.592631
H52   H     H_    0.860584 0.810426 0.639113 0.353481
F13   F     F_    0.619670 0.262037 0.577411 -0.595564
F14   F     F_    0.343267 0.364484 0.447989 -0.543976
F15   F     F_    0.119670 0.762037 0.577411 -0.595564
F16   F     F_    0.843267 0.864484 0.447989 -0.543977
F17   F     F_    0.650409 0.061062 0.579527 -0.628415
F18   F     F_    0.343948 0.160259 0.428635 -0.644151
F19   F     F_    0.150409 0.561062 0.579527 -0.628415
F20   F     F_    0.843948 0.660259 0.428635 -0.644151
F21   F     F_    0.981376 0.088696 0.367815 -0.597188
F22   F     F_    0.059350 0.143227 0.650826 -0.590390
F23   F     F_    0.481376 0.588696 0.367815 -0.597188
F24   F     F_    0.559350 0.643227 0.650826 -0.590390

loop_
_geom_bond_atom_site_label_1
_geom_bond_atom_site_label_2
_ccdc_geom_bond_type
C112  O48   A    
C2    O22   A    
C2    C123  S    
C108  H20   S    
C120  O16   A    
C51   H36   S    
C84   O56   S    
C114  O10   A    
Cr1   O45   S    
Cr3   O19   S    
C6    H2    S    
C94   C117  S    
C95   C99   A    
O66   H50   S    
C29   C33   A    
C110  O50   A    
C48   O32   A    
C70   H6    S    
C70   C74   A    
C9    C121  A    
C7    H3    S    
C115  O11   A    
Cr4   O48   S    
C78   F6    S    
C15   C127  S    
O55   H39   S    
C22   C130  A    
C11   H23   S    
Cr9   O17   S    
C20   C132  S    
C16   O68   S    
C41   C49   A    
C4    O28   A    
Cr1   O21   S    
O64   H48   S    
C5    H1    S    
C30   C34   A    
C14   O66   S    
Cr3   O23   S    
C46   O30   A    
C60   C76   A    
C35   C36   A    
C89   O1    A    
C93   C102  A    
C43   C44   A    
C37   C38   A    
C34   H30   S    
C66   C82   S    
C78   C82   S    
Cr12  O20   S    
C16   C20   S    
C119  O43   A    
C103  O63   S    
Cr5   O17   S    
C110  O46   A    
C18   C130  S    
C99   C107  S    
Cr11  O35   S    
Cr1   O17   S    
C10   C122  A    
C14   C126  S    
C57   C61   A    
C19   F19   S    
C59   C63   A    
C98   C106  S    
C60   C64   A    
C3    O27   A    
Cr8   O20   S    
C1    C124  S    
C35   H31   S    
C49   C53   A    
C119  O15   A    
C127  C131  A    
Cr4   O20   S    
C117  O13   A    
C125  C129  A    
C5    C21   A    
C126  C130  A    
Cr7   O51   S    
O54   H38   S    
C6    C22   A    
C67   C83   S    
C47   O31   A    
C118  O42   A    
C111  O51   A    
Cr3   O3    S    
C97   C98   A    
C53   C54   A    
C5    C9    A    
C25   C90   S    
Cr3   O47   S    
C64   C68   A    
Cr12  O40   S    
O59   H43   S    
C105  F9    S    
C74   H10   S    
O53   H37   S    
C57   C73   A    
C15   O67   S    
Cr10  O38   S    
C60   C109  S    
C27   C44   A    
C78   H14   S    
C61   C77   S    
Cr2   O42   S    
C12   C124  A    
C29   C38   A    
C107  C108  S    
C2    O26   A    
C51   C55   A    
C10   H22   S    
C44   C52   A    
C120  O44   A    
Cr2   O2    S    
O67   H51   S    
C21   C45   S    
C100  C108  S    
C23   C47   S    
C62   C66   A    
C24   C48   S    
Cr6   O50   S    
C88   C116  S    
C92   O4    A    
C39   C40   A    
Cr12  O36   S    
Cr6   O30   S    
C45   O29   A    
C101  O61   S    
C121  C125  A    
C13   O65   S    
C25   C38   A    
C115  O7    A    
C123  C127  A    
Cr4   O44   S    
C27   C40   A    
C8    C12   A    
C113  O5    A    
C83   O55   S    
C23   C131  A    
Cr9   O13   S    
C21   C129  A    
Cr7   O27   S    
C42   C50   A    
Cr1   O1    S    
C107  H19   S    
C105  H17   S    
C54   F2    S    
C93   C97   A    
C69   C85   A    
C58   C74   A    
C29   F21   S    
C87   C115  S    
C62   C78   S    
C31   F23   S    
C20   F16   S    
C32   F24   S    
C66   C86   A    
C32   C36   A    
C75   H11   S    
Cr12  O16   S    
C13   C17   S    
C85   C113  S    
C52   H35   S    
C97   C105  S    
Cr10  O14   S    
C7    C23   A    
C96   C100  A    
C8    C24   A    
C82   O54   S    
C28   C91   S    
C61   C65   A    
C116  O12   A    
C90   O38   A    
Cr11  O39   S    
C13   H27   S    
C56   F4    S    
C17   F13   S    
O60   H44   S    
C58   C62   A    
C19   F15   S    
C55   C56   A    
C101  C102  A    
C91   O3    A    
C3    O23   A    
C41   C42   A    
C96   C119  S    
O68   H52   S    
C80   C84   S    
C1    O21   A    
Cr6   O26   S    
O58   H42   S    
C15   C19   S    
C50   C54   A    
Cr6   O6    S    
C79   H15   S    
C80   H16   S    
C94   C98   A    
Cr3   O43   S    
Cr10  O10   S    
C31   C40   A    
C32   C39   A    
C81   O53   S    
Cr9   O37   S    
C109  O49   A    
C71   H7    S    
C72   H8    S    
C47   O35   A    
Cr1   O41   S    
C69   C73   A    
C124  C128  A    
C17   F17   S    
O65   H49   S    
C77   F5    S    
C64   C80   S    
C8    H4    S    
Cr8   O28   S    
Cr5   O5    S    
C106  F10   S    
C58   C111  S    
C68   C84   S    
C50   H33   S    
Cr9   O9    S    
Cr10  O34   S    
Cr5   O49   S    
C63   C79   S    
Cr12  O12   S    
C28   C39   A    
C76   H12   S    
C30   C37   A    
Cr5   O29   S    
Cr8   O8    S    
C24   C132  A    
C65   C81   S    
C77   C81   S    
Cr11  O15   S    
Cr4   O4    S    
C84   O60   S    
O57   H41   S    
C71   C87   A    
C22   C46   S    
Cr8   O52   S    
C31   C35   A    
C36   H32   S    
C53   F1    S    
Cr8   O32   S    
C49   H34   S    
C11   C123  A    
C55   F3    S    
C25   C42   A    
C6    C10   A    
C26   C37   A    
C95   C120  S    
C113  O9    A    
C105  C106  S    
C28   C43   A    
C114  O6    A    
C69   H5    S    
C9    H21   S    
C79   C83   S    
C43   C51   A    
O63   H47   S    
C4    C121  S    
C106  H18   S    
C118  O14   A    
C16   H26   S    
C96   C103  A    
C103  C104  A    
C30   F22   S    
C20   F20   S    
C13   C125  S    
C48   O36   A    
C14   C18   S    
C117  O41   A    
C79   F7    S    
C72   C76   A    
C45   O33   A    
Cr5   O25   S    
C26   C89   S    
C7    C11   A    
C116  O8    A    
C83   O59   S    
Cr2   O46   S    
O61   H45   S    
Cr7   O19   S    
C4    O24   A    
C57   C112  S    
C59   C110  S    
C102  O62   S    
C15   H25   S    
C108  F12   S    
C92   O40   A    
Cr11  O11   S    
C18   F14   S    
C90   O2    A    
C94   C101  A    
C46   O34   A    
C104  O64   S    
C33   H29   S    
C3    C122  S    
Cr10  O18   S    
Cr7   O7    S    
C128  C132  A    
C72   C88   A    
Cr2   O22   S    
C19   C131  S    
C63   C67   A    
C17   C129  S    
C82   O58   S    
C14   H28   S    
Cr9   O33   S    
C109  O45   A    
C112  O52   A    
Cr7   O31   S    
C122  C126  A    
C99   C100  A    
C18   F18   S    
C33   C34   A    
C27   C92   S    
C16   C128  S    
Cr6   O18   S    
C107  F11   S    
C68   C88   A    
C93   C118  S    
O62   H46   S    
C70   C86   A    
C59   C75   A    
Cr4   O24   S    
C1    O25   A    
C95   C104  A    
Cr2   O18   S    
C81   O57   S    
C12   H24   S    
O56   H40   S    
C65   C85   A    
Cr11  O19   S    
C67   C87   A    
C86   C114  S    
C111  O47   A    
C80   F8    S    
C71   C75   A    
C91   O39   A    
C89   O37   A    
C73   H9    S    
C52   C56   A    
C26   C41   A    
C77   H13   S    
