data_mof_unit_48427.cif
_audit_creation_date              2013-03-05T15:42:50-0500
_audit_creation_method            fapswitch 2.2
_symmetry_space_group_name_H-M    P1
_symmetry_Int_Tables_number       1
_space_group_crystal_system       triclinic
_cell_length_a                    27.781779
_cell_length_b                    17.343587
_cell_length_c                    17.992223
_cell_angle_alpha                 90.123373
_cell_angle_beta                  138.008467
_cell_angle_gamma                 89.935499
_cell_volume                      5799.92384816

loop_
_atom_site_label
_atom_site_type_symbol
_atom_site_description
_atom_site_fract_x
_atom_site_fract_y
_atom_site_fract_z
_atom_type_partial_charge
C1    C     C_R   0.668324 0.922400 0.817620 -0.111123
C2    C     C_R   0.331678 0.077599 0.182380 -0.111069
C3    C     C_R   0.311922 0.899293 0.196349 -0.125618
C4    C     C_R   0.688077 0.100708 0.803651 -0.125689
C5    C     C_R   0.188205 0.399136 0.803052 -0.125961
C6    C     C_R   0.811794 0.600865 0.196951 -0.125951
C7    C     C_R   0.832997 0.423080 0.182784 -0.112078
C8    C     C_R   0.167002 0.576919 0.817216 -0.112079
H1    H     H_    0.716973 0.954980 0.882782 0.096599
H2    H     H_    0.283028 0.045019 0.117218 0.096589
H3    H     H_    0.260259 0.927147 0.143282 0.127770
H4    H     H_    0.739741 0.072854 0.856717 0.127783
H5    H     H_    0.239835 0.427154 0.856235 0.128523
H6    H     H_    0.760164 0.572846 0.143770 0.128489
H7    H     H_    0.784602 0.455800 0.117318 0.097332
H8    H     H_    0.215398 0.544200 0.882683 0.097342
N1    N     N_R   0.625380 0.928280 0.709340 -0.042642
N2    N     N_R   0.374620 0.071720 0.290660 -0.042627
N3    N     N_R   0.374620 0.928280 0.290660 -0.042279
N4    N     N_R   0.625380 0.071720 0.709340 -0.042324
N5    N     N_R   0.125380 0.428280 0.709340 -0.042280
N6    N     N_R   0.874620 0.571720 0.290660 -0.042278
N7    N     N_R   0.874620 0.428280 0.290660 -0.043095
N8    N     N_R   0.125380 0.571720 0.709340 -0.043095
C9    C     C_R   0.359513 0.069858 0.491221 -0.072287
C10   C     C_R   0.640493 0.930115 0.508780 -0.071878
C11   C     C_R   0.675961 0.103428 0.598307 -0.043553
C12   C     C_R   0.324037 0.896565 0.401677 -0.044196
C13   C     C_R   0.824032 0.603360 0.401714 -0.043379
C14   C     C_R   0.175975 0.396642 0.598317 -0.043412
C15   C     C_R   0.140481 0.569708 0.508750 -0.072676
C16   C     C_R   0.859520 0.430291 0.491252 -0.072691
H9    H     H_    0.318255 0.031058 0.461837 0.177136
H10   H     H_    0.681794 0.968864 0.538188 0.177070
H11   H     H_    0.725906 0.072728 0.659327 0.169456
H12   H     H_    0.274091 0.927261 0.340641 0.169646
H13   H     H_    0.774112 0.572526 0.340721 0.169405
H14   H     H_    0.225896 0.427476 0.659320 0.169381
H15   H     H_    0.181740 0.530917 0.538056 0.177348
H16   H     H_    0.818260 0.469079 0.461946 0.177345
N9    N     N_R   0.386100 0.070250 0.452470 -0.059633
N10   N     N_R   0.613900 0.929750 0.547530 -0.059693
N11   N     N_R   0.613900 0.070250 0.547530 -0.059474
N12   N     N_R   0.386100 0.929750 0.452470 -0.059586
N13   N     N_R   0.886100 0.570250 0.452470 -0.059106
N14   N     N_R   0.113900 0.429750 0.547530 -0.059101
N15   N     N_R   0.113900 0.570250 0.547530 -0.059943
N16   N     N_R   0.886100 0.429750 0.452470 -0.059942
C17   C     C_R   0.405930 0.803489 0.489830 -0.116036
C18   C     C_R   0.594071 0.196509 0.510169 -0.115882
C19   C     C_R   0.556883 0.837138 0.418704 -0.120130
C20   C     C_R   0.443099 0.162857 0.581285 -0.119845
C21   C     C_R   0.943107 0.337351 0.581229 -0.121869
C22   C     C_R   0.056893 0.662648 0.418771 -0.121863
C23   C     C_R   0.094131 0.303461 0.510269 -0.114596
C24   C     C_R   0.905877 0.696539 0.489763 -0.114689
H17   H     H_    0.431281 0.748368 0.509659 0.086252
H18   H     H_    0.568722 0.251631 0.490344 0.086206
H19   H     H_    0.519906 0.791464 0.362751 0.101745
H20   H     H_    0.480065 0.208540 0.637235 0.101712
H21   H     H_    0.980066 0.291761 0.637101 0.101391
H22   H     H_    0.019933 0.708237 0.362896 0.101393
H23   H     H_    0.068826 0.248325 0.490538 0.086386
H24   H     H_    0.931180 0.751677 0.509496 0.086385
N17   N     N_R   0.437800 0.869550 0.507970 -0.043338
N18   N     N_R   0.562200 0.130450 0.492030 -0.043298
N19   N     N_R   0.562200 0.869550 0.492030 -0.048559
N20   N     N_R   0.437800 0.130450 0.507970 -0.048567
N21   N     N_R   0.937800 0.369550 0.507970 -0.048573
N22   N     N_R   0.062200 0.630450 0.492030 -0.048574
N23   N     N_R   0.062200 0.369550 0.492030 -0.043141
N24   N     N_R   0.937800 0.630450 0.507970 -0.043123
C25   C     C_R   0.605331 0.193285 0.714231 -0.176795
C26   C     C_R   0.394666 0.806714 0.285772 -0.176708
C27   C     C_R   0.416814 0.168906 0.272987 -0.127572
C28   C     C_R   0.583188 0.831093 0.727013 -0.127734
C29   C     C_R   0.082135 0.668613 0.726302 -0.127182
C30   C     C_R   0.917864 0.331386 0.273698 -0.127187
C31   C     C_R   0.894648 0.693355 0.286387 -0.177220
C32   C     C_R   0.105351 0.306646 0.713616 -0.177239
H25   H     H_    0.581307 0.250084 0.686345 0.101630
H26   H     H_    0.418687 0.749913 0.313660 0.101602
H27   H     H_    0.447184 0.219399 0.291747 0.110651
H28   H     H_    0.552818 0.780599 0.708254 0.110667
H29   H     H_    0.052220 0.719629 0.707498 0.110556
H30   H     H_    0.947780 0.280370 0.292502 0.110580
H31   H     H_    0.919078 0.749988 0.313996 0.101698
H32   H     H_    0.080922 0.250012 0.686007 0.101691
N25   N     N_R   0.573690 0.128980 0.653840 -0.036962
N26   N     N_R   0.426310 0.871020 0.346160 -0.036912
N27   N     N_R   0.426310 0.128980 0.346160 -0.044403
N28   N     N_R   0.573690 0.871020 0.653840 -0.044386
N29   N     N_R   0.073690 0.628980 0.653840 -0.044748
N30   N     N_R   0.926310 0.371020 0.346160 -0.044753
N31   N     N_R   0.926310 0.628980 0.346160 -0.036845
N32   N     N_R   0.073690 0.371020 0.653840 -0.036845
C33   C     C_R   0.641996 0.862718 0.830044 0.043485
C34   C     C_R   0.358007 0.137280 0.169957 0.043556
C35   C     C_R   0.323851 0.823825 0.192080 0.058469
C36   C     C_R   0.676146 0.176174 0.807921 0.058511
C37   C     C_R   0.176288 0.323614 0.806888 0.059378
C38   C     C_R   0.823711 0.676388 0.193117 0.059367
C39   C     C_R   0.859831 0.363558 0.170709 0.044694
C40   C     C_R   0.140165 0.636439 0.829290 0.044686
C41   C     C_R   0.397195 0.124010 0.577051 0.084733
C42   C     C_R   0.602775 0.875977 0.422917 0.085082
C43   C     C_R   0.666604 0.182900 0.581559 0.100739
C44   C     C_R   0.333396 0.817095 0.418431 0.100877
C45   C     C_R   0.833333 0.682860 0.418330 0.100484
C46   C     C_R   0.166667 0.317143 0.581736 0.100511
C47   C     C_R   0.102833 0.623742 0.423024 0.085107
C48   C     C_R   0.897168 0.376256 0.576976 0.085107
Ni1   Ni    Ni4+2 0.616560 0.000000 0.627280 0.242659
Ni2   Ni    Ni4+2 0.383440 0.000000 0.372720 0.242691
Ni3   Ni    Ni4+2 0.116560 0.500000 0.627280 0.242698
Ni4   Ni    Ni4+2 0.883440 0.500000 0.372720 0.242697
Ni5   Ni    Ni4+2 0.497990 0.870580 0.500000 0.213923
Ni6   Ni    Ni4+2 0.502010 0.129420 0.500000 0.213949
Ni7   Ni    Ni4+2 0.997990 0.370580 0.500000 0.213645
Ni8   Ni    Ni4+2 0.002010 0.629420 0.500000 0.213655
C49   C     C_3   0.708871 0.273285 0.946179 -0.146113
C50   C     C_3   0.291140 0.726678 0.053859 -0.146118
C51   C     C_3   0.334673 0.221009 0.019113 -0.098523
C52   C     C_3   0.665332 0.779010 0.980906 -0.098591
C53   C     C_3   0.163778 0.724063 0.978325 -0.098143
C54   C     C_3   0.836205 0.275972 0.021634 -0.098115
C55   C     C_3   0.791304 0.769842 0.052793 -0.144857
C56   C     C_3   0.208691 0.230140 0.947196 -0.144856
C57   C     C_3   0.236985 0.699494 0.096924 -0.126969
C58   C     C_3   0.762979 0.300530 0.903051 -0.127045
C59   C     C_3   0.718185 0.745301 0.937410 -0.160841
C60   C     C_3   0.281801 0.254685 0.062585 -0.160868
C61   C     C_3   0.780817 0.247998 0.062279 -0.157624
C62   C     C_3   0.219212 0.751976 0.937743 -0.157560
C63   C     C_3   0.260288 0.197210 0.901263 -0.131697
C64   C     C_3   0.739726 0.802805 0.098750 -0.131704
H33   H     H_    0.245785 0.680033 0.165048 0.130392
H34   H     H_    0.754151 0.320011 0.834907 0.130380
H35   H     H_    0.708938 0.722325 0.869909 0.128671
H36   H     H_    0.291038 0.277649 0.130079 0.128689
H37   H     H_    0.788558 0.227032 0.128911 0.128814
H38   H     H_    0.211498 0.772920 0.871129 0.128825
H39   H     H_    0.250009 0.175725 0.832281 0.129605
H40   H     H_    0.750016 0.824300 0.167740 0.129583
H41   H     H_    0.655957 0.271001 0.914053 0.122681
H42   H     H_    0.344065 0.728932 0.086017 0.122686
H43   H     H_    0.387323 0.215565 0.050905 0.141207
H44   H     H_    0.612686 0.784469 0.949125 0.141166
H45   H     H_    0.110564 0.721293 0.945115 0.141882
H46   H     H_    0.889408 0.278772 0.054812 0.141895
H47   H     H_    0.843654 0.764910 0.083475 0.122789
H48   H     H_    0.156336 0.235057 0.916501 0.122794
C65   C     C_3   0.271281 0.771212 0.101583 0.173997
C66   C     C_3   0.728716 0.228787 0.898415 0.174002
C67   C     C_3   0.685796 0.819738 0.931994 0.150777
C68   C     C_3   0.314206 0.180261 0.068009 0.150732
C69   C     C_3   0.815712 0.320173 0.068736 0.149131
C70   C     C_3   0.184284 0.679826 0.931262 0.149121
C71   C     C_3   0.228480 0.271236 0.897602 0.174389
C72   C     C_3   0.771518 0.728765 0.102403 0.174397
C73   C     C_3   0.743861 0.345832 0.952787 -0.174034
C74   C     C_3   0.256116 0.654156 0.047226 -0.174064
C75   C     C_3   0.301521 0.296045 0.012596 -0.139086
C76   C     C_3   0.698469 0.703960 0.987415 -0.139069
C77   C     C_3   0.199415 0.796769 0.985833 -0.141723
C78   C     C_3   0.800601 0.203241 0.014150 -0.141677
C79   C     C_3   0.758812 0.844634 0.047217 -0.172250
C80   C     C_3   0.241199 0.155361 0.952780 -0.172246
H49   H     H_    0.721678 0.405206 0.929214 0.119090
H50   H     H_    0.278281 0.594772 0.070808 0.119099
H51   H     H_    0.325524 0.354495 0.036005 0.129113
H52   H     H_    0.674456 0.645514 0.964012 0.129109
H53   H     H_    0.176917 0.856014 0.961697 0.126572
H54   H     H_    0.823116 0.144005 0.038273 0.126609
H55   H     H_    0.782576 0.903193 0.070287 0.118626
H56   H     H_    0.217444 0.096798 0.929705 0.118633
C81   C     C_R   0.610420 0.859288 0.351123 -0.001009
C82   C     C_R   0.389498 0.140707 0.648780 -0.001681
C83   C     C_R   0.277622 0.756309 0.363421 -0.026089
C84   C     C_R   0.722378 0.243685 0.636572 -0.026107
C85   C     C_R   0.222527 0.256465 0.637094 -0.024673
C86   C     C_R   0.777490 0.743544 0.363028 -0.024677
C87   C     C_R   0.889365 0.359611 0.648525 -0.000947
C88   C     C_R   0.110636 0.640386 0.351477 -0.000947
C89   C     C_R   0.402501 0.241818 0.755632 -0.106444
C90   C     C_R   0.597493 0.758147 0.244397 -0.106502
C91   C     C_R   0.742298 0.375018 0.618325 -0.112779
C92   C     C_R   0.257704 0.624977 0.381676 -0.112769
C93   C     C_R   0.757358 0.874950 0.381120 -0.113055
C94   C     C_R   0.242604 0.125081 0.618891 -0.112665
C95   C     C_R   0.097700 0.741404 0.245033 -0.106537
C96   C     C_R   0.902301 0.258591 0.754966 -0.106533
C97   C     C_R   0.428630 0.202489 0.724255 -0.214913
C98   C     C_R   0.571342 0.797455 0.275744 -0.215178
C99   C     C_R   0.700370 0.321152 0.606928 -0.244281
C100  C     C_R   0.299631 0.678843 0.393069 -0.244314
C101  C     C_R   0.799412 0.821081 0.392676 -0.244160
C102  C     C_R   0.200595 0.178933 0.607451 -0.244317
C103  C     C_R   0.071513 0.702059 0.276160 -0.215533
C104  C     C_R   0.928489 0.297937 0.723840 -0.215536
C105  C     C_R   0.335439 0.105820 0.630597 0.292197
C106  C     C_R   0.664403 0.894254 0.369185 0.291861
C107  C     C_R   0.795078 0.226158 0.704170 0.310110
C108  C     C_R   0.204923 0.773836 0.295827 0.310051
C109  C     C_R   0.704770 0.725883 0.295209 0.310533
C110  C     C_R   0.295246 0.274120 0.704886 0.310509
C111  C     C_R   0.164777 0.605584 0.369721 0.292012
C112  C     C_R   0.835226 0.394412 0.630282 0.292017
C113  C     C_R   0.305139 0.149215 0.654200 -0.018003
C114  C     C_R   0.694802 0.850826 0.345759 -0.018285
C115  C     C_R   0.835054 0.278576 0.707018 -0.020473
C116  C     C_R   0.164947 0.721419 0.292981 -0.020465
C117  C     C_R   0.664703 0.778285 0.292322 -0.020811
C118  C     C_R   0.335288 0.221717 0.707717 -0.020969
C119  C     C_R   0.195137 0.649010 0.346370 -0.018252
C120  C     C_R   0.804865 0.350985 0.653631 -0.018256
H57   H     H_    0.523799 0.774647 0.247736 0.135609
H58   H     H_    0.476204 0.225246 0.752317 0.135575
H59   H     H_    0.351577 0.659947 0.433094 0.138352
H60   H     H_    0.648424 0.340048 0.566901 0.138346
H61   H     H_    0.148630 0.159982 0.567297 0.138182
H62   H     H_    0.851389 0.840032 0.432877 0.138166
H63   H     H_    0.976129 0.275277 0.751993 0.135456
H64   H     H_    0.023872 0.724720 0.248007 0.135458
H65   H     H_    0.778279 0.932791 0.410759 0.186609
H66   H     H_    0.221665 0.067248 0.589189 0.186486
H67   H     H_    0.068621 0.791808 0.193205 0.187568
H68   H     H_    0.931381 0.208187 0.806794 0.187574
H69   H     H_    0.431572 0.292301 0.807579 0.187712
H70   H     H_    0.568457 0.707636 0.192501 0.187767
H71   H     H_    0.721302 0.432783 0.588696 0.186507
H72   H     H_    0.278701 0.567213 0.411308 0.186511
N33   N     N_R   0.689053 0.971086 0.413112 0.210692
O1    O     O_R   0.642762 0.027151 0.364508 -0.400550
O2    O     O_R   0.755998 0.983984 0.507293 -0.398432
N34   N     N_R   0.310457 0.029159 0.586110 0.210387
O3    O     O_R   0.243511 0.016668 0.491624 -0.398164
O4    O     O_R   0.356405 0.972667 0.635118 -0.400294
N35   N     N_R   0.172707 0.844136 0.233712 0.208198
O5    O     O_R   0.151964 0.896396 0.257315 -0.378953
O6    O     O_R   0.167216 0.857458 0.156497 -0.439860
N36   N     N_R   0.827293 0.155860 0.766290 0.208204
O7    O     O_R   0.832757 0.142531 0.843476 -0.439880
O8    O     O_R   0.848043 0.103600 0.742699 -0.379206
N37   N     N_R   0.327390 0.344533 0.767153 0.208308
O9    O     O_R   0.348314 0.396695 0.743927 -0.379711
O10   O     O_R   0.332506 0.358117 0.843979 -0.440145
N38   N     N_R   0.672640 0.655467 0.232948 0.208269
O11   O     O_R   0.667494 0.641910 0.156085 -0.440123
O12   O     O_R   0.651743 0.603284 0.256198 -0.379734
N39   N     N_R   0.810377 0.471086 0.586259 0.210601
O13   O     O_R   0.856484 0.527408 0.635043 -0.400542
O14   O     O_R   0.743438 0.483603 0.491919 -0.398492
N40   N     N_R   0.189627 0.528911 0.413747 0.210604
O15   O     O_R   0.256566 0.516396 0.508087 -0.398506
O16   O     O_R   0.143520 0.472589 0.364968 -0.400515

loop_
_geom_bond_atom_site_label_1
_geom_bond_atom_site_label_2
_geom_bond_distance
_ccdc_geom_bond_type
C45   C86   1.486881 S    
C25   C36   1.367943 A    
C40   C70   1.445010 S    
C43   C84   1.487082 S    
C2    N2    1.332219 A    
N6    N31   1.383086 A    
N32   Ni7   1.852365 S    
C64   C79   1.549743 S    
N35   O5    1.301881 A    
C41   C82   1.484476 S    
N5    Ni3   1.804609 S    
C84   C107  1.414092 A    
C21   N21   1.336068 A    
C10   C42   1.398531 A    
C31   H31   1.081858 S    
N1    Ni1   1.804609 S    
N39   O13   1.301244 A    
N15   N22   1.421040 A    
C107  N36   1.432888 S    
C9    N9    1.340635 A    
N34   O3    1.302093 A    
N15   Ni3   1.843505 S    
C52   H44   1.109901 S    
C10   N10   1.340764 A    
C88   C111  1.413970 A    
C17   N17   1.332022 A    
N14   Ni3   1.839528 S    
C14   C46   1.393312 A    
N2    N27   1.383086 A    
C72   C76   1.529975 S    
C13   C45   1.393382 A    
C37   C71   1.441211 S    
C94   C113  1.398933 A    
C95   C103  1.384591 A    
C93   C114  1.398961 A    
C19   C42   1.393934 A    
N4    Ni1   1.800601 S    
N39   O14   1.301953 A    
C6    H6    1.080984 S    
C51   C75   1.546957 S    
C54   C58   1.556310 S    
C36   C66   1.441702 S    
C6    N6    1.331122 A    
C90   C117  1.399584 A    
C32   H32   1.081857 S    
C17   H17   1.078751 S    
C89   C118  1.399587 A    
C14   H14   1.072613 S    
C105  C113  1.408531 A    
C74   H50   1.109968 S    
C47   C88   1.484610 S    
C50   C62   1.531842 S    
N40   O16   1.301245 A    
C59   H35   1.110912 S    
C20   H20   1.075844 S    
N20   Ni6   1.892944 S    
N7    Ni4   1.800600 S    
C50   H42   1.110703 S    
C21   H21   1.075783 S    
C56   H48   1.110733 S    
C46   C85   1.486970 S    
C67   C79   1.531674 S    
C24   N24   1.332350 A    
C23   H23   1.078764 S    
C96   C104  1.384591 A    
N36   O8    1.301882 A    
C63   C80   1.549725 S    
C24   H24   1.078765 S    
C31   C38   1.367365 A    
C3    N3    1.330736 A    
C58   H34   1.110025 S    
N29   Ni8   1.852998 S    
C32   N32   1.331779 A    
C75   H51   1.109928 S    
N33   O1    1.301244 A    
N9    Ni2   1.839527 S    
C42   C81   1.484421 S    
C5    H5    1.080984 S    
C20   N20   1.336378 A    
C27   N27   1.330255 A    
C95   C116  1.399542 A    
N16   Ni4   1.843506 S    
C55   H47   1.110748 S    
C110  C118  1.407046 A    
N6    Ni4   1.804606 S    
C115  C120  1.417215 A    
C109  C117  1.407030 A    
C6    C38   1.365784 A    
C8    H8    1.078979 S    
C15   N15   1.340955 A    
N37   O9    1.301893 A    
C10   H10   1.070472 S    
N13   N24   1.420257 A    
C87   C112  1.413965 A    
C16   N16   1.340959 A    
C107  C115  1.407143 A    
N12   N17   1.421041 A    
C86   C101  1.407016 A    
C106  C114  1.408738 A    
C108  N35   1.432880 S    
C85   C102  1.406971 A    
C56   C60   1.531921 S    
C25   H25   1.081896 S    
C99   H60   1.078776 S    
C92   C119  1.398889 A    
N38   O12   1.301897 A    
N9    N20   1.420257 A    
N22   Ni8   1.781462 S    
C51   C68   1.530996 S    
N16   N21   1.421041 A    
C97   H58   1.079788 S    
C82   C97   1.405673 A    
C34   C68   1.444627 S    
C28   H28   1.081565 S    
C78   H54   1.109970 S    
C63   C71   1.531292 S    
C49   C66   1.529237 S    
C52   C64   1.556161 S    
N34   O4    1.301804 A    
C9    C41   1.398437 A    
C18   H18   1.078749 S    
N26   Ni5   1.853000 S    
C110  N37   1.432949 S    
C1    H1    1.078867 S    
N35   O6    1.301160 A    
C101  H62   1.078810 S    
C81   C98   1.405605 A    
C1    C33   1.379165 A    
C49   H41   1.110693 S    
C53   C70   1.530850 S    
C39   C69   1.445008 S    
C105  N34   1.435911 S    
C7    H7    1.078978 S    
C22   H22   1.075784 S    
N3    Ni2   1.800600 S    
C11   H11   1.072637 S    
C28   C33   1.379169 A    
N21   Ni7   1.781463 S    
C27   C34   1.379168 A    
C15   C47   1.398976 A    
C44   C83   1.487087 S    
C13   N13   1.340273 A    
C112  N39   1.435962 S    
C4    N4    1.330728 A    
C68   C80   1.531657 S    
C53   C77   1.546550 S    
N28   Ni5   1.852365 S    
C25   N25   1.332059 A    
C96   C115  1.399543 A    
C31   N31   1.331778 A    
N40   O15   1.301954 A    
C3    C35   1.365766 A    
C62   H38   1.110956 S    
C8    C40   1.380858 A    
N30   Ni7   1.853000 S    
N10   Ni1   1.839528 S    
C22   N22   1.336070 A    
C116  C119  1.417214 A    
C11   C43   1.393807 A    
C98   H57   1.079777 S    
C88   C103  1.405705 A    
C49   C73   1.540282 S    
C108  C116  1.407144 A    
C111  C119  1.408797 A    
N36   O7    1.301174 A    
N27   Ni6   1.852367 S    
C5    N5    1.331123 A    
C58   C66   1.531490 S    
C19   N19   1.336297 A    
N25   Ni6   1.852998 S    
C111  N40   1.435965 S    
N33   O2    1.301950 A    
C92   C100  1.385009 A    
N14   N23   1.420256 A    
C84   C99   1.407103 A    
C53   H45   1.109895 S    
C28   N28   1.330258 A    
C58   C73   1.550085 S    
C55   C79   1.539763 S    
C62   C70   1.534587 S    
C51   H43   1.109882 S    
C20   C41   1.394078 A    
C102  H61   1.078807 S    
N24   Ni8   1.892944 S    
N37   O10   1.301147 A    
C23   C46   1.385141 A    
C19   H19   1.075826 S    
N10   N19   1.420256 A    
C13   H13   1.072596 S    
C50   C65   1.529254 S    
C71   C75   1.529959 S    
C76   H52   1.109946 S    
C4    H4    1.080945 S    
C91   C120  1.398885 A    
C62   C77   1.535642 S    
C38   C72   1.441208 S    
N19   Ni5   1.892943 S    
C65   C77   1.530061 S    
C69   C73   1.531855 S    
C24   C45   1.385397 A    
C100  H59   1.078777 S    
N1    N28   1.383083 A    
N2    Ni2   1.804606 S    
C94   C102  1.384931 A    
C79   H55   1.109945 S    
C30   N30   1.330079 A    
C26   H26   1.081896 S    
C54   C69   1.530837 S    
C93   C101  1.385061 A    
C80   H56   1.109926 S    
C11   N11   1.340514 A    
C48   C87   1.484609 S    
C16   H16   1.070465 S    
C95   H67   1.080966 S    
C16   C48   1.398979 A    
C91   C99   1.385002 A    
C30   C39   1.380521 A    
C94   H66   1.080269 S    
C104  H63   1.079766 S    
C61   H37   1.110946 S    
C91   H71   1.080224 S    
C90   C98   1.384567 A    
N23   Ni7   1.892943 S    
C93   H65   1.080186 S    
C87   C104  1.405706 A    
C89   C97   1.384662 A    
C54   C78   1.546541 S    
C109  N38   1.432950 S    
C18   N18   1.332013 A    
C26   C35   1.367938 A    
C90   H70   1.080929 S    
N5    N32   1.383083 A    
C21   C48   1.393963 A    
N31   Ni8   1.852367 S    
C60   H36   1.110898 S    
C114  C117  1.417235 A    
C89   H69   1.080935 S    
N4    N25   1.383849 A    
C1    N1    1.332216 A    
C113  C118  1.417108 A    
C50   C74   1.540301 S    
C5    C37   1.365787 A    
C14   N14   1.340262 A    
C32   C37   1.367365 A    
C12   H12   1.072637 S    
C86   C109  1.414102 A    
C15   H15   1.070470 S    
C26   N26   1.332069 A    
C55   C59   1.531935 S    
C4    C36   1.365767 A    
C85   C110  1.414156 A    
C52   C67   1.531014 S    
C60   C75   1.536157 S    
C73   H49   1.109958 S    
C64   H40   1.110071 S    
N3    N26   1.383852 A    
C92   H72   1.080224 S    
N8    N29   1.383849 A    
N11   Ni1   1.843505 S    
C106  N33   1.436044 S    
C57   C65   1.531507 S    
C54   H46   1.109885 S    
N13   Ni4   1.839527 S    
C27   H27   1.081564 S    
C18   C43   1.385241 A    
C59   C76   1.536180 S    
C12   C44   1.393794 A    
N11   N18   1.421040 A    
C7    N7    1.332549 A    
C35   C65   1.441716 S    
C29   N29   1.330081 A    
C63   H39   1.110050 S    
C8    N8    1.332553 A    
C12   N12   1.340524 A    
C22   C47   1.393973 A    
C61   C69   1.534575 S    
C33   C67   1.444630 S    
C60   C68   1.534088 S    
N12   Ni2   1.843506 S    
C17   C44   1.385235 A    
C83   C100  1.407103 A    
C3    H3    1.080945 S    
C70   C74   1.531865 S    
C29   H29   1.081538 S    
C64   C72   1.531310 S    
N7    N30   1.383852 A    
C53   C57   1.556322 S    
C96   H68   1.080964 S    
C59   C67   1.534108 S    
C57   H33   1.110034 S    
C83   C108  1.414095 A    
C2    C34   1.379168 A    
N8    Ni3   1.800601 S    
C112  C120  1.408793 A    
C30   H30   1.081541 S    
N18   Ni6   1.781462 S    
C82   C105  1.414044 A    
C51   C63   1.556143 S    
C56   C80   1.539745 S    
N17   Ni5   1.781463 S    
C81   C106  1.413983 A    
C66   C78   1.530049 S    
C29   C40   1.380518 A    
C7    C39   1.380853 A    
C103  H64   1.079763 S    
C49   C61   1.531828 S    
C61   C78   1.535635 S    
C57   C74   1.550105 S    
C77   H53   1.109980 S    
C55   C72   1.529509 S    
C23   N23   1.332310 A    
N38   O11   1.301150 A    
C56   C71   1.529487 S    
C9    H9    1.070313 S    
C52   C76   1.546979 S    
C2    H2    1.078866 S    
