data_mof_unit_17005.cif
_audit_creation_date              2012-12-11T14:24:54-0500
_audit_creation_method            fapswitch 2.2
_symmetry_space_group_name_H-M    P1
_symmetry_Int_Tables_number       1
_space_group_crystal_system       triclinic
_cell_length_a                    18.918056
_cell_length_b                    11.088583
_cell_length_c                    18.667297
_cell_angle_alpha                 89.687522
_cell_angle_beta                  91.922404
_cell_angle_gamma                 90.104293
_cell_volume                      3913.6542313

loop_
_atom_site_label
_atom_site_type_symbol
_atom_type_description
_atom_site_fract_x
_atom_site_fract_y
_atom_site_fract_z
_atom_type_partial_charge
C1    C     C_R   0.729138 0.373531 0.144953 0.527857
C2    C     C_R   0.240916 0.893714 0.067965 0.002079
C3    C     C_R   0.657113 0.602481 0.400479 -0.085038
C4    C     C_R   0.847264 0.209157 0.593838 -0.071713
C5    C     C_R   0.089122 0.103243 0.425851 -0.088789
C6    C     C_R   0.346872 0.709286 0.593964 -0.071755
C7    C     C_R   0.589399 0.603851 0.425646 -0.088802
C8    C     C_R   0.863358 0.217001 0.522309 -0.103156
C9    C     C_R   0.077378 0.063399 0.495319 -0.103679
C10   C     C_R   0.363019 0.717247 0.522458 -0.103057
C11   C     C_R   0.577549 0.564051 0.495105 -0.103374
C12   C     C_R   0.823659 0.156530 0.469807 -0.057389
C13   C     C_R   0.251736 0.407334 0.927402 -0.001904
C14   C     C_R   0.133737 0.029213 0.540707 -0.112208
C15   C     C_R   0.323452 0.656686 0.469893 -0.057719
C16   C     C_R   0.633834 0.529772 0.540562 -0.112218
C17   C     C_R   0.734085 0.997099 0.439912 0.023735
C18   C     C_R   0.265843 0.002591 0.556765 -0.001524
C19   C     C_R   0.234141 0.496922 0.439881 0.023927
C20   C     C_R   0.765890 0.502634 0.556744 -0.001498
C21   C     C_R   0.734880 0.391247 0.348030 0.527730
C22   C     C_R   0.266653 0.382807 0.648645 0.549814
C23   C     C_R   0.234866 0.891255 0.348031 0.528484
C24   C     C_R   0.742490 0.398411 0.069156 -0.002904
C25   C     C_R   0.766636 0.882884 0.648674 0.549487
C26   C     C_R   0.532245 0.156106 0.353086 0.571001
C27   C     C_R   0.467633 0.159774 0.647127 0.555849
C28   C     C_R   0.032279 0.656087 0.353104 0.571057
C29   C     C_R   0.967604 0.659790 0.647115 0.555826
C30   C     C_R   0.728810 0.023355 0.363619 0.562409
C31   C     C_R   0.270262 0.020806 0.635373 0.566502
C32   C     C_R   0.228819 0.523322 0.363619 0.562223
C33   C     C_R   0.770269 0.520814 0.635369 0.566705
C34   C     C_3   0.482372 0.273778 0.978343 -0.114424
C35   C     C_R   0.696846 0.850161 0.964861 0.020761
C36   C     C_3   0.436585 0.233728 0.041677 -0.135092
C37   C     C_3   0.025636 0.723796 0.966152 -0.115870
C38   C     C_3   0.982250 0.776772 0.027368 -0.119597
C39   C     C_3   0.546004 0.202471 0.010684 -0.122526
C40   C     C_3   0.412866 0.119690 0.999421 -0.132673
C41   C     C_3   0.043743 0.611915 0.012419 -0.107784
C42   C     C_3   0.915107 0.710923 0.997628 -0.135869
C43   C     C_3   0.499892 0.162493 0.072569 0.045024
C44   C     C_3   0.459313 0.159280 0.937694 0.055264
C45   C     C_3   0.999908 0.664262 0.072718 0.051212
C46   C     C_R   0.301286 0.849627 0.032780 0.019287
C47   C     C_3   0.959222 0.657926 0.937889 0.048402
C48   C     C_R   0.198261 0.346443 0.966155 0.022424
C49   C     C_R   0.802755 0.354067 0.034066 0.019948
C50   C     C_R   0.701858 0.849214 0.040920 0.020114
C51   C     C_R   0.299458 0.845243 0.956812 0.021576
C52   C     C_R   0.203031 0.345755 0.042230 0.016338
C53   C     C_R   0.269568 0.375302 0.853884 0.524305
C54   C     C_R   0.800799 0.348830 0.958123 0.028308
C55   C     C_R   0.801819 0.986510 0.036318 -0.153963
C56   C     C_R   0.183568 0.937148 0.952884 -0.156631
C57   C     C_R   0.304418 0.479722 0.038028 -0.157612
C58   C     C_R   0.685090 0.441852 0.954148 -0.152900
C59   C     C_R   0.800155 0.981500 0.963087 -0.162948
C60   C     C_R   0.181562 0.930452 0.026267 -0.145469
C61   C     C_R   0.303287 0.474035 0.964911 -0.154474
C62   C     C_R   0.683716 0.437624 0.027538 -0.154927
C63   C     C_R   0.640097 0.786985 0.931059 -0.081167
C64   C     C_R   0.228575 0.872048 0.144359 0.532996
C65   C     C_R   0.362810 0.807473 0.069957 -0.102104
C66   C     C_R   0.141351 0.283517 0.932399 -0.078912
C67   C     C_R   0.864361 0.312729 0.071508 -0.099502
C68   C     C_R   0.098586 0.207396 0.971632 -0.131934
C69   C     C_R   0.916824 0.251874 0.035818 -0.142182
C70   C     C_R   0.597263 0.711050 0.970283 -0.127893
C71   C     C_R   0.414830 0.745777 0.034006 -0.149104
C72   C     C_R   0.606497 0.702247 0.044181 -0.131593
C73   C     C_R   0.408365 0.729877 0.960344 -0.133721
C74   C     C_R   0.107784 0.198621 0.045541 -0.128511
C75   C     C_R   0.769151 0.876339 0.853381 0.520925
C76   C     C_R   0.909781 0.233410 0.962348 -0.153860
C77   C     C_R   0.658001 0.770941 0.079509 -0.083284
C78   C     C_R   0.351898 0.780399 0.921746 -0.083280
C79   C     C_R   0.158982 0.267956 0.080899 -0.082541
C80   C     C_R   0.853164 0.283155 0.923448 -0.095367
C81   C     C_R   0.530941 0.155437 0.145181 0.550157
C82   C     C_R   0.437190 0.150981 0.861995 0.566398
C83   C     C_R   0.030945 0.655757 0.145224 0.549584
C84   C     C_R   0.937367 0.650763 0.862026 0.565545
C85   C     C_R   0.751607 0.925058 0.076150 -0.006639
C86   C     C_3   0.476719 0.048875 0.031575 -0.100955
C87   C     C_R   0.244593 0.904979 0.918016 -0.010999
C88   C     C_R   0.252827 0.421345 0.077466 -0.012910
C89   C     C_R   0.745581 0.407578 0.919081 -0.004360
C90   C     C_R   0.499135 0.177035 0.576398 -0.042203
C91   C     C_R   0.505288 0.159395 0.426367 -0.024692
C92   C     C_R   0.999115 0.677140 0.576405 -0.042224
C93   C     C_R   0.005377 0.659337 0.426402 -0.024674
C94   C     C_R   0.529023 0.075462 0.545628 -0.033211
C95   C     C_R   0.517095 0.058010 0.471951 -0.018360
C96   C     C_R   0.029240 0.575734 0.545725 -0.033289
C97   C     C_3   0.522650 0.088740 0.969253 -0.098735
C98   C     C_R   0.017363 0.558078 0.472059 -0.018367
C99   C     C_R   0.484019 0.268233 0.456610 0.236803
C100  C     C_R   0.477649 0.275713 0.531132 0.221641
C101  C     C_R   0.983910 0.768103 0.456567 0.236782
C102  C     C_R   0.977467 0.775628 0.531072 0.221465
C103  C     C_R   0.556766 0.980077 0.588345 -0.067938
C104  C     C_R   0.511318 0.938299 0.447974 -0.090332
C105  C     C_R   0.057114 0.480599 0.588546 -0.068012
C106  C     C_R   0.011739 0.438277 0.448205 -0.090311
C107  C     C_R   0.051016 0.363246 0.564233 -0.112073
C108  C     C_3   0.933505 0.598869 0.044514 -0.122276
C109  C     C_R   0.026321 0.343616 0.494669 -0.152557
C110  C     C_R   0.550540 0.862803 0.563895 -0.112442
C111  C     C_R   0.525823 0.843454 0.494305 -0.152720
C112  C     C_R   0.738588 0.938072 0.584248 0.011165
C113  C     C_R   0.260796 0.970083 0.408101 0.004926
C114  C     C_R   0.238619 0.437817 0.584184 0.011309
C115  C     C_R   0.760900 0.470077 0.408070 0.004779
C116  C     C_R   0.765443 0.049338 0.563116 0.044338
C117  C     C_R   0.210226 0.042436 0.440970 0.048848
C118  C     C_R   0.265288 0.549224 0.563113 0.044092
C119  C     C_3   0.977093 0.546174 0.983616 -0.098902
C120  C     C_R   0.710416 0.542655 0.440885 0.049102
C121  C     C_R   0.772986 0.070554 0.489443 0.043853
C122  C     C_R   0.203230 0.026858 0.514951 0.013476
C123  C     C_R   0.272871 0.570521 0.489459 0.043568
C124  C     C_R   0.703347 0.527172 0.514871 0.013546
C125  C     C_R   0.697624 0.896134 0.464581 -0.118265
C126  C     C_R   0.328351 0.979111 0.519806 -0.149202
C127  C     C_R   0.197905 0.395673 0.464471 -0.118141
C128  C     C_R   0.828393 0.478857 0.519830 -0.148950
C129  C     C_R   0.742155 0.968784 0.149003 0.554021
C130  C     C_R   0.749928 0.911550 0.925982 -0.011100
C131  C     C_R   0.257087 0.965056 0.849413 0.542352
C132  C     C_R   0.242412 0.467957 0.149450 0.550913
C133  C     C_R   0.757284 0.465478 0.849687 0.545043
C134  C     C_R   0.704167 0.862596 0.535084 -0.135467
C135  C     C_R   0.324182 0.951327 0.446171 -0.157678
C136  C     C_R   0.204439 0.362129 0.534968 -0.135421
C137  C     C_R   0.824246 0.451111 0.446187 -0.157547
C138  C     C_R   0.795554 0.129390 0.614136 -0.065220
C139  C     C_R   0.156818 0.102130 0.400630 -0.085266
C140  C     C_R   0.295228 0.629353 0.614186 -0.065620
Cl1   Cl    Cl    0.454705 0.388915 0.400519 -0.561908
Cl2   Cl    Cl    0.437811 0.407110 0.563987 -0.575920
Cl3   Cl    Cl    0.954427 0.888568 0.400395 -0.561363
Cl4   Cl    Cl    0.937308 0.906782 0.563802 -0.575933
Cr1   Cr    Cr6+3 0.772820 0.169820 0.252640 1.012240
Cr2   Cr    Cr6+3 0.383280 0.011130 0.749340 0.986139
Cr3   Cr    Cr6+3 0.116720 0.511130 0.250660 0.996640
Cr4   Cr    Cr6+3 0.883280 0.511130 0.749340 0.984951
Cr5   Cr    Cr6+3 0.227180 0.169820 0.747360 0.987136
Cr6   Cr    Cr6+3 0.272820 0.669820 0.252640 1.011761
Cr7   Cr    Cr6+3 0.727180 0.669820 0.747360 0.987440
Cr8   Cr    Cr6+3 0.615040 0.323610 0.249150 1.046215
Cr9   Cr    Cr6+3 0.384960 0.323610 0.750850 1.046812
Cr10  Cr    Cr6+3 0.115040 0.823610 0.249150 1.045496
Cr11  Cr    Cr6+3 0.884960 0.823610 0.750850 1.048253
Cr12  Cr    Cr6+3 0.616720 0.011130 0.250660 0.996030
H1    H     H_    0.601397 0.234355 0.016785 0.124701
H2    H     H_    0.012274 0.255942 0.477399 0.104886
H3    H     H_    0.562635 0.787447 0.599299 0.116270
H4    H     H_    0.511643 0.755882 0.476898 0.104906
H5    H     H_    0.668158 0.837315 0.428658 0.151460
H6    H     H_    0.378462 0.970055 0.548963 0.150812
H7    H     H_    0.168611 0.336711 0.428495 0.151192
H8    H     H_    0.878477 0.469617 0.549018 0.150775
H9    H     H_    0.784726 0.121312 0.670599 0.108861
H10   H     H_    0.164762 0.128392 0.345439 0.124803
H11   H     H_    0.284364 0.621169 0.670636 0.108820
H12   H     H_    0.357668 0.086537 0.993000 0.122098
H13   H     H_    0.665126 0.628594 0.345274 0.124790
H14   H     H_    0.684732 0.774764 0.550505 0.145152
H15   H     H_    0.367862 0.909973 0.420046 0.105402
H16   H     H_    0.185139 0.274196 0.550364 0.145054
H17   H     H_    0.867924 0.409688 0.420083 0.105315
H18   H     H_    0.876445 0.261792 0.633496 0.136010
H19   H     H_    0.045599 0.132214 0.390788 0.136432
H20   H     H_    0.375989 0.761917 0.633667 0.136252
H21   H     H_    0.545937 0.632820 0.390502 0.136203
H22   H     H_    0.903914 0.276554 0.506960 0.104580
H23   H     H_    0.097120 0.571068 0.019578 0.130425
H24   H     H_    0.024677 0.064795 0.514972 0.199559
H25   H     H_    0.403530 0.776916 0.507193 0.104964
H26   H     H_    0.524817 0.565420 0.514683 0.199647
H27   H     H_    0.837541 0.173959 0.415513 0.168433
H28   H     H_    0.120024 0.996840 0.592900 0.173702
H29   H     H_    0.337390 0.674123 0.415614 0.168444
H30   H     H_    0.620033 0.497460 0.592739 0.174003
H31   H     H_    0.484656 0.366154 0.955254 0.115381
H32   H     H_    0.402158 0.292141 0.073547 0.123741
H33   H     H_    0.063067 0.773809 0.932411 0.121593
H34   H     H_    0.861429 0.749595 0.989695 0.126864
H35   H     H_    0.984361 0.871224 0.046780 0.111173
H36   H     H_    0.476893 0.957535 0.055483 0.145795
H37   H     H_    0.558000 0.029283 0.938951 0.134003
H38   H     H_    0.895826 0.551632 0.079139 0.117339
H39   H     H_    0.976651 0.452188 0.963986 0.153550
H40   H     H_    0.842195 0.042519 0.061593 0.161830
H41   H     H_    0.138095 0.973830 0.923578 0.138126
H42   H     H_    0.345443 0.534073 0.063542 0.158943
H43   H     H_    0.639441 0.478082 0.924913 0.141522
H44   H     H_    0.627036 0.795858 0.874593 0.138813
H45   H     H_    0.574663 0.994510 0.643386 0.124829
H46   H     H_    0.372664 0.822585 0.126427 0.137742
H47   H     H_    0.128124 0.292339 0.875992 0.141253
H48   H     H_    0.873774 0.328331 0.128032 0.135336
H49   H     H_    0.841838 0.027254 0.935606 0.152820
H50   H     H_    0.132036 0.952994 0.050083 0.143289
H51   H     H_    0.345854 0.518092 0.937857 0.148367
H52   H     H_    0.634443 0.461512 0.051342 0.144952
H53   H     H_    0.059913 0.151711 0.944014 0.093314
H54   H     H_    0.961911 0.216391 0.065812 0.115337
H55   H     H_    0.558631 0.655373 0.942647 0.092845
H56   H     H_    0.488352 0.915178 0.396105 0.136859
H57   H     H_    0.459524 0.708761 0.063911 0.109172
H58   H     H_    0.075541 0.137208 0.075679 0.098191
H59   H     H_    0.947431 0.179611 0.934836 0.102312
H60   H     H_    0.574296 0.640849 0.074344 0.098849
H61   H     H_    0.445865 0.676148 0.932562 0.097570
H62   H     H_    0.665029 0.758007 0.136750 0.129575
H63   H     H_    0.347791 0.762763 0.864820 0.127973
H64   H     H_    0.165774 0.255841 0.138236 0.129852
H65   H     H_    0.848971 0.264372 0.866665 0.129828
H66   H     H_    0.074944 0.495258 0.643585 0.125063
H67   H     H_    0.988805 0.414927 0.396362 0.136858
H68   H     H_    0.063192 0.288034 0.599719 0.116411
O1    O     O_R   0.788190 0.043000 0.172520 -0.512701
O2    O     O_R   0.454170 0.051610 0.669840 -0.541603
O3    O     O_R   0.045830 0.551610 0.330160 -0.552227
O4    O     O_R   0.954170 0.551610 0.669840 -0.541107
O5    O     O_R   0.681920 0.959720 0.327070 -0.514409
O6    O     O_R   0.318080 0.959720 0.672930 -0.515788
O7    O     O_R   0.181920 0.459720 0.327070 -0.514513
O8    O     O_R   0.818080 0.459720 0.672930 -0.515524
O9    O     O_3   0.668190 0.168190 0.250820 -0.275446
O10   O     O_3   0.331810 0.168190 0.749180 -0.283642
O11   O     O_3   0.168190 0.668190 0.250820 -0.275862
O12   O     O_R   0.211810 0.043000 0.827480 -0.514963
O13   O     O_3   0.831810 0.668190 0.749180 -0.283368
O14   O     O_R   0.766240 0.292300 0.176860 -0.514640
O15   O     O_R   0.233760 0.292300 0.823140 -0.518056
O16   O     O_R   0.266240 0.792300 0.176860 -0.514950
O17   O     O_R   0.733760 0.792300 0.823140 -0.517255
O18   O     O_R   0.670310 0.409160 0.168720 -0.532254
O19   O     O_R   0.329690 0.409160 0.831280 -0.540520
O20   O     O_R   0.170310 0.909160 0.168720 -0.532831
O21   O     O_R   0.829690 0.909160 0.831280 -0.538196
O22   O     O_R   0.556160 0.251900 0.173380 -0.497799
O23   O     O_R   0.288190 0.543000 0.172520 -0.513072
O24   O     O_R   0.443840 0.251900 0.826620 -0.507228
O25   O     O_R   0.056160 0.751900 0.173380 -0.500252
O26   O     O_R   0.943840 0.751900 0.826620 -0.504415
O27   O     O_R   0.545410 0.050140 0.168240 -0.525571
O28   O     O_R   0.454590 0.050140 0.831760 -0.522699
O29   O     O_R   0.045410 0.550140 0.168240 -0.519702
O30   O     O_R   0.954590 0.550140 0.831760 -0.525447
O31   O     O_R   0.681530 0.958350 0.176970 -0.503525
O32   O     O_R   0.318470 0.958350 0.823030 -0.519698
O33   O     O_R   0.181530 0.458350 0.176970 -0.504728
O34   O     O_R   0.711810 0.543000 0.827480 -0.514690
O35   O     O_R   0.818470 0.458350 0.823030 -0.520512
O36   O     O_R   0.788610 0.044480 0.334450 -0.483693
O37   O     O_R   0.211390 0.044480 0.665550 -0.535164
O38   O     O_R   0.288610 0.544480 0.334450 -0.484161
O39   O     O_R   0.711390 0.544480 0.665550 -0.534873
O40   O     O_R   0.766630 0.293670 0.326970 -0.541381
O41   O     O_R   0.233370 0.293670 0.673030 -0.537146
O42   O     O_R   0.266630 0.793670 0.326970 -0.541017
O43   O     O_R   0.733370 0.793670 0.673030 -0.537425
O44   O     O_R   0.670730 0.410640 0.330640 -0.501497
O45   O     O_R   0.556550 0.253260 0.323480 -0.438223
O46   O     O_R   0.329270 0.410640 0.669360 -0.452423
O47   O     O_R   0.170730 0.910640 0.330640 -0.501624
O48   O     O_R   0.829270 0.910640 0.669360 -0.452478
O49   O     O_R   0.443450 0.253260 0.676520 -0.433992
O50   O     O_R   0.056550 0.753260 0.323480 -0.438185
O51   O     O_R   0.943450 0.753260 0.676520 -0.434475
O52   O     O_R   0.545830 0.051610 0.330160 -0.552039

loop_
_geom_bond_atom_site_label_1
_geom_bond_atom_site_label_2
_ccdc_geom_bond_type
C125  C134  A    
C29   O51   A    
C37   H33   S    
C96   C105  A    
Cr9   O24   S    
C59   C130  A    
Cr4   O30   S    
C101  C102  A    
C17   C30   S    
Cr1   O9    S    
C57   H42   S    
C5    H19   S    
C55   C59   A    
C66   C68   A    
Cr9   O46   S    
Cr4   O4    S    
C117  C122  A    
Cr5   O41   S    
C4    C8    A    
C17   C125  A    
C14   H28   S    
C53   O15   A    
Cr2   O10   S    
Cr11  O48   S    
C79   H64   S    
Cr12  O27   S    
C45   C83   S    
C2    C46   A    
C5    C9    A    
C15   H29   S    
C19   C123  A    
C72   C77   A    
C15   C123  A    
C69   C76   A    
C138  H9    S    
C30   O36   A    
C32   O38   A    
C30   O5    A    
C82   O28   A    
C38   C42   S    
C44   C82   S    
C10   C15   A    
C2    C60   A    
C77   H62   S    
C39   C97   S    
C12   H27   S    
Cr7   O17   S    
C19   C32   S    
C68   C74   A    
C105  H66   S    
C31   O6    A    
C92   C96   A    
C63   H44   S    
C7    H21   S    
C27   C90   S    
C20   C33   S    
C11   C16   A    
C87   C131  S    
Cr10  O50   S    
C86   C97   S    
C110  C111  A    
C38   C45   S    
C67   H48   S    
C45   C108  S    
C50   C85   A    
C85   C129  S    
C80   H65   S    
Cr3   O7    S    
Cr12  O5    S    
C65   H46   S    
C115  C137  A    
C104  H56   S    
C96   C98   A    
Cr10  O11   S    
C127  H7    S    
C73   C78   A    
C5    C139  A    
Cr4   O8    S    
C135  H15   S    
C90   C100  A    
C33   O8    A    
Cr6   O42   S    
Cr1   O40   S    
C13   C53   S    
C21   O44   A    
Cr12  O31   S    
C92   C102  A    
C27   O49   A    
Cr5   O10   S    
C83   O25   A    
C59   H49   S    
C140  H11   S    
C47   C119  S    
C55   H40   S    
C32   O7    A    
C4    H18   S    
C39   H1    S    
Cr1   O36   S    
C6    C140  A    
C70   H55   S    
C107  C109  A    
C108  C119  S    
C117  C139  A    
C11   H26   S    
C102  Cl4   S    
C81   O27   A    
C118  C140  A    
C68   H53   S    
C28   O3    A    
Cr5   O37   S    
C42   C47   S    
C25   O43   A    
Cr11  O26   S    
C2    C64   S    
C90   C94   A    
C116  C138  A    
Cr11  O21   S    
C128  H8    S    
Cr6   O23   S    
Cr7   O13   S    
Cr10  O20   S    
C58   H43   S    
Cr5   O12   S    
C89   C133  S    
C116  C121  A    
C12   C121  A    
C84   O26   A    
C34   C39   S    
C20   C128  A    
C53   O19   A    
C52   C88   A    
C34   C44   S    
C127  C136  A    
C46   C65   A    
Cr11  O51   S    
C3    C120  A    
C40   C86   S    
C114  C136  A    
C71   C73   A    
C76   H59   S    
Cr3   O3    S    
C131  O32   A    
C3    H13   S    
C56   C87   A    
C39   C43   S    
Cr8   O9    S    
Cr2   O2    S    
C6    C10   A    
C62   H52   S    
C65   C71   A    
Cr1   O1    S    
C46   C51   A    
Cr3   O29   S    
Cr8   O44   S    
C56   C60   A    
Cr2   O28   S    
C28   C93   S    
C36   H32   S    
C104  C111  A    
C129  O1    A    
C55   C85   A    
C139  H10   S    
C7    C11   A    
C9    C14   A    
C103  H45   S    
C93   C101  A    
Cr8   O18   S    
C37   C38   S    
C75   O17   A    
C8    H22   S    
C78   H63   S    
C23   C113  S    
C26   O45   A    
C105  C107  A    
C44   C97   S    
C42   H34   S    
C21   O40   A    
C28   O50   A    
C106  H67   S    
C100  Cl2   S    
C63   C70   A    
C40   C44   S    
Cr12  O9    S    
C8    C12   A    
C23   O47   A    
Cr1   O14   S    
C35   C50   A    
C73   H61   S    
C132  O23   A    
C47   C84   S    
C41   C119  S    
C71   H57   S    
C35   C130  A    
Cr6   O38   S    
C114  C118  A    
C9    H24   S    
C58   C62   A    
C54   C89   A    
C128  C137  A    
C113  C117  A    
C66   H47   S    
Cr7   O43   S    
C133  O34   A    
C72   H60   S    
C83   O29   A    
C126  C135  A    
C115  C120  A    
Cr6   O16   S    
C74   C79   A    
C103  C110  A    
C54   C80   A    
C84   O30   A    
C43   C81   S    
C40   H12   S    
C109  H2    S    
Cr3   O33   S    
C37   C47   S    
C126  H6    S    
C88   C132  S    
Cr4   O35   S    
C51   C87   A    
Cr10  O47   S    
C52   C79   A    
C50   C77   A    
C112  C116  A    
C36   C40   S    
C95   C104  A    
C57   C88   A    
C107  H68   S    
Cr2   O6    S    
C133  O35   A    
C17   C121  A    
C24   C49   A    
C10   H25   S    
C24   C62   A    
C49   C67   A    
Cr8   O45   S    
Cr2   O32   S    
C56   H41   S    
C43   C86   S    
Cr8   O22   S    
C81   O22   A    
C41   H23   S    
C125  H5    S    
C76   C80   A    
Cr12  O52   S    
C112  C134  A    
C26   O52   A    
C75   O21   A    
Cr6   O11   S    
C94   C103  A    
C13   C48   A    
C70   C72   A    
Cr4   O13   S    
C75   C130  S    
C27   O2    A    
C57   C61   A    
C132  O33   A    
C64   O20   A    
Cr10  O25   S    
Cr7   O39   S    
C131  O12   A    
C111  H4    S    
C18   C122  A    
C33   O39   A    
C22   C114  S    
C3    C7    A    
C21   C115  S    
C98   C106  A    
C99   C100  A    
C82   O24   A    
C31   O37   A    
C48   C66   A    
Cr9   O19   S    
C137  H17   S    
C26   C91   S    
C51   C78   A    
C1    O14   A    
C16   H30   S    
C1    C24   S    
C18   C126  A    
C23   O42   A    
C101  Cl3   S    
C22   O41   A    
C60   H50   S    
C25   C112  S    
C34   H31   S    
C6    H20   S    
C129  O31   A    
C22   O46   A    
Cr5   O15   S    
C34   C36   S    
C35   C63   A    
Cr9   O10   S    
C119  H39   S    
C118  C123  A    
C37   C41   S    
C94   C95   A    
C42   C108  S    
C58   C89   A    
C99   Cl1   S    
C86   H36   S    
C64   O16   A    
C25   O48   A    
C1    O18   A    
C67   C69   A    
C4    C138  A    
C69   H54   S    
C120  C124  A    
C48   C52   A    
C136  H16   S    
Cr11  O13   S    
C91   C95   A    
C38   H35   S    
C113  C135  A    
C97   H37   S    
C13   C61   A    
C14   C122  A    
C41   C45   S    
C36   C43   S    
Cr9   O49   S    
C18   C31   S    
C19   C127  A    
C29   O4    A    
C91   C99   A    
C16   C124  A    
C61   H51   S    
C108  H38   S    
C93   C98   A    
C29   C92   S    
C74   H58   S    
C110  H3    S    
C49   C54   A    
Cr7   O34   S    
C20   C124  A    
C134  H14   S    
C106  C109  A    
Cr3   O11   S    
