data_mof_unit_62265.cif
_audit_creation_date              2013-03-05T15:41:30-0500
_audit_creation_method            fapswitch 2.2
_symmetry_space_group_name_H-M    P1
_symmetry_Int_Tables_number       1
_space_group_crystal_system       triclinic
_cell_length_a                    43.305112
_cell_length_b                    43.305127
_cell_length_c                    43.305104
_cell_angle_alpha                 90.0
_cell_angle_beta                  90.00005
_cell_angle_gamma                 89.999936
_cell_volume                      81211.506835

loop_
_atom_site_label
_atom_site_type_symbol
_atom_site_description
_atom_site_fract_x
_atom_site_fract_y
_atom_site_fract_z
_atom_type_partial_charge
O1    O     O_R   0.253430 0.054280 0.289830 -0.570917
O2    O     O_R   0.710170 0.945720 0.253430 -0.573631
O3    O     O_R   0.746570 0.054280 0.710170 -0.570917
O4    O     O_R   0.289830 0.945720 0.746570 -0.573631
O5    O     O_R   0.253430 0.945720 0.710170 -0.570917
O6    O     O_R   0.710170 0.054280 0.746570 -0.573631
O7    O     O_R   0.746570 0.945720 0.289830 -0.570917
O8    O     O_R   0.289830 0.054280 0.253430 -0.573631
O9    O     O_R   0.054280 0.710170 0.746570 -0.570917
O10   O     O_R   0.945720 0.746570 0.289830 -0.573631
O11   O     O_R   0.054280 0.289830 0.253430 -0.570917
O12   O     O_R   0.945720 0.253430 0.710170 -0.573631
O13   O     O_R   0.945720 0.289830 0.746570 -0.570916
O14   O     O_R   0.054280 0.253430 0.289830 -0.573631
O15   O     O_R   0.945720 0.710170 0.253430 -0.570917
O16   O     O_R   0.054280 0.746570 0.710170 -0.573631
O17   O     O_R   0.710170 0.253430 0.945720 -0.570920
O18   O     O_R   0.746570 0.710170 0.054280 -0.573630
O19   O     O_R   0.289830 0.746570 0.945720 -0.570917
O20   O     O_R   0.253430 0.289830 0.054280 -0.573631
O21   O     O_R   0.289830 0.253430 0.054280 -0.570916
O22   O     O_R   0.253430 0.710170 0.945720 -0.573630
O23   O     O_R   0.710170 0.746570 0.054280 -0.570918
O24   O     O_R   0.746570 0.289830 0.945720 -0.573630
O25   O     O_R   0.753430 0.554280 0.289830 -0.570916
O26   O     O_R   0.710170 0.445720 0.753430 -0.573631
O27   O     O_R   0.246570 0.554280 0.710170 -0.570916
O28   O     O_R   0.289830 0.445720 0.246570 -0.573630
O29   O     O_R   0.753430 0.445720 0.710170 -0.570917
O30   O     O_R   0.710170 0.554280 0.246570 -0.573631
O31   O     O_R   0.246570 0.445720 0.289830 -0.570916
O32   O     O_R   0.289830 0.554280 0.753430 -0.573631
O33   O     O_R   0.554280 0.710170 0.246570 -0.570918
O34   O     O_R   0.445720 0.246570 0.289830 -0.573630
O35   O     O_R   0.554280 0.289830 0.753430 -0.570916
O36   O     O_R   0.445720 0.753430 0.710170 -0.573630
O37   O     O_R   0.445720 0.289830 0.246570 -0.570913
O38   O     O_R   0.554280 0.753430 0.289830 -0.573630
O39   O     O_R   0.445720 0.710170 0.753430 -0.570917
O40   O     O_R   0.554280 0.246570 0.710170 -0.573631
O41   O     O_R   0.710170 0.753430 0.445720 -0.570916
O42   O     O_R   0.246570 0.710170 0.554280 -0.573630
O43   O     O_R   0.289830 0.246570 0.445720 -0.570916
O44   O     O_R   0.753430 0.289830 0.554280 -0.573630
O45   O     O_R   0.289830 0.753430 0.554280 -0.570917
O46   O     O_R   0.753430 0.710170 0.445720 -0.573630
O47   O     O_R   0.710170 0.246570 0.554280 -0.570917
O48   O     O_R   0.246570 0.289830 0.445720 -0.573630
O49   O     O_R   0.753430 0.054280 0.789830 -0.570916
O50   O     O_R   0.210170 0.945720 0.753430 -0.573631
O51   O     O_R   0.246570 0.054280 0.210170 -0.570917
O52   O     O_R   0.789830 0.945720 0.246570 -0.573631
O53   O     O_R   0.753430 0.945720 0.210170 -0.570917
O54   O     O_R   0.210170 0.054280 0.246570 -0.573631
O55   O     O_R   0.246570 0.945720 0.789830 -0.570917
O56   O     O_R   0.789830 0.054280 0.753430 -0.573631
O57   O     O_R   0.054280 0.210170 0.246570 -0.570916
O58   O     O_R   0.945720 0.246570 0.789830 -0.573630
O59   O     O_R   0.054280 0.789830 0.753430 -0.570917
O60   O     O_R   0.945720 0.753430 0.210170 -0.573630
O61   O     O_R   0.945720 0.789830 0.246570 -0.570917
O62   O     O_R   0.054280 0.753430 0.789830 -0.573630
O63   O     O_R   0.945720 0.210170 0.753430 -0.570917
O64   O     O_R   0.054280 0.246570 0.210170 -0.573631
O65   O     O_R   0.210170 0.753430 0.945720 -0.570916
O66   O     O_R   0.246570 0.210170 0.054280 -0.573631
O67   O     O_R   0.789830 0.246570 0.945720 -0.570917
O68   O     O_R   0.753430 0.789830 0.054280 -0.573631
O69   O     O_R   0.789830 0.753430 0.054280 -0.570916
O70   O     O_R   0.753430 0.210170 0.945720 -0.573631
O71   O     O_R   0.210170 0.246570 0.054280 -0.570917
O72   O     O_R   0.246570 0.789830 0.945720 -0.573631
O73   O     O_R   0.253430 0.554280 0.789830 -0.570918
O74   O     O_R   0.210170 0.445720 0.253430 -0.573631
O75   O     O_R   0.746570 0.554280 0.210170 -0.570914
O76   O     O_R   0.789830 0.445720 0.746570 -0.573630
O77   O     O_R   0.253430 0.445720 0.210170 -0.570917
O78   O     O_R   0.210170 0.554280 0.746570 -0.573631
O79   O     O_R   0.746570 0.445720 0.789830 -0.570916
O80   O     O_R   0.789830 0.554280 0.253430 -0.573631
O81   O     O_R   0.554280 0.210170 0.746570 -0.570917
O82   O     O_R   0.445720 0.746570 0.789830 -0.573631
O83   O     O_R   0.554280 0.789830 0.253430 -0.570917
O84   O     O_R   0.445720 0.253430 0.210170 -0.573632
O85   O     O_R   0.445720 0.789830 0.746570 -0.570917
O86   O     O_R   0.554280 0.253430 0.789830 -0.573631
O87   O     O_R   0.445720 0.210170 0.253430 -0.570917
O88   O     O_R   0.554280 0.746570 0.210170 -0.573631
O89   O     O_R   0.210170 0.253430 0.445720 -0.570917
O90   O     O_R   0.746570 0.210170 0.554280 -0.573631
O91   O     O_R   0.789830 0.746570 0.445720 -0.570917
O92   O     O_R   0.253430 0.789830 0.554280 -0.573631
O93   O     O_R   0.789830 0.253430 0.554280 -0.570917
O94   O     O_R   0.253430 0.210170 0.445720 -0.573631
O95   O     O_R   0.210170 0.746570 0.554280 -0.570917
O96   O     O_R   0.746570 0.789830 0.445720 -0.573631
O97   O     O_R   0.208740 0.990860 0.245150 -0.574996
O98   O     O_R   0.754850 0.009140 0.208740 -0.576806
O99   O     O_R   0.791260 0.990860 0.754850 -0.574998
O100  O     O_R   0.245150 0.009140 0.791260 -0.576803
O101  O     O_R   0.208740 0.009140 0.754850 -0.574996
O102  O     O_R   0.754850 0.990860 0.791260 -0.576802
O103  O     O_R   0.791260 0.009140 0.245150 -0.574998
O104  O     O_R   0.245150 0.990860 0.208740 -0.576802
O105  O     O_R   0.990860 0.754850 0.791260 -0.574994
O106  O     O_R   0.009140 0.791260 0.245150 -0.576805
O107  O     O_R   0.990860 0.245150 0.208740 -0.575002
O108  O     O_R   0.009140 0.208740 0.754850 -0.576803
O109  O     O_R   0.009140 0.245150 0.791260 -0.574995
O110  O     O_R   0.990860 0.208740 0.245150 -0.576805
O111  O     O_R   0.009140 0.754850 0.208740 -0.574997
O112  O     O_R   0.990860 0.791260 0.754850 -0.576804
O113  O     O_R   0.754850 0.208740 0.009140 -0.574993
O114  O     O_R   0.791260 0.754850 0.990860 -0.576811
O115  O     O_R   0.245150 0.791260 0.009140 -0.575002
O116  O     O_R   0.208740 0.245150 0.990860 -0.576802
O117  O     O_R   0.245150 0.208740 0.990860 -0.574995
O118  O     O_R   0.208740 0.754850 0.009140 -0.576808
O119  O     O_R   0.754850 0.791260 0.990860 -0.575005
O120  O     O_R   0.791260 0.245150 0.009140 -0.576795
O121  O     O_R   0.708740 0.490860 0.245150 -0.575062
O122  O     O_R   0.754850 0.509140 0.708740 -0.576806
O123  O     O_R   0.291260 0.490860 0.754850 -0.574990
O124  O     O_R   0.245150 0.509140 0.291260 -0.576801
O125  O     O_R   0.708740 0.509140 0.754850 -0.574998
O126  O     O_R   0.754850 0.490860 0.291260 -0.576804
O127  O     O_R   0.291260 0.509140 0.245150 -0.574999
O128  O     O_R   0.245150 0.490860 0.708740 -0.576811
O129  O     O_R   0.490860 0.754850 0.291260 -0.574999
O130  O     O_R   0.509140 0.291260 0.245150 -0.576805
O131  O     O_R   0.490860 0.245150 0.708740 -0.574994
O132  O     O_R   0.509140 0.708740 0.754850 -0.576802
O133  O     O_R   0.509140 0.245150 0.291260 -0.574996
O134  O     O_R   0.490860 0.708740 0.245150 -0.576804
O135  O     O_R   0.509140 0.754850 0.708740 -0.574998
O136  O     O_R   0.490860 0.291260 0.754850 -0.576825
O137  O     O_R   0.754850 0.708740 0.509140 -0.574998
O138  O     O_R   0.291260 0.754850 0.490860 -0.576804
O139  O     O_R   0.245150 0.291260 0.509140 -0.574994
O140  O     O_R   0.708740 0.245150 0.490860 -0.576802
O141  O     O_R   0.245150 0.708740 0.490860 -0.575000
O142  O     O_R   0.708740 0.754850 0.509140 -0.576807
O143  O     O_R   0.754850 0.291260 0.490860 -0.574997
O144  O     O_R   0.291260 0.245150 0.509140 -0.576805
O145  O     O_R   0.708740 0.990860 0.745150 -0.574997
O146  O     O_R   0.254850 0.009140 0.708740 -0.576803
O147  O     O_R   0.291260 0.990860 0.254850 -0.574995
O148  O     O_R   0.745150 0.009140 0.291260 -0.576803
O149  O     O_R   0.708740 0.009140 0.254850 -0.574996
O150  O     O_R   0.254850 0.990860 0.291260 -0.576803
O151  O     O_R   0.291260 0.009140 0.745150 -0.574996
O152  O     O_R   0.745150 0.990860 0.708740 -0.576804
O153  O     O_R   0.990860 0.254850 0.291260 -0.574996
O154  O     O_R   0.009140 0.291260 0.745150 -0.576802
O155  O     O_R   0.990860 0.745150 0.708740 -0.574996
O156  O     O_R   0.009140 0.708740 0.254850 -0.576803
O157  O     O_R   0.009140 0.745150 0.291260 -0.574995
O158  O     O_R   0.990860 0.708740 0.745150 -0.576803
O159  O     O_R   0.009140 0.254850 0.708740 -0.574998
O160  O     O_R   0.990860 0.291260 0.254850 -0.576803
O161  O     O_R   0.254850 0.708740 0.009140 -0.574995
O162  O     O_R   0.291260 0.254850 0.990860 -0.576803
O163  O     O_R   0.745150 0.291260 0.009140 -0.574980
O164  O     O_R   0.708740 0.745150 0.990860 -0.576804
O165  O     O_R   0.745150 0.708740 0.990860 -0.574995
O166  O     O_R   0.708740 0.254850 0.009140 -0.576813
O167  O     O_R   0.254850 0.291260 0.990860 -0.575001
O168  O     O_R   0.291260 0.745150 0.009140 -0.576803
O169  O     O_R   0.208740 0.490860 0.745150 -0.575005
O170  O     O_R   0.254850 0.509140 0.208740 -0.576807
O171  O     O_R   0.791260 0.490860 0.254850 -0.574992
O172  O     O_R   0.745150 0.509140 0.791260 -0.576805
O173  O     O_R   0.208740 0.509140 0.254850 -0.574996
O174  O     O_R   0.254850 0.490860 0.791260 -0.576806
O175  O     O_R   0.791260 0.509140 0.745150 -0.575000
O176  O     O_R   0.745150 0.490860 0.208740 -0.576873
O177  O     O_R   0.490860 0.254850 0.791260 -0.575017
O178  O     O_R   0.509140 0.791260 0.745150 -0.576806
O179  O     O_R   0.490860 0.745150 0.208740 -0.574997
O180  O     O_R   0.509140 0.208740 0.254850 -0.576804
O181  O     O_R   0.509140 0.745150 0.791260 -0.574996
O182  O     O_R   0.490860 0.208740 0.745150 -0.576803
O183  O     O_R   0.509140 0.254850 0.208740 -0.575014
O184  O     O_R   0.490860 0.791260 0.254850 -0.576807
O185  O     O_R   0.254850 0.208740 0.509140 -0.574999
O186  O     O_R   0.791260 0.254850 0.490860 -0.576805
O187  O     O_R   0.745150 0.791260 0.509140 -0.575000
O188  O     O_R   0.208740 0.745150 0.490860 -0.576807
O189  O     O_R   0.745150 0.208740 0.490860 -0.574996
O190  O     O_R   0.208740 0.254850 0.509140 -0.576805
O191  O     O_R   0.254850 0.791260 0.490860 -0.574998
O192  O     O_R   0.791260 0.745150 0.509140 -0.576805
Cu1   Cu    Cu3+1 0.228540 0.022580 0.271460 1.030088
Cu2   Cu    Cu3+1 0.728540 0.977420 0.228540 1.030086
Cu3   Cu    Cu3+1 0.771460 0.022580 0.728540 1.030087
Cu4   Cu    Cu3+1 0.271460 0.977420 0.771460 1.030088
Cu5   Cu    Cu3+1 0.228540 0.977420 0.728540 1.030088
Cu6   Cu    Cu3+1 0.728540 0.022580 0.771460 1.030090
Cu7   Cu    Cu3+1 0.771460 0.977420 0.271460 1.030087
Cu8   Cu    Cu3+1 0.271460 0.022580 0.228540 1.030090
Cu9   Cu    Cu3+1 0.022580 0.728540 0.771460 1.030092
Cu10  Cu    Cu3+1 0.977420 0.771460 0.271460 1.030088
Cu11  Cu    Cu3+1 0.022580 0.271460 0.228540 1.030085
Cu12  Cu    Cu3+1 0.977420 0.228540 0.728540 1.030087
Cu13  Cu    Cu3+1 0.977420 0.271460 0.771460 1.030091
Cu14  Cu    Cu3+1 0.022580 0.228540 0.271460 1.030088
Cu15  Cu    Cu3+1 0.977420 0.728540 0.228540 1.030090
Cu16  Cu    Cu3+1 0.022580 0.771460 0.728540 1.030088
Cu17  Cu    Cu3+1 0.728540 0.228540 0.977420 1.030088
Cu18  Cu    Cu3+1 0.771460 0.728540 0.022580 1.030090
Cu19  Cu    Cu3+1 0.271460 0.771460 0.977420 1.030086
Cu20  Cu    Cu3+1 0.228540 0.271460 0.022580 1.030087
Cu21  Cu    Cu3+1 0.271460 0.228540 0.022580 1.030092
Cu22  Cu    Cu3+1 0.228540 0.728540 0.977420 1.030089
Cu23  Cu    Cu3+1 0.728540 0.771460 0.022580 1.030085
Cu24  Cu    Cu3+1 0.771460 0.271460 0.977420 1.030114
Cu25  Cu    Cu3+1 0.728540 0.522580 0.271460 1.030077
Cu26  Cu    Cu3+1 0.728540 0.477420 0.728540 1.030088
Cu27  Cu    Cu3+1 0.271460 0.522580 0.728540 1.030095
Cu28  Cu    Cu3+1 0.271460 0.477420 0.271460 1.030091
Cu29  Cu    Cu3+1 0.522580 0.728540 0.271460 1.030087
Cu30  Cu    Cu3+1 0.477420 0.271460 0.271460 1.030102
Cu31  Cu    Cu3+1 0.522580 0.271460 0.728540 1.030086
Cu32  Cu    Cu3+1 0.477420 0.728540 0.728540 1.030090
Cu33  Cu    Cu3+1 0.728540 0.728540 0.477420 1.030089
Cu34  Cu    Cu3+1 0.271460 0.728540 0.522580 1.030088
Cu35  Cu    Cu3+1 0.271460 0.271460 0.477420 1.030092
Cu36  Cu    Cu3+1 0.728540 0.271460 0.522580 1.030090
Cu37  Cu    Cu3+1 0.228540 0.522580 0.771460 1.030086
Cu38  Cu    Cu3+1 0.228540 0.477420 0.228540 1.030087
Cu39  Cu    Cu3+1 0.771460 0.522580 0.228540 1.030077
Cu40  Cu    Cu3+1 0.771460 0.477420 0.771460 1.030090
Cu41  Cu    Cu3+1 0.522580 0.228540 0.771460 1.030083
Cu42  Cu    Cu3+1 0.477420 0.771460 0.771460 1.030087
Cu43  Cu    Cu3+1 0.522580 0.771460 0.228540 1.030086
Cu44  Cu    Cu3+1 0.477420 0.228540 0.228540 1.030084
Cu45  Cu    Cu3+1 0.228540 0.228540 0.477420 1.030086
Cu46  Cu    Cu3+1 0.771460 0.228540 0.522580 1.030087
Cu47  Cu    Cu3+1 0.771460 0.771460 0.477420 1.030086
Cu48  Cu    Cu3+1 0.228540 0.771460 0.522580 1.030086
C1    C     C_R   0.221314 0.065276 0.221314 0.813926
C2    C     C_R   0.778686 0.934724 0.221314 0.813928
C3    C     C_R   0.778686 0.065276 0.778686 0.813927
C4    C     C_R   0.221314 0.934723 0.778686 0.813927
C5    C     C_R   0.065276 0.778686 0.778686 0.813925
C6    C     C_R   0.934724 0.778686 0.221314 0.813927
C7    C     C_R   0.065276 0.221314 0.221314 0.813929
C8    C     C_R   0.934724 0.221314 0.778686 0.813926
C9    C     C_R   0.778686 0.221314 0.934724 0.813922
C10   C     C_R   0.778686 0.778686 0.065276 0.813929
C11   C     C_R   0.221314 0.778686 0.934724 0.813929
C12   C     C_R   0.221314 0.221314 0.065276 0.813926
C13   C     C_R   0.721314 0.565276 0.221314 0.813947
C14   C     C_R   0.778686 0.434723 0.721314 0.813928
C15   C     C_R   0.278686 0.565276 0.778686 0.813923
C16   C     C_R   0.221314 0.434724 0.278685 0.813927
C17   C     C_R   0.721314 0.434723 0.778686 0.813927
C18   C     C_R   0.778686 0.565276 0.278685 0.813926
C19   C     C_R   0.278686 0.434723 0.221314 0.813928
C20   C     C_R   0.221314 0.565276 0.721314 0.813929
C21   C     C_R   0.565276 0.778686 0.278686 0.813928
C22   C     C_R   0.434723 0.278685 0.221314 0.813930
C23   C     C_R   0.565276 0.221314 0.721314 0.813926
C24   C     C_R   0.434724 0.721314 0.778686 0.813926
C25   C     C_R   0.434723 0.221314 0.278686 0.813925
C26   C     C_R   0.565276 0.721314 0.221314 0.813926
C27   C     C_R   0.434724 0.778686 0.721314 0.813927
C28   C     C_R   0.565276 0.278685 0.778686 0.813933
C29   C     C_R   0.778686 0.721314 0.434724 0.813926
C30   C     C_R   0.278685 0.778686 0.565276 0.813928
C31   C     C_R   0.221314 0.278686 0.434724 0.813925
C32   C     C_R   0.721314 0.221314 0.565276 0.813926
C33   C     C_R   0.221314 0.721314 0.565276 0.813928
C34   C     C_R   0.721314 0.778686 0.434724 0.813928
C35   C     C_R   0.778686 0.278686 0.565276 0.813927
C36   C     C_R   0.278685 0.221314 0.434724 0.813927
C37   C     C_R   0.721314 0.065276 0.721314 0.813926
C38   C     C_R   0.278686 0.934724 0.721314 0.813927
C39   C     C_R   0.278686 0.065276 0.278685 0.813926
C40   C     C_R   0.721314 0.934724 0.278685 0.813927
C41   C     C_R   0.065276 0.278685 0.278686 0.813926
C42   C     C_R   0.934724 0.278685 0.721314 0.813927
C43   C     C_R   0.065276 0.721314 0.721314 0.813926
C44   C     C_R   0.934724 0.721314 0.278686 0.813926
C45   C     C_R   0.278685 0.721314 0.934724 0.813925
C46   C     C_R   0.278685 0.278686 0.065276 0.813928
C47   C     C_R   0.721314 0.278686 0.934724 0.813917
C48   C     C_R   0.721314 0.721314 0.065276 0.813926
C49   C     C_R   0.280560 0.980704 0.280612 0.840338
C50   C     C_R   0.719440 0.019296 0.280612 0.840340
C51   C     C_R   0.719440 0.980704 0.719388 0.840341
C52   C     C_R   0.280560 0.019296 0.719388 0.840338
C53   C     C_R   0.980704 0.719388 0.719440 0.840339
C54   C     C_R   0.019296 0.719388 0.280560 0.840339
C55   C     C_R   0.980704 0.280612 0.280560 0.840340
C56   C     C_R   0.019296 0.280612 0.719440 0.840340
C57   C     C_R   0.719387 0.280561 0.019295 0.840349
C58   C     C_R   0.719388 0.719440 0.980704 0.840342
C59   C     C_R   0.280612 0.719440 0.019296 0.840340
C60   C     C_R   0.280612 0.280560 0.980704 0.840345
C61   C     C_R   0.780560 0.480704 0.280612 0.840381
C62   C     C_R   0.719440 0.519296 0.780612 0.840343
C63   C     C_R   0.219440 0.480704 0.719388 0.840354
C64   C     C_R   0.280560 0.519296 0.219388 0.840342
C65   C     C_R   0.780560 0.519296 0.719388 0.840346
C66   C     C_R   0.719439 0.480704 0.219387 0.840457
C67   C     C_R   0.219440 0.519296 0.280612 0.840339
C68   C     C_R   0.280560 0.480704 0.780612 0.840348
C69   C     C_R   0.480704 0.719388 0.219440 0.840340
C70   C     C_R   0.519296 0.219388 0.280560 0.840340
C71   C     C_R   0.480704 0.280612 0.780560 0.840375
C72   C     C_R   0.519296 0.780612 0.719440 0.840343
C73   C     C_R   0.519296 0.280612 0.219440 0.840369
C74   C     C_R   0.480704 0.780612 0.280560 0.840345
C75   C     C_R   0.519296 0.719388 0.780560 0.840339
C76   C     C_R   0.480704 0.219388 0.719440 0.840351
C77   C     C_R   0.719388 0.780560 0.519296 0.840347
C78   C     C_R   0.219388 0.719440 0.480704 0.840345
C79   C     C_R   0.280612 0.219440 0.519296 0.840343
C80   C     C_R   0.780612 0.280560 0.480704 0.840341
C81   C     C_R   0.280612 0.780560 0.480704 0.840343
C82   C     C_R   0.780612 0.719440 0.519296 0.840344
C83   C     C_R   0.719388 0.219440 0.480704 0.840338
C84   C     C_R   0.219388 0.280560 0.519296 0.840341
C85   C     C_R   0.780560 0.980704 0.780612 0.840341
C86   C     C_R   0.219440 0.019296 0.780612 0.840337
C87   C     C_R   0.219440 0.980704 0.219388 0.840338
C88   C     C_R   0.780560 0.019296 0.219388 0.840341
C89   C     C_R   0.980704 0.219388 0.219440 0.840343
C90   C     C_R   0.019296 0.219388 0.780560 0.840336
C91   C     C_R   0.980704 0.780612 0.780560 0.840339
C92   C     C_R   0.019296 0.780612 0.219440 0.840342
C93   C     C_R   0.219388 0.780560 0.019296 0.840348
C94   C     C_R   0.219388 0.219440 0.980704 0.840336
C95   C     C_R   0.780612 0.219440 0.019296 0.840337
C96   C     C_R   0.780612 0.780560 0.980704 0.840353
C97   C     C_R   0.382325 0.844265 0.343466 0.468292
C98   C     C_R   0.655737 0.156535 0.382324 0.468310
C99   C     C_R   0.617675 0.844265 0.656534 0.468288
C100  C     C_R   0.344264 0.156534 0.617676 0.468294
C101  C     C_R   0.382325 0.155735 0.656534 0.468301
C102  C     C_R   0.655735 0.843466 0.617675 0.468281
C103  C     C_R   0.617676 0.155736 0.343466 0.468306
C104  C     C_R   0.344264 0.843466 0.382324 0.468296
C105  C     C_R   0.844265 0.656534 0.617675 0.468290
C106  C     C_R   0.156534 0.617676 0.344263 0.468307
C107  C     C_R   0.844265 0.343466 0.382325 0.468293
C108  C     C_R   0.156533 0.382325 0.655734 0.468262
C109  C     C_R   0.155734 0.343466 0.617673 0.468290
C110  C     C_R   0.843466 0.382325 0.344265 0.468287
C111  C     C_R   0.155736 0.656534 0.382324 0.468290
C112  C     C_R   0.843466 0.617676 0.655736 0.468287
C113  C     C_R   0.656519 0.382335 0.155715 0.467945
C114  C     C_R   0.617676 0.655736 0.843466 0.468308
C115  C     C_R   0.343466 0.617676 0.155736 0.468292
C116  C     C_R   0.382327 0.344270 0.843470 0.468197
C117  C     C_R   0.343468 0.382330 0.844270 0.468269
C118  C     C_R   0.382324 0.655737 0.156534 0.468302
C119  C     C_R   0.656534 0.617676 0.844264 0.468297
C120  C     C_R   0.617669 0.344264 0.156526 0.468188
C121  C     C_R   0.882325 0.344264 0.343466 0.468304
C122  C     C_R   0.655736 0.656534 0.882325 0.468302
C123  C     C_R   0.117675 0.344263 0.656534 0.468296
C124  C     C_R   0.344264 0.656534 0.117675 0.468303
C125  C     C_R   0.882325 0.655736 0.656534 0.468301
C126  C     C_R   0.655717 0.343473 0.117657 0.468184
C127  C     C_R   0.117675 0.655735 0.343466 0.468303
C128  C     C_R   0.344263 0.343468 0.882326 0.468275
C129  C     C_R   0.656535 0.117676 0.344264 0.468308
C130  C     C_R   0.656534 0.882325 0.655736 0.468295
C131  C     C_R   0.343465 0.882325 0.344264 0.468304
C132  C     C_R   0.343466 0.117675 0.655736 0.468303
C133  C     C_R   0.882326 0.844265 0.843466 0.468296
C134  C     C_R   0.155737 0.156535 0.882324 0.468312
C135  C     C_R   0.117674 0.844265 0.156534 0.468288
C136  C     C_R   0.844263 0.156535 0.117676 0.468323
C137  C     C_R   0.882323 0.155737 0.156534 0.468293
C138  C     C_R   0.155735 0.843466 0.117676 0.468279
C139  C     C_R   0.117676 0.155737 0.843465 0.468312
C140  C     C_R   0.844266 0.843467 0.882325 0.468270
C141  C     C_R   0.156535 0.117676 0.844263 0.468312
C142  C     C_R   0.156534 0.882325 0.155736 0.468300
C143  C     C_R   0.843466 0.882324 0.844263 0.468296
C144  C     C_R   0.843466 0.117675 0.155735 0.468296
C145  C     C_R   0.432207 0.814364 0.344712 0.331142
C146  C     C_R   0.672193 0.205221 0.409182 0.326749
C147  C     C_R   0.567792 0.814365 0.655287 0.331148
C148  C     C_R   0.327813 0.205220 0.590813 0.326754
C149  C     C_R   0.432210 0.185632 0.655288 0.331141
C150  C     C_R   0.672183 0.794780 0.590811 0.326758
C151  C     C_R   0.567791 0.185633 0.344712 0.331133
C152  C     C_R   0.327811 0.794779 0.409186 0.326754
C153  C     C_R   0.814365 0.655287 0.567792 0.331145
C154  C     C_R   0.205221 0.590817 0.327807 0.326750
C155  C     C_R   0.814366 0.344712 0.432209 0.331144
C156  C     C_R   0.205219 0.409195 0.672173 0.326766
C157  C     C_R   0.185632 0.344712 0.567789 0.331152
C158  C     C_R   0.794780 0.409189 0.327816 0.326751
C159  C     C_R   0.185637 0.655287 0.432206 0.331139
C160  C     C_R   0.794780 0.590812 0.672185 0.326757
C161  C     C_R   0.655274 0.432160 0.185721 0.331256
C162  C     C_R   0.590817 0.672193 0.794779 0.326748
C163  C     C_R   0.344712 0.567793 0.185636 0.331143
C164  C     C_R   0.409213 0.327854 0.794783 0.326793
C165  C     C_R   0.344713 0.432214 0.814371 0.331176
C166  C     C_R   0.409184 0.672191 0.205221 0.326751
C167  C     C_R   0.655288 0.567792 0.814365 0.331138
C168  C     C_R   0.590801 0.327829 0.205216 0.326847
C169  C     C_R   0.932210 0.314368 0.344712 0.331135
C170  C     C_R   0.672191 0.705221 0.909184 0.326746
C171  C     C_R   0.067790 0.314367 0.655288 0.331137
C172  C     C_R   0.327808 0.705221 0.090817 0.326746
C173  C     C_R   0.932210 0.685632 0.655288 0.331139
C174  C     C_R   0.672176 0.294785 0.090803 0.326758
C175  C     C_R   0.067790 0.685631 0.344712 0.331142
C176  C     C_R   0.327812 0.294781 0.909186 0.326776
C177  C     C_R   0.314369 0.655288 0.067790 0.331139
C178  C     C_R   0.705221 0.090816 0.327808 0.326748
C179  C     C_R   0.314364 0.344713 0.932209 0.331137
C180  C     C_R   0.705220 0.909185 0.672190 0.326755
C181  C     C_R   0.685621 0.344716 0.067776 0.331268
C182  C     C_R   0.294779 0.909183 0.327807 0.326747
C183  C     C_R   0.685632 0.655288 0.932210 0.331140
C184  C     C_R   0.294779 0.090816 0.672192 0.326751
C185  C     C_R   0.655288 0.932209 0.685633 0.331142
C186  C     C_R   0.090816 0.672191 0.294779 0.326746
C187  C     C_R   0.344712 0.067791 0.685632 0.331135
C188  C     C_R   0.909183 0.327807 0.294779 0.326757
C189  C     C_R   0.344712 0.932210 0.314369 0.331138
C190  C     C_R   0.909184 0.672192 0.705221 0.326751
C191  C     C_R   0.655288 0.067790 0.314368 0.331136
C192  C     C_R   0.090816 0.327809 0.705221 0.326758
C193  C     C_R   0.932211 0.814370 0.844712 0.331149
C194  C     C_R   0.172194 0.205221 0.909182 0.326745
C195  C     C_R   0.067791 0.814366 0.155287 0.331149
C196  C     C_R   0.827800 0.205221 0.090821 0.326746
C197  C     C_R   0.932206 0.185638 0.155288 0.331132
C198  C     C_R   0.172181 0.794780 0.090810 0.326761
C199  C     C_R   0.067790 0.185631 0.844712 0.331132
C200  C     C_R   0.827824 0.794780 0.909194 0.326763
C201  C     C_R   0.814373 0.155289 0.067787 0.331133
C202  C     C_R   0.205221 0.090817 0.827807 0.326746
C203  C     C_R   0.814357 0.844713 0.932203 0.331149
C204  C     C_R   0.205221 0.909183 0.172192 0.326753
C205  C     C_R   0.185640 0.844713 0.067795 0.331142
C206  C     C_R   0.794779 0.909184 0.827810 0.326759
C207  C     C_R   0.185631 0.155288 0.932210 0.331132
C208  C     C_R   0.794779 0.090814 0.172188 0.326747
C209  C     C_R   0.155288 0.932210 0.185632 0.331138
C210  C     C_R   0.090818 0.172193 0.794779 0.326746
C211  C     C_R   0.844712 0.067792 0.185634 0.331144
C212  C     C_R   0.909184 0.827809 0.794780 0.326748
C213  C     C_R   0.844712 0.932209 0.814366 0.331136
C214  C     C_R   0.909187 0.172186 0.205221 0.326757
C215  C     C_R   0.155288 0.067790 0.814369 0.331133
C216  C     C_R   0.090813 0.827813 0.205220 0.326749
C217  C     C_R   0.432193 0.314339 0.844716 0.331174
C218  C     C_R   0.172185 0.705220 0.409188 0.326754
C219  C     C_R   0.567795 0.314351 0.155284 0.331152
C220  C     C_R   0.827813 0.705220 0.590813 0.326751
C221  C     C_R   0.432209 0.685633 0.155288 0.331135
C222  C     C_R   0.172189 0.294780 0.590814 0.326748
C223  C     C_R   0.567790 0.685631 0.844712 0.331134
C224  C     C_R   0.827812 0.294780 0.409186 0.326751
C225  C     C_R   0.314364 0.155287 0.567793 0.331138
C226  C     C_R   0.705221 0.590814 0.827813 0.326751
C227  C     C_R   0.314365 0.844712 0.432208 0.331136
C228  C     C_R   0.705207 0.409279 0.172045 0.326887
C229  C     C_R   0.685638 0.844713 0.567794 0.331143
C230  C     C_R   0.294781 0.409188 0.827813 0.326747
C231  C     C_R   0.685631 0.155288 0.432210 0.331134
C232  C     C_R   0.294779 0.590813 0.172186 0.326753
C233  C     C_R   0.155286 0.432202 0.685645 0.331149
C234  C     C_R   0.590816 0.172191 0.294779 0.326748
C235  C     C_R   0.844713 0.567793 0.685637 0.331140
C236  C     C_R   0.409187 0.827814 0.294780 0.326752
C237  C     C_R   0.844713 0.432206 0.314363 0.331141
C238  C     C_R   0.409184 0.172190 0.705221 0.326746
C239  C     C_R   0.155288 0.567790 0.314369 0.331134
C240  C     C_R   0.590813 0.827814 0.705220 0.326754
C241  C     C_R   0.320635 0.179364 0.360506 0.092486
C242  C     C_R   0.639494 0.820635 0.320636 0.092486
C243  C     C_R   0.679364 0.179364 0.639494 0.092486
C244  C     C_R   0.360506 0.820635 0.679364 0.092486
C245  C     C_R   0.320635 0.820636 0.639494 0.092486
C246  C     C_R   0.639494 0.179364 0.679364 0.092486
C247  C     C_R   0.679365 0.820636 0.360506 0.092486
C248  C     C_R   0.360506 0.179365 0.320636 0.092486
C249  C     C_R   0.179364 0.639494 0.679364 0.092486
C250  C     C_R   0.820635 0.679364 0.360506 0.092486
C251  C     C_R   0.179364 0.360506 0.320635 0.092486
C252  C     C_R   0.820635 0.320636 0.639494 0.092486
C253  C     C_R   0.820636 0.360506 0.679364 0.092486
C254  C     C_R   0.179364 0.320636 0.360506 0.092486
C255  C     C_R   0.820636 0.639494 0.320635 0.092486
C256  C     C_R   0.179365 0.679364 0.639494 0.092486
C257  C     C_R   0.639494 0.320636 0.820636 0.092486
C258  C     C_R   0.679364 0.639494 0.179364 0.092486
C259  C     C_R   0.360506 0.679364 0.820636 0.092486
C260  C     C_R   0.320636 0.360506 0.179364 0.092485
C261  C     C_R   0.360506 0.320636 0.179364 0.092486
C262  C     C_R   0.320636 0.639494 0.820635 0.092486
C263  C     C_R   0.639494 0.679364 0.179364 0.092487
C264  C     C_R   0.679364 0.360506 0.820635 0.092485
C265  C     C_R   0.820635 0.179364 0.860506 0.092486
C266  C     C_R   0.139494 0.820635 0.820636 0.092486
C267  C     C_R   0.179365 0.179364 0.139494 0.092487
C268  C     C_R   0.860506 0.820635 0.179364 0.092486
C269  C     C_R   0.820635 0.820636 0.139494 0.092486
C270  C     C_R   0.139494 0.179364 0.179364 0.092487
C271  C     C_R   0.179364 0.820636 0.860506 0.092486
C272  C     C_R   0.860506 0.179364 0.820636 0.092487
C273  C     C_R   0.179364 0.139494 0.179364 0.092486
C274  C     C_R   0.179364 0.860506 0.820635 0.092487
C275  C     C_R   0.820636 0.860506 0.179364 0.092486
C276  C     C_R   0.820636 0.139494 0.820635 0.092486
C277  C     C_R   0.320635 0.679364 0.860506 0.092486
C278  C     C_R   0.139494 0.320636 0.320636 0.092486
C279  C     C_R   0.679364 0.679364 0.139494 0.092486
C280  C     C_R   0.860506 0.320636 0.679364 0.092486
C281  C     C_R   0.320635 0.320636 0.139494 0.092486
C282  C     C_R   0.139494 0.679365 0.679364 0.092487
C283  C     C_R   0.679365 0.320636 0.860506 0.092486
C284  C     C_R   0.860506 0.679365 0.320636 0.092486
C285  C     C_R   0.679364 0.139494 0.679364 0.092486
C286  C     C_R   0.679364 0.860506 0.320635 0.092486
C287  C     C_R   0.320636 0.860506 0.679364 0.092486
C288  C     C_R   0.320636 0.139494 0.320635 0.092486
N1    N     N_R   0.369807 0.831186 0.369006 -0.296271
N2    N     N_R   0.630193 0.168815 0.369005 -0.296281
N3    N     N_R   0.630192 0.831187 0.630994 -0.296267
N4    N     N_R   0.369808 0.168813 0.630994 -0.296274
N5    N     N_R   0.831187 0.630994 0.630192 -0.296268
N6    N     N_R   0.168814 0.630994 0.369806 -0.296275
N7    N     N_R   0.831187 0.369006 0.369808 -0.296267
N8    N     N_R   0.168811 0.369007 0.630190 -0.296257
N9    N     N_R   0.630988 0.369809 0.168802 -0.296158
N10   N     N_R   0.630994 0.630193 0.831186 -0.296278
N11   N     N_R   0.369005 0.630193 0.168814 -0.296274
N12   N     N_R   0.369010 0.369815 0.831193 -0.296230
N13   N     N_R   0.869808 0.331186 0.369007 -0.296278
N14   N     N_R   0.630193 0.668814 0.869006 -0.296281
N15   N     N_R   0.130191 0.331186 0.630993 -0.296281
N16   N     N_R   0.369807 0.668815 0.130994 -0.296281
N17   N     N_R   0.869808 0.668814 0.630994 -0.296276
N18   N     N_R   0.630182 0.331188 0.130983 -0.296291
N19   N     N_R   0.130192 0.668813 0.369006 -0.296271
N20   N     N_R   0.369807 0.331189 0.869007 -0.296243
N21   N     N_R   0.331186 0.630994 0.130192 -0.296274
N22   N     N_R   0.668815 0.130994 0.369807 -0.296280
N23   N     N_R   0.331186 0.369009 0.869811 -0.296284
N24   N     N_R   0.668814 0.869006 0.630193 -0.296272
N25   N     N_R   0.668790 0.369019 0.130166 -0.296121
N26   N     N_R   0.331185 0.869006 0.369807 -0.296279
N27   N     N_R   0.668814 0.630994 0.869808 -0.296273
N28   N     N_R   0.331186 0.130994 0.630193 -0.296276
N29   N     N_R   0.630993 0.869808 0.668814 -0.296274
N30   N     N_R   0.130994 0.630192 0.331185 -0.296283
N31   N     N_R   0.369006 0.130192 0.668814 -0.296278
N32   N     N_R   0.869006 0.369807 0.331186 -0.296276
N33   N     N_R   0.369006 0.869808 0.331186 -0.296275
N34   N     N_R   0.869006 0.630193 0.668814 -0.296275
N35   N     N_R   0.630994 0.130193 0.331186 -0.296277
N36   N     N_R   0.130994 0.369806 0.668813 -0.296266
N37   N     N_R   0.869810 0.831188 0.869007 -0.296262
N38   N     N_R   0.130193 0.168815 0.869005 -0.296282
N39   N     N_R   0.130191 0.831187 0.130994 -0.296264
N40   N     N_R   0.869805 0.168815 0.130995 -0.296283
N41   N     N_R   0.831185 0.130994 0.130192 -0.296283
N42   N     N_R   0.168815 0.130995 0.869807 -0.296282
N43   N     N_R   0.831187 0.869006 0.869807 -0.296266
N44   N     N_R   0.168814 0.869006 0.130193 -0.296274
N45   N     N_R   0.130994 0.869808 0.168814 -0.296277
N46   N     N_R   0.130995 0.130193 0.831185 -0.296282
N47   N     N_R   0.869005 0.130193 0.168813 -0.296267
N48   N     N_R   0.869007 0.869808 0.831186 -0.296283
C289  C     C_R   0.347158 0.192514 0.347158 -0.165759
C290  C     C_R   0.652842 0.807486 0.347158 -0.165760
C291  C     C_R   0.652842 0.192514 0.652842 -0.165760
C292  C     C_R   0.347158 0.807486 0.652841 -0.165759
C293  C     C_R   0.192514 0.652842 0.652842 -0.165760
C294  C     C_R   0.807486 0.652842 0.347158 -0.165760
C295  C     C_R   0.192514 0.347158 0.347158 -0.165759
C296  C     C_R   0.807486 0.347158 0.652842 -0.165759
C297  C     C_R   0.652842 0.347158 0.807486 -0.165761
C298  C     C_R   0.652842 0.652842 0.192514 -0.165769
C299  C     C_R   0.347158 0.652842 0.807486 -0.165760
C300  C     C_R   0.347158 0.347158 0.192514 -0.165759
C301  C     C_R   0.847158 0.692514 0.347158 -0.165759
C302  C     C_R   0.652842 0.307486 0.847158 -0.165764
C303  C     C_R   0.152842 0.692514 0.652842 -0.165761
C304  C     C_R   0.347158 0.307486 0.152841 -0.165762
C305  C     C_R   0.847158 0.307486 0.652841 -0.165760
C306  C     C_R   0.652842 0.692514 0.152842 -0.165762
C307  C     C_R   0.152842 0.307486 0.347158 -0.165760
C308  C     C_R   0.347158 0.692514 0.847158 -0.165761
C309  C     C_R   0.692514 0.652842 0.152842 -0.165762
C310  C     C_R   0.307486 0.152842 0.347158 -0.165760
C311  C     C_R   0.692514 0.347158 0.847158 -0.165760
C312  C     C_R   0.307486 0.847158 0.652842 -0.165760
C313  C     C_R   0.307486 0.347158 0.152842 -0.165761
C314  C     C_R   0.692514 0.847158 0.347158 -0.165760
C315  C     C_R   0.307486 0.652842 0.847158 -0.165760
C316  C     C_R   0.692514 0.152842 0.652842 -0.165759
C317  C     C_R   0.652842 0.847158 0.307486 -0.165761
C318  C     C_R   0.152842 0.652842 0.692514 -0.165761
C319  C     C_R   0.347158 0.152842 0.307486 -0.165760
C320  C     C_R   0.847158 0.347158 0.692514 -0.165759
C321  C     C_R   0.347158 0.847158 0.692514 -0.165759
C322  C     C_R   0.847158 0.652842 0.307486 -0.165760
C323  C     C_R   0.652842 0.152842 0.692514 -0.165760
C324  C     C_R   0.152842 0.347158 0.307486 -0.165760
C325  C     C_R   0.847158 0.192514 0.847158 -0.165759
C326  C     C_R   0.152842 0.807486 0.847158 -0.165760
C327  C     C_R   0.152842 0.192514 0.152842 -0.165761
C328  C     C_R   0.847158 0.807486 0.152841 -0.165761
C329  C     C_R   0.192514 0.152842 0.152842 -0.165759
C330  C     C_R   0.807486 0.152842 0.847158 -0.165759
C331  C     C_R   0.192514 0.847158 0.847158 -0.165760
C332  C     C_R   0.807486 0.847158 0.152842 -0.165761
C333  C     C_R   0.152842 0.847158 0.807486 -0.165761
C334  C     C_R   0.152842 0.152842 0.192514 -0.165760
C335  C     C_R   0.847158 0.152842 0.807486 -0.165760
C336  C     C_R   0.847158 0.847158 0.192514 -0.165760
C337  C     C_R   0.455265 0.297824 0.829121 -0.210923
C338  C     C_R   0.187063 0.720058 0.433653 -0.201486
C339  C     C_R   0.544723 0.297837 0.170879 -0.210930
C340  C     C_R   0.812935 0.720058 0.566348 -0.201485
C341  C     C_R   0.455283 0.702147 0.170881 -0.210927
C342  C     C_R   0.187067 0.279942 0.566349 -0.201486
C343  C     C_R   0.544715 0.702145 0.829119 -0.210925
C344  C     C_R   0.812934 0.279942 0.433651 -0.201487
C345  C     C_R   0.297850 0.170880 0.544718 -0.210923
C346  C     C_R   0.720058 0.566349 0.812934 -0.201484
C347  C     C_R   0.297851 0.829119 0.455282 -0.210924
C348  C     C_R   0.720044 0.433734 0.186938 -0.201515
C349  C     C_R   0.702152 0.829120 0.544720 -0.210924
C350  C     C_R   0.279943 0.433652 0.812934 -0.201485
C351  C     C_R   0.702145 0.170881 0.455285 -0.210924
C352  C     C_R   0.279942 0.566348 0.187064 -0.201487
C353  C     C_R   0.170880 0.455276 0.702159 -0.210923
C354  C     C_R   0.566351 0.187069 0.279942 -0.201487
C355  C     C_R   0.829119 0.544719 0.702151 -0.210923
C356  C     C_R   0.433652 0.812936 0.279942 -0.201486
C357  C     C_R   0.829120 0.455280 0.297849 -0.210935
C358  C     C_R   0.433649 0.187069 0.720058 -0.201481
C359  C     C_R   0.170881 0.544716 0.297855 -0.210924
C360  C     C_R   0.566348 0.812935 0.720058 -0.201486
C361  C     C_R   0.955285 0.797855 0.829120 -0.210923
C362  C     C_R   0.187071 0.220058 0.933647 -0.201486
C363  C     C_R   0.044718 0.797851 0.170880 -0.210923
C364  C     C_R   0.812923 0.220059 0.066356 -0.201481
C365  C     C_R   0.955280 0.202151 0.170881 -0.210924
C366  C     C_R   0.187060 0.779942 0.066345 -0.201487
C367  C     C_R   0.044716 0.202145 0.829119 -0.210923
C368  C     C_R   0.812945 0.779943 0.933658 -0.201488
C369  C     C_R   0.797859 0.170881 0.044713 -0.210925
C370  C     C_R   0.220058 0.066352 0.812929 -0.201485
C371  C     C_R   0.797843 0.829120 0.955277 -0.210922
C372  C     C_R   0.220058 0.933648 0.187070 -0.201485
C373  C     C_R   0.202154 0.829120 0.044721 -0.210923
C374  C     C_R   0.779942 0.933650 0.812932 -0.201486
C375  C     C_R   0.202145 0.170881 0.955284 -0.210924
C376  C     C_R   0.779942 0.066349 0.187066 -0.201486
C377  C     C_R   0.170881 0.955284 0.202146 -0.210924
C378  C     C_R   0.066352 0.187071 0.779942 -0.201486
C379  C     C_R   0.829119 0.044718 0.202148 -0.210924
C380  C     C_R   0.933649 0.812931 0.779942 -0.201486
C381  C     C_R   0.829119 0.955283 0.797853 -0.210924
C382  C     C_R   0.933653 0.187064 0.220058 -0.201489
C383  C     C_R   0.170881 0.044716 0.797855 -0.210925
C384  C     C_R   0.066348 0.812935 0.220058 -0.201485
C385  C     C_R   0.955284 0.297855 0.329119 -0.210924
C386  C     C_R   0.687069 0.720058 0.933649 -0.201484
C387  C     C_R   0.044716 0.297853 0.670881 -0.210925
C388  C     C_R   0.312930 0.720058 0.066351 -0.201483
C389  C     C_R   0.955284 0.702146 0.670881 -0.210924
C390  C     C_R   0.687060 0.279946 0.066343 -0.201493
C391  C     C_R   0.044716 0.702145 0.329119 -0.210924
C392  C     C_R   0.312934 0.279942 0.933651 -0.201491
C393  C     C_R   0.297855 0.670881 0.044715 -0.210924
C394  C     C_R   0.720058 0.066351 0.312930 -0.201486
C395  C     C_R   0.297851 0.329120 0.955283 -0.210927
C396  C     C_R   0.720058 0.933650 0.687068 -0.201487
C397  C     C_R   0.702141 0.329122 0.044707 -0.210921
C398  C     C_R   0.279942 0.933648 0.312930 -0.201485
C399  C     C_R   0.702146 0.670880 0.955284 -0.210925
C400  C     C_R   0.279942 0.066351 0.687069 -0.201486
C401  C     C_R   0.670881 0.955283 0.702147 -0.210924
C402  C     C_R   0.066351 0.687069 0.279942 -0.201483
C403  C     C_R   0.329119 0.044716 0.702146 -0.210923
C404  C     C_R   0.933648 0.312930 0.279942 -0.201488
C405  C     C_R   0.329119 0.955284 0.297855 -0.210923
C406  C     C_R   0.933649 0.687069 0.720058 -0.201485
C407  C     C_R   0.670881 0.044716 0.297854 -0.210924
C408  C     C_R   0.066351 0.312931 0.720058 -0.201486
C409  C     C_R   0.455281 0.797850 0.329120 -0.210923
C410  C     C_R   0.687071 0.220058 0.433648 -0.201486
C411  C     C_R   0.544718 0.797851 0.670880 -0.210924
C412  C     C_R   0.312935 0.220058 0.566348 -0.201486
C413  C     C_R   0.455284 0.202146 0.670880 -0.210927
C414  C     C_R   0.687062 0.779942 0.566346 -0.201485
C415  C     C_R   0.544717 0.202147 0.329119 -0.210924
C416  C     C_R   0.312933 0.779942 0.433651 -0.201484
C417  C     C_R   0.797851 0.670880 0.544718 -0.210923
C418  C     C_R   0.220058 0.566352 0.312929 -0.201484
C419  C     C_R   0.797852 0.329120 0.455283 -0.210923
C420  C     C_R   0.220057 0.433660 0.687053 -0.201487
C421  C     C_R   0.202146 0.329120 0.544716 -0.210923
C422  C     C_R   0.779942 0.433653 0.312937 -0.201475
C423  C     C_R   0.202151 0.670880 0.455281 -0.210923
C424  C     C_R   0.779942 0.566347 0.687063 -0.201486
C425  C     C_R   0.670874 0.455226 0.202239 -0.210918
C426  C     C_R   0.566352 0.687071 0.779942 -0.201484
C427  C     C_R   0.329119 0.544719 0.202150 -0.210923
C428  C     C_R   0.433675 0.312972 0.779946 -0.201495
C429  C     C_R   0.329120 0.455287 0.797855 -0.210924
C430  C     C_R   0.433649 0.687069 0.220058 -0.201485
C431  C     C_R   0.670880 0.544718 0.797851 -0.210925
C432  C     C_R   0.566338 0.312950 0.220055 -0.201503
C433  C     C_R   0.456270 0.797409 0.296881 -0.149851
C434  C     C_R   0.702592 0.203119 0.456270 -0.149844
C435  C     C_R   0.543730 0.797409 0.703119 -0.149851
C436  C     C_R   0.297409 0.203119 0.543730 -0.149852
C437  C     C_R   0.456270 0.202591 0.703119 -0.149848
C438  C     C_R   0.702591 0.796881 0.543730 -0.149855
C439  C     C_R   0.543730 0.202592 0.296881 -0.149847
C440  C     C_R   0.297408 0.796881 0.456270 -0.149850
C441  C     C_R   0.797409 0.703119 0.543730 -0.149851
C442  C     C_R   0.203119 0.543730 0.297408 -0.149845
C443  C     C_R   0.797409 0.296881 0.456270 -0.149849
C444  C     C_R   0.203118 0.456270 0.702590 -0.149866
C445  C     C_R   0.202591 0.296881 0.543730 -0.149848
C446  C     C_R   0.796881 0.456270 0.297409 -0.149857
C447  C     C_R   0.202591 0.703119 0.456270 -0.149854
C448  C     C_R   0.796881 0.543730 0.702591 -0.149854
C449  C     C_R   0.703112 0.456278 0.202581 -0.149988
C450  C     C_R   0.543730 0.702592 0.796881 -0.149845
C451  C     C_R   0.296881 0.543730 0.202591 -0.149853
C452  C     C_R   0.456272 0.297411 0.796883 -0.149893
C453  C     C_R   0.296882 0.456271 0.797410 -0.149849
C454  C     C_R   0.456269 0.702592 0.203119 -0.149848
C455  C     C_R   0.703119 0.543730 0.797408 -0.149851
C456  C     C_R   0.543728 0.297409 0.203118 -0.149870
C457  C     C_R   0.956270 0.297408 0.296881 -0.149845
C458  C     C_R   0.702591 0.703119 0.956270 -0.149847
C459  C     C_R   0.043730 0.297408 0.703119 -0.149847
C460  C     C_R   0.297408 0.703119 0.043730 -0.149846
C461  C     C_R   0.956270 0.702592 0.703119 -0.149846
C462  C     C_R   0.702588 0.296883 0.043725 -0.149852
C463  C     C_R   0.043730 0.702591 0.296881 -0.149846
C464  C     C_R   0.297408 0.296881 0.956270 -0.149850
C465  C     C_R   0.703119 0.043730 0.297408 -0.149847
C466  C     C_R   0.703119 0.956270 0.702592 -0.149847
C467  C     C_R   0.296881 0.956270 0.297408 -0.149845
C468  C     C_R   0.296881 0.043730 0.702592 -0.149847
C469  C     C_R   0.956270 0.797409 0.796881 -0.149845
C470  C     C_R   0.202592 0.203119 0.956269 -0.149844
C471  C     C_R   0.043730 0.797409 0.203119 -0.149851
C472  C     C_R   0.797408 0.203120 0.043731 -0.149840
C473  C     C_R   0.956269 0.202591 0.203119 -0.149853
C474  C     C_R   0.202591 0.796881 0.043730 -0.149858
C475  C     C_R   0.043731 0.202592 0.796881 -0.149845
C476  C     C_R   0.797409 0.796881 0.956270 -0.149863
C477  C     C_R   0.203119 0.043731 0.797408 -0.149845
C478  C     C_R   0.203119 0.956270 0.202592 -0.149845
C479  C     C_R   0.796881 0.956270 0.797408 -0.149848
C480  C     C_R   0.796881 0.043730 0.202591 -0.149850
C481  C     C_1   0.409144 0.206075 0.293925 -0.147604
C482  C     C_1   0.706075 0.793925 0.409144 -0.147605
C483  C     C_1   0.590856 0.206075 0.706075 -0.147604
C484  C     C_1   0.293924 0.793925 0.590856 -0.147605
C485  C     C_1   0.409144 0.793925 0.706075 -0.147605
C486  C     C_1   0.706075 0.206075 0.590856 -0.147604
C487  C     C_1   0.590856 0.793925 0.293925 -0.147605
C488  C     C_1   0.293925 0.206075 0.409144 -0.147604
C489  C     C_1   0.206075 0.706075 0.590856 -0.147605
C490  C     C_1   0.793925 0.590856 0.293924 -0.147604
C491  C     C_1   0.206075 0.293925 0.409144 -0.147604
C492  C     C_1   0.793925 0.409144 0.706075 -0.147605
C493  C     C_1   0.793925 0.293925 0.590856 -0.147605
C494  C     C_1   0.206075 0.409144 0.293924 -0.147604
C495  C     C_1   0.793924 0.706075 0.409144 -0.147605
C496  C     C_1   0.206075 0.590856 0.706075 -0.147605
C497  C     C_1   0.706075 0.409144 0.793925 -0.147604
C498  C     C_1   0.590856 0.706075 0.206075 -0.147608
C499  C     C_1   0.293925 0.590856 0.793925 -0.147604
C500  C     C_1   0.409144 0.293924 0.206075 -0.147602
C501  C     C_1   0.293925 0.409144 0.206075 -0.147605
C502  C     C_1   0.409144 0.706075 0.793925 -0.147604
C503  C     C_1   0.706075 0.590856 0.206075 -0.147610
C504  C     C_1   0.590856 0.293924 0.793925 -0.147607
C505  C     C_1   0.909144 0.706075 0.293925 -0.147605
C506  C     C_1   0.706075 0.293925 0.909144 -0.147603
C507  C     C_1   0.090856 0.706075 0.706075 -0.147605
C508  C     C_1   0.293924 0.293925 0.090856 -0.147605
C509  C     C_1   0.909144 0.293924 0.706075 -0.147604
C510  C     C_1   0.706075 0.706075 0.090856 -0.147605
C511  C     C_1   0.090856 0.293924 0.293925 -0.147604
C512  C     C_1   0.293924 0.706075 0.909144 -0.147605
C513  C     C_1   0.293925 0.090856 0.293924 -0.147605
C514  C     C_1   0.293925 0.909144 0.706075 -0.147605
C515  C     C_1   0.706075 0.909144 0.293924 -0.147605
C516  C     C_1   0.706075 0.090856 0.706075 -0.147604
C517  C     C_1   0.909144 0.206075 0.793925 -0.147604
C518  C     C_1   0.206075 0.793925 0.909144 -0.147605
C519  C     C_1   0.090856 0.206075 0.206075 -0.147605
C520  C     C_1   0.793925 0.793925 0.090856 -0.147605
C521  C     C_1   0.909144 0.793925 0.206075 -0.147605
C522  C     C_1   0.206075 0.206075 0.090856 -0.147605
C523  C     C_1   0.090856 0.793925 0.793925 -0.147604
C524  C     C_1   0.793925 0.206075 0.909144 -0.147603
C525  C     C_1   0.793925 0.090856 0.793925 -0.147604
C526  C     C_1   0.793925 0.909144 0.206075 -0.147606
C527  C     C_1   0.206075 0.909144 0.793925 -0.147605
C528  C     C_1   0.206075 0.090856 0.206075 -0.147604
C529  C     C_1   0.387210 0.193734 0.306267 -0.023651
C530  C     C_1   0.693734 0.806267 0.387210 -0.023653
C531  C     C_1   0.612790 0.193734 0.693733 -0.023652
C532  C     C_1   0.306266 0.806267 0.612790 -0.023653
C533  C     C_1   0.387210 0.806266 0.693733 -0.023653
C534  C     C_1   0.693734 0.193733 0.612790 -0.023652
C535  C     C_1   0.612790 0.806266 0.306267 -0.023653
C536  C     C_1   0.306266 0.193733 0.387210 -0.023652
C537  C     C_1   0.193734 0.693733 0.612790 -0.023653
C538  C     C_1   0.806267 0.612790 0.306266 -0.023652
C539  C     C_1   0.193734 0.306267 0.387210 -0.023652
C540  C     C_1   0.806267 0.387210 0.693734 -0.023652
C541  C     C_1   0.806266 0.306267 0.612790 -0.023653
C542  C     C_1   0.193733 0.387210 0.306266 -0.023652
C543  C     C_1   0.806266 0.693733 0.387210 -0.023652
C544  C     C_1   0.193733 0.612790 0.693734 -0.023653
C545  C     C_1   0.693733 0.387210 0.806266 -0.023652
C546  C     C_1   0.612790 0.693734 0.193733 -0.023656
C547  C     C_1   0.306267 0.612790 0.806266 -0.023652
C548  C     C_1   0.387210 0.306266 0.193733 -0.023652
C549  C     C_1   0.306267 0.387210 0.193734 -0.023652
C550  C     C_1   0.387210 0.693734 0.806267 -0.023652
C551  C     C_1   0.693733 0.612790 0.193734 -0.023658
C552  C     C_1   0.612790 0.306266 0.806267 -0.023655
C553  C     C_1   0.887210 0.693734 0.306267 -0.023652
C554  C     C_1   0.693734 0.306267 0.887210 -0.023654
C555  C     C_1   0.112790 0.693734 0.693733 -0.023653
C556  C     C_1   0.306266 0.306267 0.112790 -0.023653
C557  C     C_1   0.887210 0.306266 0.693733 -0.023652
C558  C     C_1   0.693734 0.693733 0.112790 -0.023654
C559  C     C_1   0.112790 0.306266 0.306267 -0.023653
C560  C     C_1   0.306266 0.693733 0.887210 -0.023652
C561  C     C_1   0.306267 0.112790 0.306266 -0.023652
C562  C     C_1   0.306267 0.887210 0.693734 -0.023652
C563  C     C_1   0.693733 0.887210 0.306266 -0.023652
C564  C     C_1   0.693733 0.112790 0.693734 -0.023653
C565  C     C_1   0.887210 0.193734 0.806267 -0.023651
C566  C     C_1   0.193734 0.806267 0.887210 -0.023653
C567  C     C_1   0.112790 0.193734 0.193733 -0.023652
C568  C     C_1   0.806266 0.806267 0.112790 -0.023653
C569  C     C_1   0.887210 0.806266 0.193733 -0.023653
C570  C     C_1   0.193734 0.193733 0.112790 -0.023652
C571  C     C_1   0.112790 0.806266 0.806267 -0.023653
C572  C     C_1   0.806266 0.193733 0.887210 -0.023651
C573  C     C_1   0.806267 0.112790 0.806266 -0.023652
C574  C     C_1   0.806267 0.887210 0.193734 -0.023653
C575  C     C_1   0.193733 0.887210 0.806266 -0.023652
C576  C     C_1   0.193733 0.112790 0.193734 -0.023652
C577  C     C_R   0.408427 0.829064 0.327537 -0.116426
C578  C     C_R   0.670938 0.172464 0.408426 -0.116427
C579  C     C_R   0.591572 0.829064 0.672463 -0.116422
C580  C     C_R   0.329063 0.172463 0.591573 -0.116426
C581  C     C_R   0.408427 0.170937 0.672463 -0.116426
C582  C     C_R   0.670936 0.827537 0.591572 -0.116424
C583  C     C_R   0.591574 0.170937 0.327537 -0.116428
C584  C     C_R   0.329063 0.827537 0.408427 -0.116425
C585  C     C_R   0.829064 0.672463 0.591572 -0.116424
C586  C     C_R   0.172463 0.591573 0.329062 -0.116424
C587  C     C_R   0.829064 0.327537 0.408428 -0.116425
C588  C     C_R   0.172462 0.408428 0.670934 -0.116425
C589  C     C_R   0.170935 0.327537 0.591571 -0.116419
C590  C     C_R   0.827537 0.408427 0.329064 -0.116428
C591  C     C_R   0.170937 0.672463 0.408427 -0.116428
C592  C     C_R   0.827537 0.591573 0.670937 -0.116425
C593  C     C_R   0.672447 0.408447 0.170910 -0.116407
C594  C     C_R   0.591573 0.670938 0.827537 -0.116425
C595  C     C_R   0.327537 0.591573 0.170937 -0.116427
C596  C     C_R   0.408432 0.329070 0.827541 -0.116422
C597  C     C_R   0.327538 0.408432 0.829068 -0.116406
C598  C     C_R   0.408426 0.670938 0.172463 -0.116425
C599  C     C_R   0.672463 0.591573 0.829063 -0.116427
C600  C     C_R   0.591568 0.329063 0.172458 -0.116359
C601  C     C_R   0.908427 0.329062 0.327537 -0.116422
C602  C     C_R   0.670937 0.672463 0.908427 -0.116427
C603  C     C_R   0.091573 0.329062 0.672463 -0.116417
C604  C     C_R   0.329063 0.672463 0.091573 -0.116425
C605  C     C_R   0.908427 0.670937 0.672463 -0.116422
C606  C     C_R   0.670921 0.327543 0.091557 -0.116359
C607  C     C_R   0.091573 0.670937 0.327537 -0.116426
C608  C     C_R   0.329062 0.327538 0.908428 -0.116404
C609  C     C_R   0.672463 0.091573 0.329063 -0.116428
C610  C     C_R   0.672463 0.908427 0.670937 -0.116421
C611  C     C_R   0.327537 0.908427 0.329063 -0.116422
C612  C     C_R   0.327537 0.091573 0.670938 -0.116425
C613  C     C_R   0.908428 0.829064 0.827537 -0.116420
C614  C     C_R   0.170938 0.172464 0.908426 -0.116428
C615  C     C_R   0.091572 0.829064 0.172463 -0.116423
C616  C     C_R   0.829061 0.172464 0.091574 -0.116423
C617  C     C_R   0.908426 0.170937 0.172463 -0.116429
C618  C     C_R   0.170936 0.827537 0.091573 -0.116425
C619  C     C_R   0.091574 0.170938 0.827536 -0.116428
C620  C     C_R   0.829065 0.827538 0.908428 -0.116426
C621  C     C_R   0.172464 0.091574 0.829062 -0.116429
C622  C     C_R   0.172463 0.908427 0.170938 -0.116421
C623  C     C_R   0.827537 0.908427 0.829062 -0.116420
C624  C     C_R   0.827537 0.091573 0.170936 -0.116428
H1    H     H_    0.473254 0.286322 0.842171 0.195463
H2    H     H_    0.188022 0.745068 0.434037 0.200087
H3    H     H_    0.526724 0.286350 0.157832 0.195449
H4    H     H_    0.811974 0.745068 0.565965 0.200086
H5    H     H_    0.473290 0.713622 0.157832 0.195433
H6    H     H_    0.188030 0.254932 0.565967 0.200085
H7    H     H_    0.526708 0.713618 0.842168 0.195432
H8    H     H_    0.811972 0.254932 0.434034 0.200085
H9    H     H_    0.286373 0.157832 0.526713 0.195436
H10   H     H_    0.745068 0.565965 0.811974 0.200087
H11   H     H_    0.286375 0.842168 0.473288 0.195435
H12   H     H_    0.745057 0.434164 0.187811 0.200135
H13   H     H_    0.713631 0.842168 0.526716 0.195438
H14   H     H_    0.254933 0.434033 0.811970 0.200085
H15   H     H_    0.713618 0.157832 0.473292 0.195431
H16   H     H_    0.254932 0.565963 0.188024 0.200087
H17   H     H_    0.157831 0.473275 0.713644 0.195446
H18   H     H_    0.565968 0.188031 0.254932 0.200084
H19   H     H_    0.842168 0.526715 0.713630 0.195438
H20   H     H_    0.434036 0.811976 0.254932 0.200087
H21   H     H_    0.842169 0.473284 0.286370 0.195437
H22   H     H_    0.434032 0.188032 0.745068 0.200086
H23   H     H_    0.157832 0.526708 0.286381 0.195432
H24   H     H_    0.565964 0.811975 0.745068 0.200086
H25   H     H_    0.973292 0.786381 0.842168 0.195431
H26   H     H_    0.188036 0.245068 0.934029 0.200083
H27   H     H_    0.026712 0.786374 0.157832 0.195435
H28   H     H_    0.811955 0.245069 0.065977 0.200086
H29   H     H_    0.973284 0.213630 0.157832 0.195438
H30   H     H_    0.188016 0.754932 0.065959 0.200089
H31   H     H_    0.026708 0.213618 0.842168 0.195432
H32   H     H_    0.811991 0.754932 0.934045 0.200092
H33   H     H_    0.786390 0.157832 0.026702 0.195428
H34   H     H_    0.245068 0.065970 0.811965 0.200084
H35   H     H_    0.786359 0.842169 0.973277 0.195443
H36   H     H_    0.245068 0.934030 0.188034 0.200084
H37   H     H_    0.213635 0.842169 0.026719 0.195440
H38   H     H_    0.754932 0.934032 0.811969 0.200084
H39   H     H_    0.213618 0.157832 0.973292 0.195431
H40   H     H_    0.754932 0.065966 0.188027 0.200086
H41   H     H_    0.157832 0.973292 0.213619 0.195432
H42   H     H_    0.065971 0.188035 0.754931 0.200083
H43   H     H_    0.842168 0.026712 0.213625 0.195434
H44   H     H_    0.934030 0.811966 0.754932 0.200084
H45   H     H_    0.842168 0.973289 0.786377 0.195434
H46   H     H_    0.934037 0.188023 0.245068 0.200087
H47   H     H_    0.157832 0.026709 0.786381 0.195432
H48   H     H_    0.065965 0.811974 0.245068 0.200086
H49   H     H_    0.973292 0.286381 0.342168 0.195432
H50   H     H_    0.688032 0.745068 0.934031 0.200085
H51   H     H_    0.026709 0.286378 0.657832 0.195433
H52   H     H_    0.311966 0.745068 0.065970 0.200084
H53   H     H_    0.973291 0.713620 0.657832 0.195432
H54   H     H_    0.688024 0.254936 0.065964 0.200085
H55   H     H_    0.026708 0.713620 0.342168 0.195432
H56   H     H_    0.311973 0.254932 0.934034 0.200084
H57   H     H_    0.286381 0.657832 0.026708 0.195432
H58   H     H_    0.745068 0.065969 0.311967 0.200085
H59   H     H_    0.286374 0.342168 0.973289 0.195436
H60   H     H_    0.745068 0.934032 0.688030 0.200085
H61   H     H_    0.713619 0.342169 0.026702 0.195425
H62   H     H_    0.254932 0.934030 0.311965 0.200084
H63   H     H_    0.713621 0.657832 0.973290 0.195433
H64   H     H_    0.254932 0.065969 0.688032 0.200084
H65   H     H_    0.657832 0.973289 0.713623 0.195434
H66   H     H_    0.065969 0.688033 0.254932 0.200085
H67   H     H_    0.342168 0.026709 0.713621 0.195433
H68   H     H_    0.934030 0.311966 0.254932 0.200082
H69   H     H_    0.342168 0.973292 0.286381 0.195432
H70   H     H_    0.934031 0.688033 0.745068 0.200085
H71   H     H_    0.657832 0.026709 0.286380 0.195433
H72   H     H_    0.065969 0.311968 0.745068 0.200084
H73   H     H_    0.473286 0.786372 0.342168 0.195437
H74   H     H_    0.688036 0.245068 0.434029 0.200084
H75   H     H_    0.526713 0.786373 0.657832 0.195436
H76   H     H_    0.311975 0.245068 0.565965 0.200087
H77   H     H_    0.473290 0.213621 0.657832 0.195433
H78   H     H_    0.688020 0.754932 0.565961 0.200088
H79   H     H_    0.526710 0.213622 0.342168 0.195434
H80   H     H_    0.311972 0.754932 0.434034 0.200086
H81   H     H_    0.786374 0.657832 0.526713 0.195435
H82   H     H_    0.245068 0.565971 0.311965 0.200083
H83   H     H_    0.786376 0.342168 0.473288 0.195434
H84   H     H_    0.245067 0.434048 0.688004 0.200094
H85   H     H_    0.213622 0.342168 0.526710 0.195432
H86   H     H_    0.754932 0.434038 0.311979 0.200091
H87   H     H_    0.213630 0.657832 0.473285 0.195438
H88   H     H_    0.754932 0.565963 0.688022 0.200087
H89   H     H_    0.657824 0.473177 0.213801 0.195530
H90   H     H_    0.565971 0.688035 0.754932 0.200084
H91   H     H_    0.342168 0.526714 0.213628 0.195437
H92   H     H_    0.434073 0.312037 0.754935 0.200103
H93   H     H_    0.342168 0.473293 0.786380 0.195430
H94   H     H_    0.434032 0.688031 0.245068 0.200085
H95   H     H_    0.657832 0.526713 0.786374 0.195436
H96   H     H_    0.565949 0.312002 0.245065 0.200089
H97   H     H_    0.357166 0.213168 0.357167 0.150411
H98   H     H_    0.642834 0.786832 0.357167 0.150411
H99   H     H_    0.642834 0.213168 0.642833 0.150412
H100  H     H_    0.357166 0.786832 0.642833 0.150411
H101  H     H_    0.213168 0.642833 0.642834 0.150411
H102  H     H_    0.786832 0.642833 0.357166 0.150411
H103  H     H_    0.213168 0.357167 0.357166 0.150412
H104  H     H_    0.786832 0.357167 0.642834 0.150411
H105  H     H_    0.642833 0.357166 0.786832 0.150412
H106  H     H_    0.642833 0.642834 0.213168 0.150409
H107  H     H_    0.357167 0.642834 0.786832 0.150412
H108  H     H_    0.357167 0.357166 0.213168 0.150412
H109  H     H_    0.857166 0.713168 0.357167 0.150411
H110  H     H_    0.642834 0.286832 0.857167 0.150410
H111  H     H_    0.142834 0.713168 0.642833 0.150411
H112  H     H_    0.357166 0.286832 0.142833 0.150412
H113  H     H_    0.857166 0.286832 0.642833 0.150411
H114  H     H_    0.642834 0.713168 0.142833 0.150411
H115  H     H_    0.142834 0.286832 0.357167 0.150411
H116  H     H_    0.357166 0.713168 0.857167 0.150411
H117  H     H_    0.713168 0.642833 0.142834 0.150412
H118  H     H_    0.286832 0.142833 0.357166 0.150411
H119  H     H_    0.713168 0.357167 0.857166 0.150412
H120  H     H_    0.286832 0.857167 0.642834 0.150411
H121  H     H_    0.286832 0.357167 0.142834 0.150411
H122  H     H_    0.713168 0.857167 0.357166 0.150411
H123  H     H_    0.286832 0.642833 0.857166 0.150411
H124  H     H_    0.713168 0.142833 0.642834 0.150411
H125  H     H_    0.642833 0.857166 0.286832 0.150411
H126  H     H_    0.142833 0.642834 0.713168 0.150411
H127  H     H_    0.357167 0.142834 0.286832 0.150411
H128  H     H_    0.857167 0.357166 0.713168 0.150411
H129  H     H_    0.357167 0.857166 0.713168 0.150411
H130  H     H_    0.857167 0.642834 0.286832 0.150411
H131  H     H_    0.642833 0.142834 0.713168 0.150411
H132  H     H_    0.142833 0.357166 0.286832 0.150412
H133  H     H_    0.857166 0.213168 0.857167 0.150412
H134  H     H_    0.142834 0.786832 0.857167 0.150412
H135  H     H_    0.142834 0.213168 0.142833 0.150411
H136  H     H_    0.857166 0.786832 0.142833 0.150412
H137  H     H_    0.213168 0.142833 0.142834 0.150411
H138  H     H_    0.786832 0.142833 0.857166 0.150412
H139  H     H_    0.213168 0.857167 0.857166 0.150410
H140  H     H_    0.786832 0.857167 0.142834 0.150411
H141  H     H_    0.142833 0.857166 0.786832 0.150411
H142  H     H_    0.142833 0.142834 0.213168 0.150411
H143  H     H_    0.857167 0.142834 0.786832 0.150411
H144  H     H_    0.857167 0.857166 0.213168 0.150411
N49   N     N_R   0.433923 0.816810 0.377781 0.146726
O193  O     O_R   0.444173 0.793733 0.394074 -0.293021
O194  O     O_R   0.429930 0.843413 0.391182 -0.288431
N50   N     N_R   0.660306 0.223816 0.384421 0.146140
O195  O     O_R   0.645490 0.249226 0.390560 -0.285621
O196  O     O_R   0.669169 0.218600 0.356181 -0.266435
N51   N     N_R   0.566076 0.816812 0.622219 0.146727
O197  O     O_R   0.555825 0.793735 0.605926 -0.293014
O198  O     O_R   0.570068 0.843414 0.608819 -0.288436
N52   N     N_R   0.339707 0.223817 0.615571 0.146140
O199  O     O_R   0.354531 0.249220 0.609427 -0.285621
O200  O     O_R   0.330842 0.218608 0.643812 -0.266443
N53   N     N_R   0.433927 0.183182 0.622220 0.146726
O201  O     O_R   0.444183 0.206255 0.605925 -0.293025
O202  O     O_R   0.429931 0.156578 0.608822 -0.288427
N54   N     N_R   0.660286 0.776183 0.615567 0.146141
O203  O     O_R   0.645457 0.750783 0.609419 -0.285608
O204  O     O_R   0.669152 0.781387 0.643808 -0.266447
N55   N     N_R   0.566074 0.183183 0.377780 0.146723
O205  O     O_R   0.555818 0.206256 0.394075 -0.293034
O206  O     O_R   0.570070 0.156580 0.391178 -0.288422
N56   N     N_R   0.339704 0.776183 0.384427 0.146142
O207  O     O_R   0.354527 0.750778 0.390571 -0.285608
O208  O     O_R   0.330840 0.781393 0.356186 -0.266436
N57   N     N_R   0.816812 0.622219 0.566076 0.146728
O209  O     O_R   0.793736 0.605926 0.555825 -0.293016
O210  O     O_R   0.843415 0.608819 0.570069 -0.288434
N58   N     N_R   0.223816 0.615579 0.339695 0.146145
O211  O     O_R   0.249225 0.609439 0.354511 -0.285608
O212  O     O_R   0.218600 0.643819 0.330831 -0.266431
N59   N     N_R   0.816814 0.377781 0.433926 0.146727
O213  O     O_R   0.793739 0.394075 0.444178 -0.293016
O214  O     O_R   0.843417 0.391180 0.429932 -0.288432
N60   N     N_R   0.223817 0.384446 0.660266 0.146135
O215  O     O_R   0.249208 0.390600 0.645425 -0.285609
O216  O     O_R   0.218626 0.356202 0.669134 -0.266464
N61   N     N_R   0.183182 0.377781 0.566072 0.146733
O217  O     O_R   0.206256 0.394075 0.555818 -0.293000
O218  O     O_R   0.156578 0.391179 0.570066 -0.288440
N62   N     N_R   0.776183 0.384432 0.339712 0.146138
O219  O     O_R   0.750782 0.390579 0.354540 -0.285610
O220  O     O_R   0.781388 0.356191 0.330847 -0.266461
N63   N     N_R   0.183193 0.622219 0.433921 0.146722
O221  O     O_R   0.206270 0.605927 0.444170 -0.293027
O222  O     O_R   0.156590 0.608817 0.429930 -0.288429
N64   N     N_R   0.776183 0.615568 0.660289 0.146141
O223  O     O_R   0.750782 0.609422 0.645462 -0.285609
O224  O     O_R   0.781388 0.643810 0.669154 -0.266444
N65   N     N_R   0.622196 0.433820 0.183384 0.146734
O225  O     O_R   0.605953 0.443940 0.206554 -0.292852
O226  O     O_R   0.608725 0.429920 0.156803 -0.288577
N66   N     N_R   0.615579 0.660305 0.776184 0.146145
O227  O     O_R   0.609439 0.645488 0.750775 -0.285613
O228  O     O_R   0.643819 0.669169 0.781400 -0.266430
N67   N     N_R   0.377781 0.566078 0.183191 0.146722
O229  O     O_R   0.394074 0.555828 0.206268 -0.293027
O230  O     O_R   0.391182 0.570070 0.156588 -0.288437
N68   N     N_R   0.384478 0.339786 0.776183 0.146122
O231  O     O_R   0.390653 0.354661 0.750816 -0.285599
O232  O     O_R   0.356231 0.330912 0.781342 -0.266510
N69   N     N_R   0.377782 0.433933 0.816822 0.146748
O233  O     O_R   0.394076 0.444186 0.793748 -0.292959
O234  O     O_R   0.391179 0.429939 0.843426 -0.288464
N70   N     N_R   0.384424 0.660301 0.223817 0.146143
O235  O     O_R   0.390566 0.645481 0.249223 -0.285610
O236  O     O_R   0.356184 0.669165 0.218604 -0.266433
N71   N     N_R   0.622219 0.566077 0.816812 0.146722
O237  O     O_R   0.605926 0.555825 0.793736 -0.293030
O238  O     O_R   0.608819 0.570070 0.843414 -0.288430
N72   N     N_R   0.615549 0.339742 0.223812 0.146188
O239  O     O_R   0.609393 0.354588 0.249199 -0.285434
O240  O     O_R   0.643793 0.330875 0.218624 -0.266644
N73   N     N_R   0.933929 0.316820 0.377780 0.146726
O241  O     O_R   0.944186 0.293748 0.394076 -0.293029
O242  O     O_R   0.929932 0.343424 0.391178 -0.288428
N74   N     N_R   0.660301 0.723816 0.884424 0.146141
O243  O     O_R   0.645482 0.749224 0.890565 -0.285621
O244  O     O_R   0.669165 0.718603 0.856184 -0.266429
N75   N     N_R   0.066073 0.316817 0.622220 0.146724
O245  O     O_R   0.055817 0.293744 0.605925 -0.293029
O246  O     O_R   0.070068 0.343421 0.608822 -0.288432
N76   N     N_R   0.339696 0.723816 0.115578 0.146142
O247  O     O_R   0.354513 0.749225 0.109438 -0.285617
O248  O     O_R   0.330832 0.718601 0.143818 -0.266429
N77   N     N_R   0.933928 0.683181 0.622220 0.146726
O249  O     O_R   0.944184 0.706253 0.605925 -0.293026
O250  O     O_R   0.929932 0.656577 0.608822 -0.288430
N78   N     N_R   0.660283 0.276191 0.115562 0.146151
O251  O     O_R   0.645459 0.250787 0.109420 -0.285586
O252  O     O_R   0.669152 0.281400 0.143802 -0.266567
N79   N     N_R   0.066072 0.683180 0.377780 0.146728
O253  O     O_R   0.055815 0.706252 0.394075 -0.293023
O254  O     O_R   0.070068 0.656577 0.391178 -0.288429
N80   N     N_R   0.339706 0.276185 0.884428 0.146158
O255  O     O_R   0.354529 0.250781 0.890571 -0.285559
O256  O     O_R   0.330841 0.281394 0.856187 -0.266487
N81   N     N_R   0.316820 0.622220 0.066071 0.146727
O257  O     O_R   0.293749 0.605924 0.055814 -0.293026
O258  O     O_R   0.343424 0.608823 0.070069 -0.288431
N82   N     N_R   0.723816 0.115577 0.339697 0.146139
O259  O     O_R   0.749225 0.109436 0.354516 -0.285622
O260  O     O_R   0.718602 0.143817 0.330834 -0.266430
N83   N     N_R   0.316812 0.377781 0.933926 0.146726
O261  O     O_R   0.293736 0.394075 0.944178 -0.293026
O262  O     O_R   0.343415 0.391181 0.929935 -0.288446
N84   N     N_R   0.723816 0.884425 0.660299 0.146143
O263  O     O_R   0.749223 0.890567 0.645478 -0.285607
O264  O     O_R   0.718604 0.856185 0.669163 -0.266443
N85   N     N_R   0.683171 0.377784 0.066055 0.146801
O265  O     O_R   0.706247 0.394079 0.055807 -0.292788
O266  O     O_R   0.656566 0.391182 0.070040 -0.288551
N86   N     N_R   0.276184 0.884422 0.339695 0.146144
O267  O     O_R   0.250775 0.890562 0.354513 -0.285615
O268  O     O_R   0.281399 0.856182 0.330832 -0.266432
N87   N     N_R   0.683182 0.622220 0.933927 0.146725
O269  O     O_R   0.706255 0.605925 0.944183 -0.293024
O270  O     O_R   0.656578 0.608822 0.929931 -0.288431
N88   N     N_R   0.276184 0.115576 0.660302 0.146144
O271  O     O_R   0.250776 0.109436 0.645483 -0.285613
O272  O     O_R   0.281397 0.143817 0.669166 -0.266433
N89   N     N_R   0.622219 0.933926 0.683184 0.146726
O273  O     O_R   0.605925 0.944180 0.706258 -0.293023
O274  O     O_R   0.608821 0.929932 0.656581 -0.288432
N90   N     N_R   0.115577 0.660302 0.276184 0.146141
O275  O     O_R   0.109437 0.645485 0.250775 -0.285620
O276  O     O_R   0.143817 0.669166 0.281398 -0.266429
N91   N     N_R   0.377780 0.066073 0.683182 0.146725
O277  O     O_R   0.394075 0.055817 0.706255 -0.293031
O278  O     O_R   0.391178 0.070069 0.656579 -0.288426
N92   N     N_R   0.884422 0.339696 0.276184 0.146141
O279  O     O_R   0.890562 0.354513 0.250775 -0.285629
O280  O     O_R   0.856182 0.330832 0.281399 -0.266461
N93   N     N_R   0.377780 0.933929 0.316821 0.146728
O281  O     O_R   0.394076 0.944186 0.293749 -0.293026
O282  O     O_R   0.391177 0.929932 0.343425 -0.288428
N94   N     N_R   0.884423 0.660302 0.723816 0.146144
O283  O     O_R   0.890564 0.645484 0.749224 -0.285608
O284  O     O_R   0.856183 0.669166 0.718602 -0.266438
N95   N     N_R   0.622220 0.066073 0.316819 0.146723
O285  O     O_R   0.605925 0.055817 0.293746 -0.293032
O286  O     O_R   0.608822 0.070069 0.343422 -0.288423
N96   N     N_R   0.115576 0.339699 0.723816 0.146149
O287  O     O_R   0.109435 0.354518 0.749223 -0.285595
O288  O     O_R   0.143817 0.330835 0.718603 -0.266451
N97   N     N_R   0.933930 0.816821 0.877781 0.146733
O289  O     O_R   0.944186 0.793749 0.894076 -0.293009
O290  O     O_R   0.929933 0.843425 0.891178 -0.288435
N98   N     N_R   0.160307 0.223816 0.884420 0.146141
O291  O     O_R   0.145491 0.249226 0.890559 -0.285621
O292  O     O_R   0.169170 0.218600 0.856180 -0.266422
N99   N     N_R   0.066075 0.816813 0.122219 0.146729
O293  O     O_R   0.055824 0.793737 0.105926 -0.293010
O294  O     O_R   0.070068 0.843416 0.108819 -0.288436
N100  N     N_R   0.839682 0.223816 0.115586 0.146142
O295  O     O_R   0.854491 0.249231 0.109452 -0.285614
O296  O     O_R   0.830819 0.218592 0.143825 -0.266440
N101  N     N_R   0.933920 0.183193 0.122219 0.146720
O297  O     O_R   0.944169 0.206270 0.105927 -0.293037
O298  O     O_R   0.929928 0.156590 0.108818 -0.288424
N102  N     N_R   0.160281 0.776183 0.115564 0.146140
O299  O     O_R   0.145450 0.750785 0.109415 -0.285608
O300  O     O_R   0.169147 0.781384 0.143806 -0.266448
N103  N     N_R   0.066072 0.183180 0.877780 0.146723
O301  O     O_R   0.055814 0.206251 0.894075 -0.293038
O302  O     O_R   0.070070 0.156576 0.891177 -0.288419
N104  N     N_R   0.839728 0.776183 0.884442 0.146134
O303  O     O_R   0.854565 0.750789 0.890595 -0.285612
O304  O     O_R   0.830861 0.781378 0.856200 -0.266454
N105  N     N_R   0.816830 0.122221 0.066066 0.146724
O305  O     O_R   0.793764 0.105923 0.055801 -0.293037
O306  O     O_R   0.843435 0.108828 0.070068 -0.288422
N106  N     N_R   0.223817 0.115579 0.839695 0.146140
O307  O     O_R   0.249226 0.109439 0.854511 -0.285622
O308  O     O_R   0.218601 0.143819 0.830831 -0.266421
N107  N     N_R   0.816795 0.877782 0.933914 0.146722
O309  O     O_R   0.793711 0.894071 0.944154 -0.293013
O310  O     O_R   0.843396 0.891188 0.929929 -0.288440
N108  N     N_R   0.223816 0.884422 0.160304 0.146146
O311  O     O_R   0.249225 0.890562 0.145486 -0.285604
O312  O     O_R   0.218601 0.856182 0.169168 -0.266439
N109  N     N_R   0.183198 0.877782 0.066082 0.146722
O313  O     O_R   0.206278 0.894073 0.055837 -0.293022
O314  O     O_R   0.156596 0.891185 0.070071 -0.288434
N110  N     N_R   0.776184 0.884425 0.839700 0.146147
O315  O     O_R   0.750777 0.890567 0.854521 -0.285597
O316  O     O_R   0.781396 0.856184 0.830836 -0.266446
N111  N     N_R   0.183179 0.122220 0.933929 0.146724
O317  O     O_R   0.206250 0.105925 0.944187 -0.293038
O318  O     O_R   0.156575 0.108824 0.929930 -0.288420
N112  N     N_R   0.776183 0.115572 0.160295 0.146137
O319  O     O_R   0.750778 0.109429 0.145472 -0.285630
O320  O     O_R   0.781393 0.143813 0.169160 -0.266435
N113  N     N_R   0.122220 0.933929 0.183180 0.146727
O321  O     O_R   0.105925 0.944186 0.206252 -0.293027
O322  O     O_R   0.108823 0.929932 0.156577 -0.288429
N114  N     N_R   0.115579 0.160305 0.776183 0.146141
O323  O     O_R   0.109439 0.145489 0.750774 -0.285621
O324  O     O_R   0.143819 0.169169 0.781399 -0.266420
N115  N     N_R   0.877781 0.066075 0.183187 0.146727
O325  O     O_R   0.894074 0.055823 0.206261 -0.293019
O326  O     O_R   0.891180 0.070069 0.156583 -0.288430
N116  N     N_R   0.884423 0.839698 0.776184 0.146142
O327  O     O_R   0.890563 0.854515 0.750776 -0.285616
O328  O     O_R   0.856183 0.830833 0.781399 -0.266438
N117  N     N_R   0.877781 0.933926 0.816816 0.146724
O329  O     O_R   0.894075 0.944181 0.793742 -0.293032
O330  O     O_R   0.891179 0.929931 0.843419 -0.288429
N118  N     N_R   0.884431 0.160290 0.223817 0.146140
O331  O     O_R   0.890577 0.145463 0.249219 -0.285612
O332  O     O_R   0.856189 0.169155 0.218611 -0.266443
N119  N     N_R   0.122220 0.066072 0.816820 0.146723
O333  O     O_R   0.105925 0.055815 0.793749 -0.293038
O334  O     O_R   0.108823 0.070070 0.843424 -0.288420
N120  N     N_R   0.115571 0.839707 0.223816 0.146140
O335  O     O_R   0.109427 0.854530 0.249221 -0.285617
O336  O     O_R   0.143812 0.830842 0.218608 -0.266438
N121  N     N_R   0.433891 0.316752 0.877787 0.146722
O337  O     O_R   0.444103 0.293648 0.894065 -0.292980
O338  O     O_R   0.429927 0.343349 0.891209 -0.288475
N122  N     N_R   0.160289 0.723817 0.384431 0.146139
O339  O     O_R   0.145462 0.749219 0.390577 -0.285617
O340  O     O_R   0.169154 0.718611 0.356190 -0.266436
N123  N     N_R   0.566083 0.316784 0.122215 0.146729
O341  O     O_R   0.555851 0.293695 0.105928 -0.293002
O342  O     O_R   0.570058 0.343385 0.108806 -0.288498
N124  N     N_R   0.839707 0.723816 0.615571 0.146141
O343  O     O_R   0.854531 0.749220 0.609427 -0.285617
O344  O     O_R   0.830842 0.718608 0.643812 -0.266439
N125  N     N_R   0.433926 0.683183 0.122220 0.146722
O345  O     O_R   0.444181 0.706256 0.105925 -0.293035
O346  O     O_R   0.429930 0.656580 0.108822 -0.288432
N126  N     N_R   0.160298 0.276184 0.615574 0.146141
O347  O     O_R   0.145478 0.250777 0.609432 -0.285615
O348  O     O_R   0.169163 0.281396 0.643814 -0.266443
N127  N     N_R   0.566071 0.683179 0.877780 0.146725
O349  O     O_R   0.555814 0.706251 0.894076 -0.293036
O350  O     O_R   0.570069 0.656576 0.891177 -0.288427
N128  N     N_R   0.839705 0.276184 0.384428 0.146139
O351  O     O_R   0.854527 0.250779 0.390571 -0.285620
O352  O     O_R   0.830840 0.281394 0.356187 -0.266443
N129  N     N_R   0.316811 0.122219 0.566077 0.146726
O353  O     O_R   0.293735 0.105926 0.555825 -0.293028
O354  O     O_R   0.343414 0.108819 0.570070 -0.288428
N130  N     N_R   0.723817 0.615571 0.839706 0.146140
O355  O     O_R   0.749221 0.609427 0.854530 -0.285616
O356  O     O_R   0.718608 0.643813 0.830842 -0.266435
N131  N     N_R   0.316813 0.877781 0.433924 0.146724
O357  O     O_R   0.293738 0.894074 0.444177 -0.293032
O358  O     O_R   0.343416 0.891180 0.429930 -0.288428
N132  N     N_R   0.723817 0.384601 0.160017 0.146080
O359  O     O_R   0.749090 0.390851 0.145013 -0.285542
O360  O     O_R   0.718784 0.356338 0.168916 -0.266688
N133  N     N_R   0.683194 0.877782 0.566080 0.146724
O361  O     O_R   0.706273 0.894073 0.555832 -0.293021
O362  O     O_R   0.656592 0.891184 0.570070 -0.288435
N134  N     N_R   0.276186 0.384428 0.839704 0.146144
O363  O     O_R   0.250779 0.390569 0.854524 -0.285611
O364  O     O_R   0.281398 0.356188 0.830839 -0.266466
N135  N     N_R   0.683179 0.122220 0.433929 0.146724
O365  O     O_R   0.706250 0.105924 0.444187 -0.293036
O366  O     O_R   0.656575 0.108823 0.429931 -0.288422
N136  N     N_R   0.276183 0.615569 0.160291 0.146139
O367  O     O_R   0.250780 0.609424 0.145465 -0.285618
O368  O     O_R   0.281390 0.643811 0.169156 -0.266436
N137  N     N_R   0.122217 0.433912 0.683209 0.146724
O369  O     O_R   0.105929 0.444150 0.706295 -0.293013
O370  O     O_R   0.108809 0.429928 0.656609 -0.288443
N138  N     N_R   0.615576 0.160301 0.276183 0.146140
O371  O     O_R   0.609435 0.145481 0.250776 -0.285621
O372  O     O_R   0.643816 0.169164 0.281396 -0.266437
N139  N     N_R   0.877781 0.566079 0.683193 0.146723
O373  O     O_R   0.894073 0.555829 0.706270 -0.293025
O374  O     O_R   0.891183 0.570070 0.656590 -0.288432
N140  N     N_R   0.384430 0.839709 0.276183 0.146139
O375  O     O_R   0.390575 0.854534 0.250781 -0.285617
O376  O     O_R   0.356189 0.830844 0.281390 -0.266435
N141  N     N_R   0.877782 0.433921 0.316807 0.146723
O377  O     O_R   0.894074 0.444170 0.293730 -0.293029
O378  O     O_R   0.891183 0.429930 0.343410 -0.288430
N142  N     N_R   0.384424 0.160301 0.723816 0.146141
O379  O     O_R   0.390566 0.145481 0.749224 -0.285616
O380  O     O_R   0.356184 0.169164 0.718603 -0.266435
N143  N     N_R   0.122220 0.566071 0.316821 0.146724
O381  O     O_R   0.105924 0.555813 0.293749 -0.293036
O382  O     O_R   0.108823 0.570069 0.343424 -0.288424
N144  N     N_R   0.615570 0.839708 0.723816 0.146140
O383  O     O_R   0.609426 0.854532 0.749220 -0.285614
O384  O     O_R   0.643811 0.830843 0.718608 -0.266442

loop_
_geom_bond_atom_site_label_1
_geom_bond_atom_site_label_2
_geom_bond_distance
_ccdc_geom_bond_type
C295  H103  1.084312 S    
O59   Cu16  1.918108 S    
C213  C381  1.402086 A    
N59   O214  1.301473 A    
O26   Cu26  1.918109 S    
C365  C473  1.396875 A    
O85   C27   1.286804 A    
C123  C603  1.478812 S    
O57   C7    1.286804 A    
C356  H20   1.083990 S    
O172  Cu40  1.979952 S    
C429  H93   1.083644 S    
N95   O286  1.301475 A    
Cu30  Cu44  2.628530 S    
C165  N69   1.437880 S    
C226  C599  1.419977 A    
C517  C565  1.213866 T    
O18   Cu18  1.918109 S    
N66   O228  1.301511 A    
C381  C479  1.396878 A    
C265  C572  1.453188 S    
O13   C42   1.286804 A    
O18   C48   1.286793 A    
C144  N41   1.356109 A    
O99   Cu3   1.979951 S    
N74   O243  1.301211 A    
N58   O212  1.301511 A    
C288  C561  1.453189 S    
C283  C554  1.453189 S    
O122  C65   1.282843 A    
C24   C502  1.448493 S    
C499  C547  1.213867 T    
C284  C322  1.406254 A    
C118  C598  1.478819 S    
C245  C292  1.406256 A    
O42   Cu34  1.918109 S    
O24   C47   1.286794 A    
O28   Cu28  1.918108 S    
C261  C548  1.453186 S    
C288  C310  1.406255 A    
O53   Cu2   1.918108 S    
O147  Cu8   1.979951 S    
N116  O328  1.301511 A    
C507  C555  1.213870 T    
C212  C613  1.419981 A    
O127  Cu28  1.979954 S    
N53   O202  1.301474 A    
C133  N37   1.355675 A    
C205  C618  1.420880 A    
C154  C586  1.419978 A    
O86   Cu41  1.918109 S    
O105  C91   1.285591 A    
O90   Cu46  1.918109 S    
C276  C573  1.453189 S    
C392  C464  1.396257 A    
C176  N80   1.436416 S    
C391  H55   1.083649 S    
C397  H61   1.083649 S    
O43   C36   1.286805 A    
C206  N110  1.436414 S    
O151  Cu4   1.979954 S    
C193  N97   1.437883 S    
N99   O293  1.301350 A    
C172  C604  1.419978 A    
O56   Cu3   1.918108 S    
C381  H45   1.083647 S    
N139  O373  1.301349 A    
C399  H63   1.083645 S    
C252  C305  1.406256 A    
O70   C9    1.286794 A    
C253  C320  1.406253 A    
N84   O264  1.301512 A    
C126  C606  1.478808 S    
C48   C510  1.448490 S    
C410  C434  1.396259 A    
C127  C607  1.478815 S    
Cu33  Cu47  2.628531 S    
O96   Cu47  1.918107 S    
O81   Cu41  1.918108 S    
C383  C477  1.396878 A    
C339  H3    1.083647 S    
O127  C64   1.285591 A    
C146  C578  1.419978 A    
C223  C594  1.420883 A    
C170  N74   1.436415 S    
C268  C569  1.453186 S    
C33   C489  1.448490 S    
C278  C307  1.406253 A    
C189  N93   1.437884 S    
C229  C582  1.420881 A    
C114  N10   1.356106 A    
C228  C593  1.419998 A    
C247  C290  1.406253 A    
C390  C462  1.396250 A    
C179  C395  1.402082 A    
C17   C497  1.448490 S    
C161  C593  1.420914 A    
C111  C591  1.478824 S    
C365  H29   1.083649 S    
O126  C61   1.282844 A    
C157  C421  1.402084 A    
C250  C543  1.453187 S    
C88   C480  1.465683 S    
C195  N99   1.437877 S    
C67   C442  1.465676 S    
C70   C439  1.465679 S    
C196  C616  1.419980 A    
C182  C398  1.396580 A    
C301  H109  1.084314 S    
C170  C386  1.396580 A    
C207  N111  1.437882 S    
C262  C315  1.406255 A    
O108  C90   1.282843 A    
C340  C441  1.396255 A    
C222  N126  1.436413 S    
C273  C329  1.406254 A    
C252  C296  1.406253 A    
C429  C453  1.396881 A    
C487  C535  1.213868 T    
C525  C573  1.213867 T    
C211  N115  1.437878 S    
O78   Cu37  1.918107 S    
C346  C455  1.396255 A    
N73   O242  1.301475 A    
C151  C415  1.402088 A    
C172  N76   1.436416 S    
O38   Cu29  1.918109 S    
O163  C57   1.285590 A    
O165  Cu18  1.979952 S    
O3    C37   1.286804 A    
C378  C475  1.396255 A    
Cu18  Cu23  2.628529 S    
N142  O379  1.301212 A    
C242  C535  1.453192 S    
C308  H116  1.084311 S    
N70   O236  1.301514 A    
C261  C300  1.406255 A    
C119  N10   1.355673 A    
C272  C565  1.453191 S    
O23   C48   1.286804 A    
O99   C85   1.285589 A    
C401  C466  1.396878 A    
C30   C484  1.448489 S    
O168  Cu19  1.979951 S    
C273  C576  1.453190 S    
N65   O226  1.301481 A    
C221  C341  1.402089 A    
C99   N29   1.356107 A    
O40   Cu31  1.918108 S    
O79   C17   1.286804 A    
C350  C453  1.396256 A    
C143  C623  1.478819 S    
C276  C330  1.406255 A    
O57   Cu14  1.918108 S    
C142  C622  1.478815 S    
N134  O364  1.301511 A    
C140  N43   1.355672 A    
C231  N135  1.437882 S    
C104  N1    1.356108 A    
C272  C325  1.406250 A    
C113  N9    1.355685 A    
O61   Cu10  1.918107 S    
C306  H114  1.084312 S    
C360  C435  1.396259 A    
C378  H42   1.083991 S    
O105  Cu9   1.979952 S    
C84   C445  1.465677 S    
C215  C621  1.420882 A    
O148  C50   1.282842 A    
O131  C76   1.285590 A    
C146  C410  1.396585 A    
C184  C612  1.419980 A    
C385  C457  1.396877 A    
C366  H30   1.083990 S    
N112  O320  1.301513 A    
C410  H74   1.083988 S    
C259  C308  1.406250 A    
C276  C335  1.406256 A    
O185  C79   1.285592 A    
O82   C24   1.286794 A    
C349  H13   1.083647 S    
C104  N26   1.355675 A    
C181  C397  1.402082 A    
O8    C39   1.286793 A    
C255  C538  1.453189 S    
C495  C543  1.213868 T    
C528  C576  1.213870 T    
O177  C71   1.285601 A    
C213  N117  1.437878 S    
C259  C299  1.406256 A    
C226  N130  1.436416 S    
C174  C606  1.419984 A    
C197  C365  1.402089 A    
C177  C393  1.402090 A    
O58   C8    1.286794 A    
O169  C63   1.285594 A    
C116  N20   1.355678 A    
C158  C422  1.396581 A    
C60   C464  1.465674 S    
N113  O322  1.301473 A    
C89   C473  1.465683 S    
C412  H76   1.083986 S    
C153  C417  1.402089 A    
O83   C21   1.286803 A    
O51   Cu8   1.918107 S    
N59   O213  1.301352 A    
C279  C306  1.406257 A    
C132  N28   1.356105 A    
C81   C440  1.465680 S    
C244  C533  1.453186 S    
C265  C330  1.406251 A    
C173  C389  1.402090 A    
O131  Cu31  1.979953 S    
C513  C561  1.213867 T    
O15   Cu15  1.918109 S    
C41   C511  1.448489 S    
C389  H53   1.083646 S    
C217  N121  1.437849 S    
O25   Cu25  1.918109 S    
C250  C301  1.406256 A    
N114  O324  1.301514 A    
O63   C8    1.286804 A    
N109  O313  1.301352 A    
C209  C622  1.420880 A    
C156  C420  1.396575 A    
C268  C328  1.406255 A    
C221  N125  1.437880 S    
C484  C532  1.213870 T    
C293  H101  1.084314 S    
C98   N2    1.356107 A    
O17   Cu17  1.918107 S    
O94   C36   1.286794 A    
O40   C23   1.286793 A    
N79   O254  1.301474 A    
C245  C312  1.406253 A    
O106  C92   1.282845 A    
N119  O333  1.301346 A    
C300  H108  1.084314 S    
N60   O215  1.301218 A    
O98   Cu2   1.979954 S    
C342  H6    1.083990 S    
C221  C598  1.420877 A    
O102  C85   1.282845 A    
C118  N16   1.355671 A    
O112  C91   1.282843 A    
C415  C439  1.396878 A    
C110  N7    1.356105 A    
O101  C86   1.285592 A    
C168  C432  1.396572 A    
C141  C621  1.478815 S    
N140  O376  1.301516 A    
O121  C66   1.285620 A    
C271  C331  1.406251 A    
C524  C572  1.213867 T    
O74   Cu38  1.918109 S    
C400  C468  1.396259 A    
N94   O284  1.301510 A    
O181  C75   1.285591 A    
C145  N49   1.437879 S    
C379  H43   1.083650 S    
C98   C578  1.478812 S    
C207  C375  1.402090 A    
O51   C1    1.286804 A    
C205  C373  1.402085 A    
Cu27  Cu37  2.628530 S    
C187  C612  1.420880 A    
C94   C470  1.465675 S    
O66   C12   1.286793 A    
Cu11  Cu14  2.628530 S    
O41   Cu33  1.918107 S    
Cu34  Cu48  2.628529 S    
O173  C67   1.285588 A    
O85   Cu42  1.918107 S    
O89   Cu45  1.918107 S    
C217  C337  1.402081 A    
N66   O227  1.301207 A    
C203  N107  1.437866 S    
N111  O317  1.301347 A    
C359  C442  1.396877 A    
N58   O211  1.301213 A    
O150  Cu1   1.979951 S    
N133  O361  1.301347 A    
C262  C547  1.453189 S    
C106  N30   1.355673 A    
C354  C439  1.396260 A    
O44   Cu36  1.918108 S    
O69   C10   1.286804 A    
O87   C25   1.286804 A    
C103  C583  1.478817 S    
C238  C358  1.396584 A    
C173  C605  1.420879 A    
O103  C88   1.285588 A    
C370  C477  1.396257 A    
O36   C27   1.286793 A    
C252  C541  1.453187 S    
C408  H72   1.083989 S    
N116  O327  1.301213 A    
C369  H33   1.083650 S    
O7    C40   1.286804 A    
C101  C581  1.478817 S    
C398  H62   1.083987 S    
C483  C531  1.213870 T    
O116  C94   1.282843 A    
C225  C345  1.402088 A    
O148  Cu7   1.979952 S    
Cu1   Cu8   2.628530 S    
C421  C445  1.396878 A    
Cu28  Cu38  2.628528 S    
C257  C302  1.406256 A    
C189  C405  1.402087 A    
C412  C436  1.396260 A    
C190  N94   1.436415 S    
C208  C376  1.396578 A    
C137  N40   1.355675 A    
C97   N1    1.355675 A    
O45   Cu34  1.918108 S    
O168  C59   1.282843 A    
N72   O240  1.301510 A    
O104  C87   1.282842 A    
C235  C355  1.402089 A    
N84   O263  1.301218 A    
C240  C579  1.419981 A    
C188  C601  1.419981 A    
C493  C541  1.213870 T    
O71   Cu20  1.918109 S    
C234  N138  1.436417 S    
C340  H4    1.083991 S    
O41   C34   1.286805 A    
C169  C385  1.402087 A    
C137  N47   1.356109 A    
C274  C333  1.406255 A    
C139  C619  1.478816 S    
N105  O305  1.301358 A    
C218  N122  1.436411 S    
O143  Cu36  1.979953 S    
N63   O221  1.301349 A    
O77   Cu38  1.918108 S    
C358  C437  1.396256 A    
O155  C53   1.285591 A    
O37   Cu30  1.918107 S    
C160  N64   1.436410 S    
C258  C551  1.453188 S    
C266  C333  1.406256 A    
C251  C542  1.453186 S    
C62   C455  1.465683 S    
O100  C86   1.282842 A    
C388  H52   1.083991 S    
C290  H98   1.084311 S    
C13   C503  1.448492 S    
C153  N57   1.437880 S    
C187  N91   1.437883 S    
C163  C427  1.402088 A    
C396  C466  1.396258 A    
O72   C11   1.286794 A    
C246  C531  1.453190 S    
C486  C534  1.213869 T    
C163  N67   1.437874 S    
C259  C550  1.453191 S    
N56   O208  1.301515 A    
C10   C520  1.448489 S    
C503  C551  1.213868 T    
C177  N81   1.437883 S    
C158  C590  1.419978 A    
C93   C474  1.465687 S    
C167  C431  1.402089 A    
O120  C95   1.282840 A    
C121  N13   1.355675 A    
C15   C499  1.448493 S    
C522  C570  1.213869 T    
C147  C411  1.402087 A    
O35   Cu31  1.918108 S    
C132  C612  1.478815 S    
C246  C291  1.406252 A    
C176  C608  1.419981 A    
N118  O332  1.301511 A    
C90   C475  1.465677 S    
C215  N119  1.437879 S    
C1    C528  1.448488 S    
O25   C18   1.286805 A    
C325  H133  1.084311 S    
C314  H122  1.084316 S    
C31   C491  1.448488 S    
O152  C51   1.282842 A    
O161  C59   1.285591 A    
C504  C552  1.213865 T    
C210  N114  1.436415 S    
C423  H87   1.083648 S    
O164  C58   1.282845 A    
O16   Cu16  1.918108 S    
C136  N41   1.355671 A    
C192  C603  1.419980 A    
C150  C582  1.419978 A    
N85   O265  1.301349 A    
C516  C564  1.213870 T    
C185  C401  1.402086 A    
C260  C300  1.406253 A    
C287  C562  1.453185 S    
C407  H71   1.083651 S    
N112  O319  1.301211 A    
C254  C539  1.453189 S    
C169  N73   1.437883 S    
C238  C581  1.419980 A    
C72   C435  1.465679 S    
N115  O325  1.301346 A    
O124  C67   1.282844 A    
C220  N124  1.436414 S    
C407  C465  1.396878 A    
N89   O273  1.301348 A    
C166  N70   1.436413 S    
C416  C440  1.396256 A    
O12   C42   1.286793 A    
O162  Cu21  1.979953 S    
C130  N24   1.356106 A    
C228  C348  1.396536 A    
C363  C471  1.396878 A    
C178  N82   1.436407 S    
C426  C450  1.396257 A    
O129  C74   1.285590 A    
C277  C560  1.453190 S    
O154  C56   1.282845 A    
C188  N92   1.436421 S    
O31   C16   1.286804 A    
C485  C533  1.213869 T    
O17   C47   1.286805 A    
C282  C318  1.406253 A    
C85   C479  1.465676 S    
O97   Cu1   1.979953 S    
C164  C596  1.419983 A    
C263  C306  1.406252 A    
C108  C588  1.478838 S    
C194  N98   1.436418 S    
C319  H127  1.084310 S    
C63   C444  1.465691 S    
O183  Cu44  1.979954 S    
N54   O204  1.301512 A    
C161  C425  1.402069 A    
C258  C309  1.406257 A    
O190  Cu45  1.979952 S    
C287  C321  1.406253 A    
N114  O323  1.301210 A    
O100  Cu4   1.979952 S    
O55   C4    1.286804 A    
C280  C305  1.406253 A    
C359  H23   1.083649 S    
N86   O267  1.301212 A    
O62   C5    1.286794 A    
C169  C601  1.420882 A    
C195  C615  1.420881 A    
C125  N34   1.356104 A    
O3    Cu3   1.918107 S    
C223  C343  1.402090 A    
O157  C54   1.285589 A    
C145  C409  1.402088 A    
N68   O232  1.301508 A    
C367  H31   1.083643 S    
C275  C336  1.406253 A    
O133  Cu30  1.979951 S    
C171  N75   1.437877 S    
N75   O246  1.301474 A    
C186  C402  1.396584 A    
O67   C9    1.286805 A    
N94   O283  1.301214 A    
C411  C435  1.396878 A    
C414  H78   1.083992 S    
N128  O352  1.301514 A    
C423  C447  1.396880 A    
C18   C490  1.448493 S    
C147  C579  1.420883 A    
O133  C70   1.285592 A    
O118  C93   1.282844 A    
O31   Cu28  1.918110 S    
C337  H1    1.083657 S    
N83   O262  1.301472 A    
C356  C433  1.396259 A    
C329  H137  1.084314 S    
O189  C83   1.285590 A    
C232  N136  1.436410 S    
C332  H140  1.084313 S    
O33   C26   1.286804 A    
C333  H141  1.084310 S    
C162  C594  1.419977 A    
N90   O276  1.301511 A    
N133  O362  1.301475 A    
C284  C553  1.453189 S    
C264  C297  1.406255 A    
C326  H134  1.084311 S    
C138  N39   1.356109 A    
C155  C419  1.402090 A    
N131  O358  1.301477 A    
C343  H7    1.083645 S    
N61   O217  1.301351 A    
C52   C468  1.465678 S    
C416  H80   1.083992 S    
C426  H90   1.083987 S    
C123  N15   1.355672 A    
O160  Cu11  1.979952 S    
O73   Cu37  1.918109 S    
C37   C516  1.448488 S    
C236  N140  1.436409 S    
N135  O366  1.301472 A    
N110  O316  1.301511 A    
O2    C40   1.286793 A    
N125  O345  1.301352 A    
C249  C318  1.406253 A    
C274  C331  1.406254 A    
C127  N19   1.355674 A    
O151  C52   1.285591 A    
C210  C378  1.396583 A    
O68   Cu23  1.918108 S    
N144  O384  1.301513 A    
C482  C530  1.213869 T    
C226  C346  1.396582 A    
O76   Cu40  1.918108 S    
C186  N90   1.436416 S    
C421  H85   1.083648 S    
C249  C293  1.406254 A    
C428  H92   1.083996 S    
N70   O235  1.301212 A    
C342  C445  1.396255 A    
N105  O306  1.301477 A    
O67   Cu24  1.918108 S    
O110  C89   1.282846 A    
C197  C617  1.420882 A    
O113  C95   1.285588 A    
C105  N5    1.355671 A    
C222  C342  1.396581 A    
C352  H16   1.083990 S    
O14   C41   1.286794 A    
C394  H58   1.083990 S    
C128  C608  1.478810 S    
C235  N139  1.437875 S    
C100  C580  1.478822 S    
C66   C449  1.465759 S    
C405  H69   1.083645 S    
C110  C590  1.478827 S    
O123  C68   1.285589 A    
C212  C380  1.396583 A    
C121  N32   1.356106 A    
C107  N7    1.355670 A    
C283  C302  1.406253 A    
C25   C481  1.448493 S    
C512  C560  1.213865 T    
C143  N48   1.355669 A    
C116  N12   1.356105 A    
C121  C601  1.478813 S    
C411  H75   1.083650 S    
O139  C84   1.285592 A    
C414  C438  1.396258 A    
O81   C23   1.286804 A    
C100  N4    1.356105 A    
C269  C568  1.453187 S    
O125  C62   1.285592 A    
C243  C291  1.406257 A    
C396  H60   1.083988 S    
N56   O207  1.301215 A    
N80   O256  1.301510 A    
O175  Cu40  1.979954 S    
C369  C472  1.396872 A    
C237  N141  1.437873 S    
O5    C38   1.286803 A    
N76   O248  1.301513 A    
C281  C556  1.453187 S    
C497  C545  1.213871 T    
C264  C545  1.453186 S    
C69   C454  1.465678 S    
C134  N38   1.356110 A    
C373  H37   1.083648 S    
C86   C477  1.465678 S    
N118  O331  1.301214 A    
C505  C553  1.213866 T    
C380  H44   1.083986 S    
Cu19  Cu22  2.628531 S    
C211  C379  1.402092 A    
N107  O310  1.301476 A    
C73   C456  1.465668 S    
O78   C20   1.286794 A    
C171  C387  1.402086 A    
C481  C529  1.213866 T    
C36   C488  1.448492 S    
C343  C450  1.396877 A    
N103  O302  1.301474 A    
C318  H126  1.084311 S    
O161  Cu22  1.979951 S    
C390  H54   1.083990 S    
C357  H21   1.083650 S    
C387  H51   1.083649 S    
C372  C478  1.396256 A    
C198  C618  1.419981 A    
O93   C35   1.286804 A    
C161  N65   1.437816 S    
O39   C24   1.286804 A    
N85   O266  1.301475 A    
C115  C595  1.478824 S    
C401  H65   1.083652 S    
C126  N25   1.355661 A    
C415  H79   1.083649 S    
C312  H120  1.084313 S    
O139  Cu35  1.979952 S    
C4    C527  1.448490 S    
N75   O245  1.301349 A    
C103  N2    1.355674 A    
C338  C447  1.396258 A    
N89   O274  1.301474 A    
O122  Cu26  1.979954 S    
C313  H121  1.084313 S    
C134  C614  1.478812 S    
C269  C328  1.406258 A    
C126  N18   1.356092 A    
C184  N88   1.436416 S    
C99   C579  1.478825 S    
C347  C440  1.396879 A    
C377  H41   1.083647 S    
O189  Cu46  1.979952 S    
O50   Cu5   1.918109 S    
C185  C610  1.420878 A    
C200  C620  1.419982 A    
C40   C515  1.448490 S    
C265  C325  1.406256 A    
C202  N106  1.436414 S    
C316  H124  1.084314 S    
O54   C1    1.286794 A    
C107  C587  1.478823 S    
O130  Cu30  1.979954 S    
C113  N25   1.356098 A    
N86   O268  1.301511 A    
O155  Cu16  1.979953 S    
C96   C476  1.465688 S    
O24   Cu24  1.918107 S    
C341  H5    1.083647 S    
O91   C29   1.286805 A    
C260  C313  1.406253 A    
C310  H118  1.084311 S    
O87   Cu44  1.918109 S    
C501  C549  1.213872 T    
O2    Cu2   1.918109 S    
C420  H84   1.083992 S    
O52   C2    1.286793 A    
C112  C592  1.478826 S    
N91   O277  1.301349 A    
C526  C574  1.213872 T    
C79   C436  1.465683 S    
C267  C327  1.406257 A    
O59   C5    1.286803 A    
C157  N61   1.437880 S    
N62   O220  1.301513 A    
N54   O203  1.301215 A    
O64   Cu11  1.918108 S    
C404  C457  1.396256 A    
C98   N22   1.355679 A    
C19   C501  1.448489 S    
O80   C18   1.286793 A    
O11   C41   1.286803 A    
C384  C471  1.396258 A    
C102  C582  1.478825 S    
O71   C12   1.286804 A    
N122  O340  1.301513 A    
O117  C94   1.285591 A    
C152  N56   1.436412 S    
C404  H68   1.083991 S    
C254  C295  1.406251 A    
O132  Cu32  1.979951 S    
C128  N23   1.355670 A    
C164  N68   1.436370 S    
C141  N42   1.356108 A    
O187  Cu47  1.979952 S    
C282  C303  1.406252 A    
C358  H22   1.083990 S    
C307  H115  1.084311 S    
O95   C33   1.286804 A    
N50   O196  1.301515 A    
N134  O363  1.301212 A    
N127  O350  1.301473 A    
C224  C587  1.419979 A    
C520  C568  1.213870 T    
N68   O231  1.301237 A    
N96   O288  1.301511 A    
O134  C69   1.282844 A    
C153  C585  1.420882 A    
C386  C458  1.396256 A    
C383  H47   1.083649 S    
C146  N50   1.436415 S    
C527  C575  1.213871 T    
N128  O351  1.301215 A    
C120  C600  1.478823 S    
N60   O216  1.301510 A    
N95   O285  1.301355 A    
O60   C6    1.286793 A    
N137  O369  1.301350 A    
C248  C529  1.453189 S    
C160  C424  1.396578 A    
C419  C443  1.396879 A    
C175  N79   1.437880 S    
C125  N17   1.355673 A    
C205  N109  1.437874 S    
N90   O275  1.301211 A    
C185  N89   1.437877 S    
O102  Cu6   1.979951 S    
C65   C448  1.465682 S    
C199  C367  1.402090 A    
Cu35  Cu45  2.628531 S    
C102  N24   1.355676 A    
C145  C577  1.420878 A    
N61   O218  1.301477 A    
C243  C534  1.453187 S    
O37   C22   1.286804 A    
O146  C52   1.282843 A    
C283  C311  1.406251 A    
C248  C289  1.406254 A    
C257  C297  1.406254 A    
C286  C317  1.406255 A    
C229  C349  1.402089 A    
O126  Cu25  1.979951 S    
C134  N42   1.355674 A    
C208  N112  1.436416 S    
O175  C65   1.285591 A    
C238  N142  1.436414 S    
C292  H100  1.084312 S    
O109  C90   1.285592 A    
N78   O252  1.301511 A    
N143  O382  1.301472 A    
N110  O315  1.301212 A    
O179  Cu43  1.979953 S    
O165  C58   1.285588 A    
C109  N15   1.356104 A    
C277  C308  1.406256 A    
C397  C462  1.396874 A    
C6    C521  1.448490 S    
C219  C600  1.420881 A    
N144  O383  1.301213 A    
O149  Cu2   1.979952 S    
C23   C483  1.448489 S    
Cu2   Cu7   2.628528 S    
N49   O193  1.301347 A    
C147  N51   1.437874 S    
O103  Cu7   1.979954 S    
C264  C311  1.406254 A    
O128  Cu27  1.979953 S    
C338  H2    1.083989 S    
C277  C315  1.406251 A    
O9    Cu9   1.918108 S    
C324  H132  1.084310 S    
C101  N31   1.356109 A    
N106  O308  1.301513 A    
O22   Cu22  1.918108 S    
C255  C294  1.406255 A    
C302  H110  1.084309 S    
O91   Cu47  1.918108 S    
C270  C334  1.406253 A    
C256  C293  1.406253 A    
C402  H66   1.083991 S    
C194  C614  1.419983 A    
C216  C615  1.419981 A    
C204  C372  1.396585 A    
O152  Cu3   1.979953 S    
C364  C472  1.396257 A    
O90   C32   1.286793 A    
C154  N58   1.436418 S    
C127  N30   1.356108 A    
C496  C544  1.213870 T    
C247  C530  1.453189 S    
O146  Cu5   1.979954 S    
C270  C327  1.406252 A    
C240  C360  1.396581 A    
C418  H82   1.083991 S    
C289  H97   1.084314 S    
C56   C459  1.465676 S    
O107  C89   1.285591 A    
O183  C73   1.285588 A    
C2    C526  1.448489 S    
C64   C451  1.465682 S    
C253  C296  1.406253 A    
O34   Cu30  1.918110 S    
C71   C452  1.465702 S    
C76   C437  1.465681 S    
N123  O342  1.301476 A    
N80   O255  1.301212 A    
C213  C623  1.420880 A    
O104  Cu8   1.979953 S    
C394  C465  1.396258 A    
C53   C461  1.465680 S    
O190  C84   1.282843 A    
C261  C304  1.406255 A    
C368  H32   1.083995 S    
C427  C451  1.396879 A    
N76   O247  1.301215 A    
C430  H94   1.083993 S    
O23   Cu23  1.918109 S    
O153  C55   1.285590 A    
C174  N78   1.436407 S    
C518  C566  1.213869 T    
C183  C399  1.402089 A    
C345  C436  1.396879 A    
O10   C44   1.286794 A    
O138  Cu34  1.979953 S    
C171  C603  1.420883 A    
C255  C322  1.406256 A    
O47   Cu36  1.918109 S    
C262  C299  1.406256 A    
O48   C31   1.286794 A    
N91   O278  1.301472 A    
O36   Cu32  1.918107 S    
C224  N128  1.436412 S    
C305  H113  1.084312 S    
C150  C414  1.396580 A    
C244  C292  1.406253 A    
C162  C426  1.396585 A    
C267  C329  1.406253 A    
C58   C458  1.465681 S    
O84   C22   1.286793 A    
N52   O200  1.301511 A    
C124  C604  1.478813 S    
C257  C552  1.453190 S    
N92   O280  1.301513 A    
C155  C587  1.420879 A    
C160  C592  1.419979 A    
C51   C466  1.465676 S    
N51   O198  1.301476 A    
C181  C606  1.420883 A    
C281  C313  1.406253 A    
C21   C487  1.448489 S    
C321  H129  1.084314 S    
C130  N29   1.355673 A    
O1    Cu1   1.918109 S    
O184  Cu43  1.979952 S    
O188  Cu48  1.979952 S    
C349  C438  1.396880 A    
C351  C434  1.396878 A    
C148  C412  1.396581 A    
O30   C13   1.286794 A    
C140  N37   1.356106 A    
C272  C335  1.406256 A    
C152  C416  1.396582 A    
C125  C605  1.478816 S    
N71   O238  1.301473 A    
C222  C589  1.419980 A    
C382  H46   1.083993 S    
C409  C433  1.396878 A    
C508  C556  1.213870 T    
O142  Cu33  1.979952 S    
C406  H70   1.083986 S    
O147  C49   1.285591 A    
O4    Cu4   1.918108 S    
C180  N84   1.436410 S    
N62   O219  1.301215 A    
O192  C82   1.282846 A    
C124  N21   1.355675 A    
C190  C605  1.419981 A    
C175  C607  1.420881 A    
C279  C309  1.406251 A    
O26   C17   1.286793 A    
C16   C494  1.448490 S    
O32   C15   1.286793 A    
Cu9   Cu16  2.628530 S    
C57   C462  1.465658 S    
C244  C321  1.406255 A    
C168  C600  1.419975 A    
C9    C524  1.448492 S    
C509  C557  1.213869 T    
Cu20  Cu21  2.628529 S    
C384  H48   1.083991 S    
N82   O260  1.301510 A    
C216  N120  1.436414 S    
C158  N62   1.436408 S    
N122  O339  1.301214 A    
C427  H91   1.083649 S    
C430  C454  1.396258 A    
O96   C34   1.286794 A    
N87   O269  1.301349 A    
C231  C578  1.420880 A    
C375  C470  1.396878 A    
C97   N33   1.356104 A    
N79   O253  1.301348 A    
C119  N27   1.356106 A    
N121  O337  1.301365 A    
C148  N52   1.436416 S    
N50   O195  1.301210 A    
O1    C39   1.286805 A    
O101  Cu5   1.979952 S    
C103  N35   1.356104 A    
O92   C30   1.286793 A    
N96   O287  1.301215 A    
C304  H112  1.084309 S    
C112  N34   1.355676 A    
C422  H86   1.083993 S    
C428  C452  1.396264 A    
O76   C14   1.286793 A    
O21   C46   1.286804 A    
O97   C87   1.285591 A    
C419  H83   1.083648 S    
O125  Cu26  1.979952 S    
C391  C463  1.396877 A    
O55   Cu4   1.918110 S    
N117  O329  1.301348 A    
N137  O370  1.301476 A    
O15   C44   1.286804 A    
O49   C3    1.286805 A    
C275  C574  1.453185 S    
C374  H38   1.083989 S    
C395  H59   1.083643 S    
C38   C514  1.448491 S    
O171  Cu39  1.979951 S    
C247  C314  1.406251 A    
O178  Cu42  1.979954 S    
O128  C63   1.282846 A    
C108  N36   1.355675 A    
O61   C6    1.286804 A    
C135  C615  1.478817 S    
O141  C78   1.285591 A    
C178  C609  1.419981 A    
C278  C324  1.406256 A    
C204  C622  1.419977 A    
C20   C496  1.448488 S    
O109  Cu13  1.979951 S    
C215  C383  1.402090 A    
O94   Cu45  1.918108 S    
C399  C458  1.396878 A    
C122  C602  1.478817 S    
C375  H39   1.083648 S    
N63   O222  1.301476 A    
C409  H73   1.083648 S    
C398  C467  1.396258 A    
C82   C441  1.465685 S    
C179  C608  1.420881 A    
O21   Cu21  1.918108 S    
O187  C77   1.285593 A    
N78   O251  1.301210 A    
C183  N87   1.437878 S    
O191  Cu48  1.979953 S    
O123  Cu27  1.979951 S    
C288  C319  1.406256 A    
C322  H130  1.084310 S    
C54   C463  1.465680 S    
C149  N53   1.437877 S    
O158  C53   1.282841 A    
O179  C69   1.285589 A    
C195  C363  1.402090 A    
C363  H27   1.083646 S    
C133  N48   1.356104 A    
N132  O360  1.301516 A    
C91   C469  1.465676 S    
O115  Cu19  1.979952 S    
O145  Cu6   1.979953 S    
N77   O249  1.301345 A    
C260  C549  1.453185 S    
C346  H10   1.083991 S    
N57   O209  1.301349 A    
C299  H107  1.084310 S    
C239  C359  1.402089 A    
N49   O194  1.301476 A    
O12   Cu12  1.918107 S    
C233  C353  1.402086 A    
N106  O307  1.301214 A    
O77   C19   1.286803 A    
C209  C377  1.402086 A    
O69   Cu18  1.918108 S    
C514  C562  1.213870 T    
C114  N14   1.355672 A    
C287  C312  1.406253 A    
C330  H138  1.084311 S    
O33   Cu29  1.918108 S    
C177  C604  1.420878 A    
C143  N43   1.356107 A    
O167  C60   1.285590 A    
O34   C25   1.286794 A    
C334  H142  1.084311 S    
C355  H19   1.083647 S    
C237  C590  1.420882 A    
C377  C478  1.396882 A    
C182  C611  1.419982 A    
C488  C536  1.213868 T    
C385  H49   1.083649 S    
C202  C621  1.419982 A    
C294  H102  1.084311 S    
O184  C74   1.282842 A    
O167  Cu20  1.979953 S    
C200  N104  1.436393 S    
C380  C469  1.396255 A    
C348  H12   1.084001 S    
C49   C467  1.465679 S    
O72   Cu19  1.918107 S    
C395  C464  1.396878 A    
C7    C519  1.448489 S    
C218  C591  1.419979 A    
Cu32  Cu42  2.628530 S    
C80   C443  1.465679 S    
O144  Cu35  1.979951 S    
C355  C448  1.396879 A    
C111  N19   1.356111 A    
C148  C580  1.419981 A    
C209  N113  1.437883 S    
C245  C532  1.453187 S    
C131  N33   1.355676 A    
C204  N108  1.436416 S    
C186  C607  1.419981 A    
C491  C539  1.213869 T    
N138  O372  1.301515 A    
N107  O309  1.301357 A    
C218  C338  1.396582 A    
C243  C316  1.406253 A    
C172  C388  1.396582 A    
C270  C567  1.453190 S    
O160  C55   1.282842 A    
C303  H111  1.084312 S    
C206  C374  1.396582 A    
O176  Cu39  1.979953 S    
N55   O205  1.301349 A    
C223  N127  1.437884 S    
C194  C362  1.396583 A    
O144  C79   1.282844 A    
C5    C523  1.448489 S    
C232  C595  1.419980 A    
C357  C446  1.396879 A    
C149  C413  1.402090 A    
O118  Cu22  1.979952 S    
O11   Cu11  1.918108 S    
O29   C14   1.286803 A    
C196  N100  1.436411 S    
C432  C456  1.396261 A    
C61   C446  1.465684 S    
O136  C71   1.282848 A    
O180  C70   1.282843 A    
N52   O199  1.301208 A    
N100  O296  1.301516 A    
N92   O279  1.301211 A    
C335  H143  1.084310 S    
C140  C620  1.478835 S    
C119  C599  1.478823 S    
C203  C371  1.402082 A    
C511  C559  1.213868 T    
C123  N36   1.356105 A    
O156  C54   1.282845 A    
C354  H18   1.083994 S    
O16   C43   1.286793 A    
N99   O294  1.301470 A    
O116  Cu20  1.979952 S    
C249  C544  1.453190 S    
C217  C596  1.420889 A    
C181  N85   1.437877 S    
C139  N38   1.355672 A    
C35   C493  1.448489 S    
N101  O297  1.301351 A    
O79   Cu40  1.918110 S    
C344  H8    1.083992 S    
N126  O348  1.301511 A    
N97   O289  1.301344 A    
O138  C81   1.282843 A    
C193  C613  1.420879 A    
O6    C37   1.286794 A    
O119  Cu23  1.979953 S    
N93   O281  1.301349 A    
C366  C474  1.396258 A    
O171  C61   1.285593 A    
C254  C307  1.406253 A    
C280  C320  1.406255 A    
C133  C613  1.478816 S    
C46   C508  1.448489 S    
C131  C611  1.478812 S    
C417  C441  1.396875 A    
O135  Cu32  1.979954 S    
O132  C75   1.282841 A    
C490  C538  1.213867 T    
O50   C4    1.286793 A    
C120  N9    1.356100 A    
C92   C471  1.465684 S    
C179  N83   1.437881 S    
C351  H15   1.083647 S    
C156  C588  1.419978 A    
C241  C289  1.406256 A    
O156  Cu15  1.979951 S    
O145  C51   1.285591 A    
O182  Cu41  1.979952 S    
C298  H106  1.084311 S    
O186  Cu46  1.979953 S    
O42   C33   1.286793 A    
C331  H139  1.084316 S    
N82   O259  1.301223 A    
N119  O334  1.301477 A    
C235  C592  1.420882 A    
C159  N63   1.437875 S    
C258  C298  1.406252 A    
C327  H135  1.084312 S    
C248  C319  1.406254 A    
C219  N123  1.437869 S    
C400  H64   1.083990 S    
C368  C476  1.396261 A    
C233  N137  1.437873 S    
O54   Cu1   1.918107 S    
O73   C15   1.286805 A    
C191  C609  1.420879 A    
O43   Cu35  1.918108 S    
N140  O375  1.301211 A    
O49   Cu6   1.918109 S    
C27   C485  1.448490 S    
C120  N18   1.355657 A    
N120  O336  1.301511 A    
N121  O338  1.301476 A    
O53   C2    1.286803 A    
O129  Cu29  1.979952 S    
O6    Cu6   1.918107 S    
O137  C82   1.285589 A    
O192  Cu47  1.979951 S    
O177  Cu41  1.979952 S    
C523  C571  1.213868 T    
C136  C616  1.478806 S    
N124  O344  1.301510 A    
C201  C616  1.420878 A    
N111  O318  1.301473 A    
O93   Cu46  1.918108 S    
C144  N47   1.355672 A    
O191  C81   1.285592 A    
N129  O353  1.301344 A    
O52   Cu7   1.918108 S    
N130  O355  1.301212 A    
O75   Cu39  1.918107 S    
C144  C624  1.478822 S    
C166  C430  1.396582 A    
O30   Cu25  1.918107 S    
C211  C624  1.420880 A    
C233  C588  1.420882 A    
C105  N17   1.356108 A    
C196  C364  1.396581 A    
O56   C3    1.286793 A    
C241  C310  1.406251 A    
O65   C11   1.286805 A    
N88   O272  1.301513 A    
C68   C453  1.465675 S    
C113  C593  1.478979 S    
C200  C368  1.396575 A    
C242  C317  1.406256 A    
C370  H34   1.083991 S    
C83   C434  1.465679 S    
C201  N105  1.437874 S    
C129  N22   1.356108 A    
C75   C450  1.465678 S    
C208  C624  1.419983 A    
C117  N12   1.355669 A    
O89   C31   1.286805 A    
O142  C77   1.282844 A    
C156  N60   1.436402 S    
C500  C548  1.213869 T    
C180  C610  1.419983 A    
C376  H40   1.083987 S    
C138  N44   1.355673 A    
C101  N4    1.355673 A    
O114  Cu18  1.979953 S    
N67   O230  1.301476 A    
Cu25  Cu39  2.628530 S    
C50   C465  1.465676 S    
N136  O368  1.301512 A    
C431  C455  1.396878 A    
C374  C479  1.396260 A    
C97   C577  1.478824 S    
O7    Cu7   1.918110 S    
O174  Cu37  1.979951 S    
O32   Cu27  1.918108 S    
C387  C459  1.396877 A    
N109  O314  1.301476 A    
C105  C585  1.478821 S    
C154  C418  1.396582 A    
C360  H24   1.083990 S    
C230  N134  1.436415 S    
O74   C16   1.286793 A    
C115  N11   1.355674 A    
O124  Cu28  1.979952 S    
C393  C460  1.396878 A    
O4    C38   1.286793 A    
C521  C569  1.213869 T    
N135  O365  1.301349 A    
O86   C28   1.286794 A    
N139  O374  1.301478 A    
C78   C447  1.465683 S    
C425  C449  1.396896 A    
N132  O359  1.301265 A    
C229  N133  1.437874 S    
C203  C620  1.420881 A    
C279  C558  1.453187 S    
C112  N5    1.356106 A    
N77   O250  1.301475 A    
N57   O210  1.301471 A    
O19   C45   1.286805 A    
C341  C454  1.396878 A    
O9    C43   1.286804 A    
C241  C536  1.453187 S    
C109  N8    1.355675 A    
Cu31  Cu41  2.628530 S    
O47   C32   1.286804 A    
C320  H128  1.084314 S    
C159  C423  1.402091 A    
Cu3   Cu6   2.628530 S    
O130  C73   1.282839 A    
C3    C525  1.448493 S    
N69   O233  1.301350 A    
C152  C584  1.419978 A    
C402  C463  1.396257 A    
N98   O292  1.301512 A    
C155  N59   1.437877 S    
O164  Cu23  1.979952 S    
C151  N55   1.437880 S    
C371  H35   1.083650 S    
C199  C619  1.420880 A    
C117  N23   1.356104 A    
C515  C563  1.213871 T    
C336  H144  1.084314 S    
O58   Cu13  1.918110 S    
C108  N8    1.356110 A    
O62   Cu9   1.918109 S    
Cu36  Cu46  2.628529 S    
C273  C334  1.406253 A    
O163  Cu24  1.979952 S    
O98   C88   1.282845 A    
O28   C19   1.286793 A    
C328  H136  1.084309 S    
O176  C66   1.282856 A    
O117  Cu21  1.979952 S    
O10   Cu10  1.918110 S    
C114  C594  1.478811 S    
N141  O378  1.301475 A    
O83   Cu43  1.918108 S    
O14   Cu14  1.918109 S    
C413  H77   1.083648 S    
O39   Cu32  1.918109 S    
C207  C614  1.420879 A    
N138  O371  1.301208 A    
O166  C57   1.282836 A    
N125  O346  1.301473 A    
O84   Cu44  1.918107 S    
O114  C96   1.282843 A    
Cu4   Cu5   2.628528 S    
C142  N45   1.355673 A    
O60   Cu15  1.918107 S    
C389  C461  1.396877 A    
C317  H125  1.084310 S    
C188  C404  1.396581 A    
O66   Cu21  1.918109 S    
C263  C298  1.406256 A    
C286  C563  1.453186 S    
C315  H123  1.084311 S    
C236  C356  1.396582 A    
C350  H14   1.083990 S    
C219  C339  1.402065 A    
N103  O301  1.301349 A    
C492  C540  1.213872 T    
C47   C506  1.448488 S    
O180  Cu44  1.979951 S    
C165  C429  1.402087 A    
C256  C537  1.453187 S    
C55   C457  1.465680 S    
N104  O304  1.301512 A    
N100  O295  1.301220 A    
C502  C550  1.213866 T    
C100  N28   1.355675 A    
N115  O326  1.301474 A    
C87   C478  1.465676 S    
C311  H119  1.084312 S    
C425  H89   1.083668 S    
C178  C394  1.396579 A    
C519  C567  1.213870 T    
C348  C449  1.396291 A    
C164  C428  1.396567 A    
C236  C577  1.419980 A    
N64   O224  1.301513 A    
N87   O270  1.301476 A    
C174  C390  1.396567 A    
C191  C407  1.402085 A    
C166  C598  1.419979 A    
N101  O298  1.301474 A    
O137  Cu33  1.979951 S    
C227  C347  1.402089 A    
O181  Cu42  1.979951 S    
O185  Cu45  1.979951 S    
C309  H117  1.084310 S    
N126  O347  1.301216 A    
C39   C513  1.448493 S    
C403  C468  1.396878 A    
C250  C294  1.406251 A    
O20   Cu20  1.918108 S    
C417  H81   1.083650 S    
N93   O282  1.301471 A    
C135  N39   1.355674 A    
C139  N46   1.356104 A    
C251  C295  1.406254 A    
C278  C559  1.453192 S    
C99   N3    1.355671 A    
C246  C323  1.406253 A    
C104  C584  1.478819 S    
C175  C391  1.402088 A    
O115  C93   1.285593 A    
O45   C30   1.286804 A    
O140  Cu36  1.979952 S    
C393  H57   1.083645 S    
N51   O197  1.301348 A    
O5    Cu5   1.918108 S    
C132  N31   1.355674 A    
N55   O206  1.301475 A    
C281  C304  1.406258 A    
N102  O300  1.301511 A    
C285  C323  1.406253 A    
O107  Cu11  1.979953 S    
C141  N46   1.355675 A    
C124  N16   1.356106 A    
C361  C469  1.396877 A    
C379  C480  1.396878 A    
C167  N71   1.437876 S    
Cu26  Cu40  2.628528 S    
C339  C456  1.396870 A    
C413  C437  1.396877 A    
O29   Cu26  1.918108 S    
C267  C570  1.453187 S    
C230  C597  1.419985 A    
N108  O312  1.301511 A    
Cu10  Cu15  2.628530 S    
O186  C80   1.282845 A    
C128  N20   1.356101 A    
O8    Cu8   1.918108 S    
O111  Cu15  1.979954 S    
C242  C290  1.406253 A    
N81   O257  1.301350 A    
O68   C10   1.286793 A    
O141  Cu34  1.979952 S    
O88   Cu43  1.918108 S    
N120  O335  1.301214 A    
O92   Cu48  1.918108 S    
O149  C50   1.285592 A    
O121  Cu25  1.979953 S    
C118  N11   1.356105 A    
O178  C72   1.282845 A    
N130  O356  1.301512 A    
O75   C13   1.286804 A    
N127  O349  1.301346 A    
C193  C361  1.402089 A    
C275  C332  1.406253 A    
C498  C546  1.213870 T    
C361  H25   1.083647 S    
C263  C546  1.453190 S    
C117  C597  1.478813 S    
C102  N3    1.356109 A    
N124  O343  1.301210 A    
O113  Cu17  1.979951 S    
O170  C64   1.282843 A    
O159  Cu12  1.979954 S    
C198  N102  1.436405 S    
O170  Cu38  1.979954 S    
N129  O354  1.301471 A    
O46   Cu33  1.918108 S    
N74   O244  1.301511 A    
C8    C517  1.448493 S    
C189  C611  1.420882 A    
C297  H105  1.084310 S    
C253  C540  1.453185 S    
N72   O239  1.301218 A    
O154  Cu13  1.979954 S    
O173  Cu38  1.979952 S    
Cu12  Cu13  2.628530 S    
O158  Cu9   1.979952 S    
N88   O271  1.301211 A    
C157  C589  1.420883 A    
C406  C461  1.396257 A    
C234  C354  1.396579 A    
N67   O229  1.301349 A    
O27   Cu27  1.918107 S    
C388  C460  1.396256 A    
C386  H50   1.083990 S    
C353  H17   1.083651 S    
N83   O261  1.301350 A    
C232  C352  1.396579 A    
N53   O201  1.301352 A    
O27   C20   1.286804 A    
C367  C475  1.396881 A    
O19   Cu19  1.918108 S    
C220  C340  1.396582 A    
C45   C512  1.448492 S    
C225  N129  1.437883 S    
N136  O367  1.301213 A    
C180  C396  1.396580 A    
C77   C438  1.465685 S    
C494  C542  1.213871 T    
C228  N132  1.436297 S    
C214  C617  1.419979 A    
C74   C433  1.465683 S    
C184  C400  1.396583 A    
C286  C314  1.406254 A    
N131  O357  1.301346 A    
C239  C586  1.420881 A    
C122  N27   1.355674 A    
C163  C595  1.420883 A    
C95   C472  1.465675 S    
N143  O381  1.301349 A    
O182  C76   1.282845 A    
Cu29  Cu43  2.628530 S    
C130  C610  1.478820 S    
C150  N54   1.436409 S    
C198  C366  1.396578 A    
C227  N131  1.437880 S    
C266  C326  1.406253 A    
C371  C476  1.396877 A    
C34   C482  1.448488 S    
O174  C68   1.282840 A    
C12   C522  1.448490 S    
O159  C56   1.285589 A    
C106  C586  1.478814 S    
O38   C21   1.286794 A    
C376  C480  1.396257 A    
C424  H88   1.083988 S    
C191  N95   1.437874 S    
O143  C80   1.285589 A    
C408  C459  1.396255 A    
O22   C45   1.286794 A    
C362  H26   1.083988 S    
C432  H96   1.083991 S    
C138  C618  1.478831 S    
C345  H9    1.083647 S    
O135  C72   1.285590 A    
C274  C575  1.453186 S    
C59   C460  1.465681 S    
O82   Cu42  1.918110 S    
C285  C316  1.406254 A    
C43   C507  1.448489 S    
O140  C83   1.282842 A    
O13   Cu13  1.918107 S    
N98   O291  1.301213 A    
C373  C474  1.396880 A    
O119  C96   1.285592 A    
C170  C602  1.419981 A    
C122  N14   1.356109 A    
C11   C518  1.448488 S    
C173  N77   1.437880 S    
C256  C303  1.406257 A    
C110  N32   1.355676 A    
C115  N21   1.356105 A    
C201  C369  1.402090 A    
C22   C500  1.448490 S    
N73   O241  1.301348 A    
C106  N6    1.356106 A    
C32   C486  1.448490 S    
O65   Cu22  1.918107 S    
C364  H28   1.083993 S    
C183  C602  1.420878 A    
C344  C443  1.396257 A    
N142  O380  1.301513 A    
C237  C357  1.402089 A    
O95   Cu48  1.918109 S    
C167  C599  1.420884 A    
C266  C571  1.453192 S    
O44   C35   1.286793 A    
C42   C509  1.448490 S    
O108  Cu12  1.979951 S    
C323  H131  1.084311 S    
C165  C597  1.420881 A    
C109  C589  1.478816 S    
C282  C555  1.453190 S    
C116  C596  1.478871 S    
C382  C473  1.396259 A    
O88   C26   1.286793 A    
C251  C324  1.406255 A    
C142  N44   1.356105 A    
N65   O225  1.301373 A    
C239  N143  1.437881 S    
C418  C442  1.396258 A    
C151  C583  1.420879 A    
N141  O377  1.301348 A    
O136  Cu31  1.979952 S    
C14   C492  1.448489 S    
C129  C609  1.478820 S    
C131  N26   1.356105 A    
C362  C470  1.396258 A    
C422  C446  1.396259 A    
C353  C444  1.396877 A    
C192  N96   1.436418 S    
O166  Cu17  1.979952 S    
C280  C557  1.453186 S    
C149  C581  1.420880 A    
C227  C584  1.420879 A    
C159  C591  1.420880 A    
C137  C617  1.478822 S    
C192  C408  1.396580 A    
C392  H56   1.083987 S    
C214  C382  1.396582 A    
C224  C344  1.396580 A    
N104  O303  1.301225 A    
O35   C28   1.286803 A    
C230  C350  1.396574 A    
C206  C623  1.419979 A    
C296  H104  1.084313 S    
C231  C351  1.402090 A    
C111  N6    1.355676 A    
C136  N40   1.356108 A    
C212  N116  1.436415 S    
C420  C444  1.396261 A    
C168  N72   1.436400 S    
C176  C392  1.396581 A    
C506  C554  1.213869 T    
C510  C558  1.213869 T    
Cu17  Cu24  2.628531 S    
O63   Cu12  1.918109 S    
C424  C448  1.396260 A    
O112  Cu16  1.979952 S    
O188  C78   1.282843 A    
O48   Cu35  1.918107 S    
N64   O223  1.301214 A    
C337  C452  1.396878 A    
C347  H11   1.083645 S    
N97   O290  1.301476 A    
C214  N118  1.436410 S    
C182  N86   1.436420 S    
C210  C619  1.419982 A    
C135  N45   1.356109 A    
O111  C92   1.285590 A    
C162  N66   1.436421 S    
C202  C370  1.396581 A    
C225  C580  1.420881 A    
O106  Cu10  1.979954 S    
N71   O237  1.301350 A    
C216  C384  1.396578 A    
O134  Cu29  1.979952 S    
C284  C301  1.406254 A    
C190  C406  1.396581 A    
N113  O321  1.301349 A    
O110  Cu14  1.979952 S    
O20   C46   1.286793 A    
C285  C564  1.453190 S    
O172  C62   1.282842 A    
O46   C29   1.286794 A    
C29   C495  1.448492 S    
C268  C336  1.406255 A    
O80   Cu39  1.918108 S    
N123  O341  1.301348 A    
C403  H67   1.083646 S    
O162  C60   1.282841 A    
C240  N144  1.436409 S    
O70   Cu17  1.918108 S    
C197  N101  1.437879 S    
C199  N103  1.437884 S    
C271  C566  1.453189 S    
C220  C585  1.419982 A    
O120  Cu24  1.979951 S    
C28   C504  1.448492 S    
C431  H95   1.083649 S    
N102  O299  1.301212 A    
C372  H36   1.083991 S    
C269  C332  1.406253 A    
C187  C403  1.402087 A    
O64   C7    1.286793 A    
C26   C498  1.448489 S    
C352  C451  1.396262 A    
C129  N35   1.355675 A    
O169  Cu37  1.979953 S    
C489  C537  1.213869 T    
C44   C505  1.448493 S    
C234  C583  1.419980 A    
C107  N13   1.356106 A    
O153  Cu14  1.979952 S    
N117  O330  1.301475 A    
C405  C467  1.396877 A    
N69   O234  1.301473 A    
N108  O311  1.301215 A    
O150  C49   1.282842 A    
C291  H99   1.084312 S    
O157  Cu10  1.979951 S    
C271  C326  1.406253 A    
N81   O258  1.301472 A    
