data_mof_unit_64224.cif
_audit_creation_date              2012-12-10T20:22:44-0500
_audit_creation_method            fapswitch 2.2
_symmetry_space_group_name_H-M    P1
_symmetry_Int_Tables_number       1
_space_group_crystal_system       triclinic
_cell_length_a                    25.705371
_cell_length_b                    36.27093
_cell_length_c                    22.19512
_cell_angle_alpha                 89.946334
_cell_angle_beta                  125.192424
_cell_angle_gamma                 90.057221
_cell_volume                      16911.3930283

loop_
_atom_site_label
_atom_site_type_symbol
_atom_type_description
_atom_site_fract_x
_atom_site_fract_y
_atom_site_fract_z
_atom_type_partial_charge
C1    C     C_R   0.858171 0.750013 0.999979 0.906621
C2    C     C_3   0.265876 0.758486 0.067846 -0.288624
C3    C     C_1   0.499963 0.611477 0.000060 -0.096970
C4    C     C_R   0.000013 0.849011 0.999981 0.816286
C5    C     C_R   0.999997 0.150990 0.000024 0.818033
C6    C     C_R   0.500003 0.349010 0.999976 0.817744
C7    C     C_R   0.499987 0.650989 0.000019 0.816015
C8    C     C_R   0.000016 0.651037 0.000014 0.816347
C9    C     C_R   0.999988 0.348963 0.999994 0.804093
C10   C     C_R   0.500013 0.151038 0.000005 0.804832
C11   C     C_R   0.499983 0.848962 0.999984 0.816639
C12   C     C_R   0.941859 0.480585 0.968561 0.214583
C13   C     C_3   0.265917 0.241619 0.067927 -0.285894
C14   C     C_R   0.058403 0.519429 0.031780 0.283808
C15   C     C_R   0.056065 0.480852 0.019718 0.301716
C16   C     C_R   0.944222 0.519141 0.980728 0.308349
C17   C     C_R   0.441972 0.980560 0.970552 0.284481
C18   C     C_R   0.557817 0.019433 0.029034 0.285391
C19   C     C_R   0.555049 0.980868 0.016725 0.289957
C20   C     C_R   0.444712 0.019137 0.982789 0.288139
C21   C     C_R   0.998814 0.461552 0.992988 -0.261308
C22   C     C_R   0.001436 0.538452 0.007371 -0.242249
C23   C     C_R   0.498359 0.961547 0.992533 -0.244256
C24   C     C_3   0.759579 0.784200 0.984014 -0.286846
C25   C     C_R   0.501444 0.038450 0.007094 -0.245358
C26   C     C_1   0.999585 0.421671 0.995947 0.242127
C27   C     C_1   0.000554 0.578331 0.004261 0.267742
C28   C     C_1   0.499354 0.921668 0.995706 0.273964
C29   C     C_1   0.500532 0.078330 0.004078 0.274326
C30   C     C_1   0.999992 0.611549 0.001666 -0.029946
C31   C     C_1   0.000046 0.388453 0.998413 -0.015896
C32   C     C_1   0.499977 0.111549 0.001574 -0.029870
C33   C     C_1   0.499989 0.888451 0.998335 -0.030649
C34   C     C_3   0.221973 0.716535 0.979870 -0.281518
C35   C     C_3   0.234126 0.741516 0.932158 -0.289043
C36   C     C_3   0.777967 0.283479 0.020018 -0.277306
C37   C     C_3   0.741688 0.725900 0.948779 -0.239402
C38   C     C_3   0.221954 0.283443 0.979627 -0.284356
C39   C     C_3   0.722022 0.216512 0.979966 -0.280290
C40   C     C_3   0.278030 0.783468 0.020134 -0.281063
C41   C     C_3   0.278045 0.216558 0.020371 -0.283352
C42   C     C_3   0.758311 0.774101 0.051219 -0.239226
C43   C     C_3   0.765855 0.258534 0.067809 -0.289634
C44   C     C_3   0.740419 0.715801 0.015984 -0.286935
C45   C     C_3   0.234082 0.258382 0.932072 -0.286600
C46   C     C_3   0.801567 0.249513 0.000837 -0.152063
C47   C     C_3   0.198432 0.750487 0.999161 -0.150579
C48   C     C_3   0.198456 0.249532 0.999218 -0.150246
C49   C     C_R   0.141724 0.249868 0.999828 0.854835
C50   C     C_3   0.801000 0.749962 0.999780 -0.164276
C51   C     C_3   0.301571 0.749515 0.000843 -0.150664
C52   C     C_3   0.698425 0.250478 0.999149 -0.151977
C53   C     C_3   0.698999 0.750040 0.000219 -0.164246
C54   C     C_3   0.301543 0.250469 0.000781 -0.150541
C55   C     C_3   0.789669 0.224920 0.047946 0.558650
C56   C     C_3   0.210369 0.775115 0.952129 0.558936
C57   C     C_3   0.210367 0.224822 0.952335 0.558337
C58   C     C_3   0.799704 0.740012 0.065805 0.529182
C59   C     C_3   0.289634 0.724887 0.047876 0.558888
C60   C     C_R   0.141713 0.750141 0.999794 0.853479
C61   C     C_3   0.710321 0.275070 0.952039 0.555892
C62   C     C_3   0.700295 0.759990 0.934193 0.529210
C63   C     C_3   0.289632 0.275179 0.047664 0.558417
C64   C     C_R   0.687498 0.736766 0.461773 -0.155506
C65   C     C_R   0.309485 0.267391 0.538235 -0.155087
C66   C     C_R   0.312701 0.737141 0.538261 -0.149514
C67   C     C_R   0.691305 0.268244 0.461705 -0.155301
C68   C     C_R   0.190515 0.232608 0.461765 -0.155498
C69   C     C_R   0.812502 0.763234 0.538227 -0.155601
C70   C     C_R   0.808697 0.231758 0.538295 -0.155522
C71   C     C_R   0.858287 0.249860 0.000207 0.855463
C72   C     C_R   0.187297 0.762856 0.461739 -0.149656
C73   C     C_R   0.711319 0.749948 0.422764 0.146137
C74   C     C_R   0.288686 0.250043 0.577236 0.145871
C75   C     C_R   0.288697 0.749984 0.577242 0.146246
C76   C     C_R   0.711324 0.250030 0.422758 0.146098
C77   C     C_R   0.211314 0.249956 0.422764 0.145893
C78   C     C_R   0.788681 0.750052 0.577236 0.146121
C79   C     C_R   0.788679 0.249972 0.577241 0.145549
C80   C     C_R   0.211302 0.750013 0.422758 0.146266
C81   C     C_R   0.773890 0.763182 0.461129 -0.158172
C82   C     C_R   0.358276 0.250132 0.000172 0.855473
C83   C     C_R   0.229132 0.232652 0.538863 -0.160247
C84   C     C_R   0.225925 0.762843 0.538839 -0.161326
C85   C     C_R   0.770090 0.231787 0.461195 -0.159902
C86   C     C_R   0.270868 0.267348 0.461137 -0.159717
C87   C     C_R   0.726110 0.736818 0.538871 -0.158291
C88   C     C_R   0.729912 0.268215 0.538805 -0.159694
C89   C     C_R   0.274074 0.737154 0.461161 -0.161182
C90   C     C_1   0.671608 0.749915 0.343468 -0.046351
C91   C     C_1   0.328398 0.250077 0.656532 -0.047917
C92   C     C_1   0.328412 0.749967 0.656544 -0.042610
C93   C     C_R   0.641828 0.749987 0.000021 0.906446
C94   C     C_1   0.671622 0.250054 0.343456 -0.047530
C95   C     C_1   0.171602 0.249923 0.343468 -0.047810
C96   C     C_1   0.828392 0.750084 0.656532 -0.046551
C97   C     C_1   0.828380 0.249947 0.656543 -0.047638
C98   C     C_1   0.171587 0.750031 0.343455 -0.042599
C99   C     C_1   0.861612 0.750080 0.722966 -0.096386
C100  C     C_1   0.138383 0.249925 0.277034 -0.098501
C101  C     C_1   0.138370 0.750032 0.277019 -0.093205
C102  C     C_1   0.861599 0.249948 0.722980 -0.096978
C103  C     C_1   0.361617 0.250075 0.722966 -0.098751
C104  C     C_R   0.641710 0.250137 0.999788 0.856351
C105  C     C_1   0.638388 0.749920 0.277034 -0.096152
C106  C     C_1   0.638402 0.250053 0.277020 -0.098258
C107  C     C_1   0.361629 0.749967 0.722981 -0.093149
C108  C     C_R   0.967918 0.019221 0.023995 -0.148359
C109  C     C_R   0.032158 0.980783 0.976026 -0.147838
C110  C     C_R   0.032153 0.019335 0.976067 -0.150899
C111  C     C_R   0.967924 0.980670 0.023953 -0.155613
C112  C     C_R   0.464949 0.519217 0.020085 -0.148414
C113  C     C_R   0.534980 0.480778 0.979901 -0.148112
C114  C     C_R   0.534975 0.519329 0.979944 -0.155611
C115  C     C_R   0.358288 0.749860 0.000207 0.853607
C116  C     C_R   0.464954 0.480666 0.020042 -0.151533
C117  C     C_R   0.000033 0.038619 0.000052 0.136976
C118  C     C_R   0.000043 0.961385 0.999968 0.139467
C119  C     C_R   0.499961 0.538615 0.000036 0.139470
C120  C     C_R   0.499969 0.461381 0.999949 0.136889
C121  C     C_R   0.098931 0.750004 0.197985 0.841948
C122  C     C_R   0.901054 0.249986 0.802015 0.817179
C123  C     C_R   0.901051 0.750023 0.801995 0.821474
C124  C     C_R   0.098947 0.249978 0.198005 0.819048
C125  C     C_R   0.598946 0.250014 0.197985 0.820372
C126  C     C_3   0.734136 0.241457 0.932177 -0.287889
C127  C     C_R   0.401069 0.749996 0.802015 0.841823
C128  C     C_R   0.401053 0.250022 0.801995 0.818694
C129  C     C_R   0.598949 0.749977 0.198005 0.821675
C130  C     C_1   0.000014 0.078264 0.000077 -0.039878
C131  C     C_1   0.000048 0.921739 0.999939 -0.044128
C132  C     C_1   0.499955 0.578261 0.000063 -0.044412
C133  C     C_1   0.499987 0.421736 0.999924 -0.039981
C134  C     C_1   0.000038 0.888523 0.999941 -0.096786
C135  C     C_1   0.000001 0.111480 0.000073 -0.087596
C136  C     C_1   0.499999 0.388520 0.999927 -0.087718
H1    H     H_    0.639179 0.726475 0.432632 0.160847
H2    H     H_    0.057128 0.034080 0.957443 0.168236
H3    H     H_    0.057140 0.966127 0.957373 0.168511
H4    H     H_    0.942935 0.033877 0.042646 0.167389
H5    H     H_    0.437725 0.465921 0.035638 0.168013
H6    H     H_    0.562205 0.534073 0.964350 0.161771
H7    H     H_    0.562215 0.466122 0.964278 0.167953
H8    H     H_    0.437715 0.533875 0.035709 0.168334
H9    H     H_    0.864787 0.593906 0.010162 0.390719
H10   H     H_    0.135736 0.405856 0.991211 0.390623
H11   H     H_    0.166966 0.594936 0.144464 0.394213
H12   H     H_    0.355457 0.280917 0.567383 0.161342
H13   H     H_    0.879310 0.431289 0.837584 0.355483
H14   H     H_    0.368323 0.094129 0.016256 0.388987
H15   H     H_    0.631059 0.906061 0.982271 0.390930
H16   H     H_    0.668011 0.094857 0.139077 0.394305
H17   H     H_    0.331899 0.905031 0.860811 0.394497
H18   H     H_    0.721583 0.234790 0.876458 0.193874
H19   H     H_    0.278442 0.765109 0.123587 0.193057
H20   H     H_    0.278522 0.235085 0.123735 0.193514
H21   H     H_    0.767610 0.812066 0.970087 0.197846
H22   H     H_    0.221560 0.734893 0.876417 0.192871
H23   H     H_    0.361174 0.727139 0.567428 0.162327
H24   H     H_    0.778408 0.265200 0.123528 0.193659
H25   H     H_    0.732389 0.687935 0.029912 0.197729
H26   H     H_    0.221477 0.264915 0.876264 0.193146
H27   H     H_    0.198810 0.689017 0.964039 0.199474
H28   H     H_    0.801083 0.311010 0.035763 0.202376
H29   H     H_    0.735004 0.706483 0.906203 0.208593
H30   H     H_    0.198784 0.310944 0.963614 0.194599
H31   H     H_    0.698905 0.188981 0.964222 0.200350
H32   H     H_    0.301193 0.810985 0.035965 0.199935
H33   H     H_    0.301215 0.189057 0.036385 0.195225
H34   H     H_    0.645948 0.282433 0.432512 0.161292
H35   H     H_    0.764995 0.793518 0.093795 0.208778
H36   H     H_    0.835841 0.152398 0.183993 0.393460
H37   H     H_    0.164320 0.847750 0.816323 0.393917
H38   H     H_    0.164360 0.151958 0.817135 0.396112
H39   H     H_    0.881744 0.708610 0.256070 0.390734
H40   H     H_    0.335717 0.652278 0.183739 0.394149
H41   H     H_    0.663985 0.347485 0.815747 0.397913
H42   H     H_    0.618247 0.791371 0.743914 0.390875
H43   H     H_    0.335622 0.348052 0.182841 0.396240
H44   H     H_    0.707234 0.726562 0.568516 0.158546
H45   H     H_    0.144543 0.219082 0.432617 0.160962
H46   H     H_    0.287395 0.280844 0.431499 0.158777
H47   H     H_    0.293096 0.727163 0.431542 0.157361
H48   H     H_    0.713990 0.282383 0.568396 0.159256
H49   H     H_    0.212605 0.219156 0.568501 0.158414
H50   H     H_    0.792766 0.773438 0.431484 0.158551
H51   H     H_    0.786013 0.217618 0.431603 0.158038
H52   H     H_    0.206902 0.772834 0.568458 0.157304
H53   H     H_    0.860821 0.773525 0.567368 0.160794
H54   H     H_    0.854055 0.217569 0.567488 0.160971
H55   H     H_    0.138825 0.772858 0.432572 0.162254
H56   H     H_    0.942947 0.965926 0.042577 0.161576
O1    O     O_3   0.000000 0.750010 0.000000 -0.519487
O2    O     O_R   0.638650 0.771350 0.042690 -0.637478
O3    O     O_3   0.305178 0.329137 0.148165 -0.529312
O4    O     O_R   0.638650 0.228650 0.042690 -0.626659
O5    O     O_R   0.361350 0.771350 0.957310 -0.628673
O6    O     O_R   0.050700 0.771350 0.162940 -0.612731
O7    O     O_R   0.949300 0.228650 0.837060 -0.616311
O8    O     O_R   0.949300 0.771350 0.837060 -0.615741
O9    O     O_R   0.050700 0.228650 0.162940 -0.615796
O10   O     O_R   0.550700 0.271350 0.162940 -0.615464
O11   O     O_R   0.449300 0.728650 0.837060 -0.612717
O12   O     O_R   0.449300 0.271350 0.837060 -0.615503
O13   O     O_3   0.000000 0.249990 0.000000 -0.525421
O14   O     O_R   0.550700 0.728650 0.162940 -0.615766
O15   O     O_R   0.990570 0.831470 0.042720 -0.640730
O16   O     O_R   0.009430 0.168530 0.957280 -0.616754
O17   O     O_R   0.009430 0.831470 0.957280 -0.612349
O18   O     O_R   0.990570 0.168530 0.042720 -0.617459
O19   O     O_R   0.490570 0.331470 0.042720 -0.616920
O20   O     O_R   0.509430 0.668530 0.957280 -0.640666
O21   O     O_R   0.509430 0.331470 0.957280 -0.617179
O22   O     O_R   0.490570 0.668530 0.042720 -0.612409
O23   O     O_R   0.947900 0.668550 0.957290 -0.624649
O24   O     O_3   0.500000 0.250010 0.000000 -0.523051
O25   O     O_R   0.052100 0.331450 0.042710 -0.624649
O26   O     O_R   0.052100 0.668550 0.042710 -0.614766
O27   O     O_R   0.947900 0.331450 0.957290 -0.602868
O28   O     O_R   0.447900 0.168550 0.957290 -0.622070
O29   O     O_R   0.552100 0.831450 0.042710 -0.624618
O30   O     O_R   0.552100 0.168550 0.042710 -0.616796
O31   O     O_R   0.447900 0.831450 0.957290 -0.614551
O32   O     O_R   0.112210 0.728640 0.162920 -0.629882
O33   O     O_R   0.887790 0.271360 0.837080 -0.627563
O34   O     O_R   0.887790 0.728640 0.837080 -0.633935
O35   O     O_3   0.500000 0.749990 0.000000 -0.519560
O36   O     O_R   0.112210 0.271360 0.162920 -0.629880
O37   O     O_R   0.612210 0.228640 0.162920 -0.630389
O38   O     O_R   0.387790 0.771360 0.837080 -0.629848
O39   O     O_R   0.387790 0.228640 0.837080 -0.630412
O40   O     O_R   0.612210 0.771360 0.162920 -0.633746
O41   O     O_R   0.904050 0.771360 0.042740 -0.608023
O42   O     O_R   0.095950 0.228640 0.957260 -0.585654
O43   O     O_R   0.095950 0.771360 0.957260 -0.586667
O44   O     O_R   0.904050 0.228640 0.042740 -0.587132
O45   O     O_R   0.404050 0.271360 0.042740 -0.585510
O46   O     O_R   0.861350 0.728650 0.957310 -0.637518
O47   O     O_R   0.595950 0.728640 0.957260 -0.608043
O48   O     O_R   0.595950 0.271360 0.957260 -0.586274
O49   O     O_R   0.404050 0.728640 0.042740 -0.586635
O50   O     O_2   0.836922 0.557710 0.890851 -0.259503
O51   O     O_2   0.839613 0.518956 0.983340 -0.183903
O52   O     O_3   0.903600 0.579405 0.027155 -0.552806
O53   O     O_2   0.160928 0.480905 0.017555 -0.185206
O54   O     O_2   0.163300 0.442299 0.109996 -0.242025
O55   O     O_3   0.096937 0.420468 0.973793 -0.576866
O56   O     O_2   0.186152 0.519945 0.138034 -0.179008
O57   O     O_R   0.138650 0.271350 0.042690 -0.625669
O58   O     O_2   0.145482 0.558500 0.028515 -0.256947
O59   O     O_3   0.128493 0.580048 0.127463 -0.550867
O60   O     O_2   0.854685 0.441241 0.971251 -0.198967
O61   O     O_2   0.813776 0.480123 0.862429 -0.187099
O62   O     O_3   0.871196 0.420062 0.872143 -0.525599
O63   O     O_2   0.336772 0.057661 0.895908 -0.245257
O64   O     O_2   0.342824 0.019065 0.990662 -0.182543
O65   O     O_3   0.406762 0.079519 0.032072 -0.566915
O66   O     O_2   0.656737 0.981011 0.008485 -0.184161
O67   O     O_2   0.662957 0.942258 0.103167 -0.254643
O68   O     O_R   0.138650 0.728650 0.042690 -0.628608
O69   O     O_3   0.592655 0.920598 0.966877 -0.553559
O70   O     O_2   0.686345 0.019898 0.131031 -0.180955
O71   O     O_2   0.642300 0.058597 0.021015 -0.254247
O72   O     O_3   0.629918 0.079959 0.123684 -0.555275
O73   O     O_2   0.357442 0.941477 0.978616 -0.255641
O74   O     O_2   0.313468 0.980018 0.868413 -0.179481
O75   O     O_3   0.369990 0.919924 0.876174 -0.551529
O76   O     O_2   0.854276 0.161764 0.075140 -0.274958
O77   O     O_2   0.902498 0.208370 0.173486 -0.284148
O78   O     O_3   0.805371 0.171248 0.149131 -0.532981
O79   O     O_R   0.861350 0.271350 0.957310 -0.621505
O80   O     O_2   0.097577 0.791765 0.826627 -0.284629
O81   O     O_2   0.145846 0.838287 0.925134 -0.274369
O82   O     O_3   0.194768 0.828881 0.851142 -0.532988
O83   O     O_2   0.145878 0.161626 0.925869 -0.278108
O84   O     O_2   0.097590 0.207980 0.826964 -0.283250
O85   O     O_3   0.194807 0.170871 0.851815 -0.528930
O86   O     O_2   0.897412 0.693312 0.146323 -0.301258
O87   O     O_2   0.913834 0.757632 0.188222 -0.279977
O88   O     O_3   0.842499 0.715875 0.208171 -0.549001
O89   O     O_2   0.354154 0.661714 0.074875 -0.274757
O90   O     O_R   0.361350 0.228650 0.957310 -0.625375
O91   O     O_2   0.402432 0.708241 0.173371 -0.284427
O92   O     O_3   0.305250 0.671129 0.148883 -0.532284
O93   O     O_2   0.597451 0.291599 0.826539 -0.285451
O94   O     O_2   0.645726 0.338234 0.924833 -0.273755
O95   O     O_3   0.694539 0.328707 0.850754 -0.515564
O96   O     O_2   0.586159 0.742374 0.811780 -0.279888
O97   O     O_2   0.602594 0.806695 0.853681 -0.301673
O98   O     O_3   0.657497 0.784125 0.791826 -0.548766
O99   O     O_2   0.402401 0.292024 0.173042 -0.282367
O100  O     O_2   0.354125 0.338373 0.074127 -0.278923
S1    S     S_3+6 0.878248 0.543517 0.968634 0.099219
S2    S     S_3+6 0.158988 0.809377 0.887075 0.055720
S3    S     S_3+6 0.159008 0.190458 0.887570 0.053913
S4    S     S_3+6 0.866794 0.726444 0.154312 0.032546
S5    S     S_3+6 0.341019 0.690628 0.112933 0.055817
S6    S     S_3+6 0.658858 0.309267 0.886859 0.059797
S7    S     S_3+6 0.633205 0.773560 0.845688 0.032579
S8    S     S_3+6 0.340987 0.309545 0.112425 0.053772
S9    S     S_3+6 0.122140 0.456419 0.032147 0.099979
S10   S     S_3+6 0.132184 0.544204 0.081973 0.102667
S11   S     S_3+6 0.868004 0.455864 0.918046 0.116672
S12   S     S_3+6 0.379939 0.043556 0.973581 0.104212
S13   S     S_3+6 0.619690 0.956473 0.025594 0.101203
S14   S     S_3+6 0.631598 0.044196 0.076587 0.102175
S15   S     S_3+6 0.368216 0.955771 0.923038 0.103172
S16   S     S_3+6 0.841107 0.190712 0.113111 0.055664
Zn1   Zn    Zn3+2 0.074440 0.719490 0.061020 1.028110
Zn2   Zn    Zn3+2 0.013440 0.219480 0.938960 1.049653
Zn3   Zn    Zn3+2 0.013440 0.780520 0.938960 1.050053
Zn4   Zn    Zn3+2 0.986560 0.219480 0.061040 1.049340
Zn5   Zn    Zn3+2 0.486560 0.280520 0.061040 1.051143
Zn6   Zn    Zn3+2 0.513440 0.719480 0.938960 1.036714
Zn7   Zn    Zn3+2 0.513440 0.280520 0.938960 1.049912
Zn8   Zn    Zn3+2 0.486560 0.719480 0.061040 1.050078
Zn9   Zn    Zn3+2 0.925560 0.280510 0.938980 1.031502
Zn10  Zn    Zn3+2 0.925560 0.719490 0.938980 1.021728
Zn11  Zn    Zn3+2 0.074440 0.280510 0.061020 1.016136
Zn12  Zn    Zn3+2 0.574440 0.219490 0.061020 1.016766
Zn13  Zn    Zn3+2 0.425560 0.780510 0.938980 1.028287
Zn14  Zn    Zn3+2 0.425560 0.219490 0.938980 1.017291
Zn15  Zn    Zn3+2 0.574440 0.780510 0.061020 1.022157
Zn16  Zn    Zn3+2 0.986560 0.780520 0.061040 1.036849

loop_
_geom_bond_atom_site_label_1
_geom_bond_atom_site_label_2
_ccdc_geom_bond_type
C21   C26   S    
O73   S15   D    
C74   C83   A    
O37   Zn12  S    
C42   C58   S    
C7    O20   A    
H43   O3    S    
C5    O18   A    
C45   C57   S    
C63   S8    S    
C111  C118  A    
O56   S10   D    
C38   C63   S    
C52   C61   S    
C54   C63   S    
O4    Zn12  S    
C20   S12   S    
C96   C99   T    
O92   S5    S    
O59   S10   S    
C18   S14   S    
C38   H30   S    
C34   C35   S    
O47   Zn6   S    
C118  C131  S    
C76   C94   S    
C115  O49   A    
C44   C53   S    
C12   C16   A    
C78   C96   S    
C46   C55   S    
O35   Zn13  S    
C72   H55   S    
O13   Zn9   S    
O29   Zn15  S    
C18   C25   A    
C73   C81   A    
C109  C118  A    
C66   C89   A    
C25   C29   S    
C125  O10   A    
C110  H2    S    
H39   O88   S    
O71   S14   D    
O6    Zn16  S    
C11   O31   A    
C2    C59   S    
O49   Zn8   S    
C41   H33   S    
H10   O55   S    
C100  C124  S    
O21   Zn7   S    
C19   C23   A    
O22   Zn8   S    
C57   S3    S    
C113  C120  A    
C13   C63   S    
O86   S4    D    
C14   S10   S    
O27   Zn9   S    
C72   C84   A    
C126  H18   S    
C28   C33   T    
C43   H24   S    
C22   C27   S    
C35   C51   S    
O36   Zn11  S    
C44   H25   S    
O61   S11   D    
O18   Zn4   S    
C70   H54   S    
C56   S2    S    
C68   C77   A    
C104  O48   A    
C70   C79   A    
C68   C83   A    
C79   C97   S    
C90   C105  T    
C91   C103  T    
C2    C47   S    
C108  C111  A    
C124  O9    A    
O1    Zn16  S    
O10   Zn5   S    
C37   C44   S    
C107  C127  S    
C37   C50   S    
C60   O68   A    
C6    O21   A    
O40   Zn15  S    
O64   S12   D    
C4    O17   A    
O13   Zn11  S    
C2    C40   S    
C76   C85   A    
C78   C87   A    
C129  O14   A    
O95   S6    S    
O93   S6    D    
C93   O2    A    
O26   Zn1   S    
O32   Zn1   S    
C11   O29   A    
O13   Zn2   S    
O67   S13   D    
C48   C57   S    
C106  C125  S    
C17   C23   A    
C89   H47   S    
C73   C90   S    
C120  C133  S    
O28   Zn14  S    
C42   C53   S    
C43   C52   S    
C88   H48   S    
O38   Zn13  S    
O78   S16   S    
O54   S9    D    
C38   C45   S    
C64   C73   A    
C36   C46   S    
O16   Zn2   S    
C64   C87   A    
C38   C48   S    
C114  C119  A    
O33   Zn9   S    
O55   S9    S    
C62   S7    S    
O69   S13   S    
C60   O43   A    
C66   H23   S    
C24   C50   S    
O97   S7    D    
C11   C33   S    
C8    O26   A    
H36   O78   S    
C1    O41   A    
C10   O30   A    
C24   H21   S    
H41   O95   S    
C37   H29   S    
C6    O19   A    
O45   Zn5   S    
O58   S10   D    
O46   Zn10  S    
C65   C74   A    
C116  C120  A    
C13   H20   S    
C49   O42   A    
C117  C130  S    
O66   S13   D    
O91   S5    D    
O2    Zn15  S    
O79   Zn9   S    
C23   C28   S    
O99   S8    D    
O83   S3    D    
O23   Zn10  S    
C43   C55   S    
O24   Zn5   S    
C82   O90   A    
C81   H50   S    
C112  C116  A    
O13   Zn4   S    
O50   S1    D    
C4    C134  S    
O53   S9    D    
C5    C135  S    
C24   C62   S    
C35   C56   S    
C108  C117  A    
O57   Zn11  S    
C40   C51   S    
C14   C22   A    
H40   O92   S    
O31   Zn13  S    
C9    O27   A    
C93   O47   A    
O35   Zn8   S    
O88   S4    S    
C121  O32   A    
C121  O6    A    
C7    O22   A    
O75   S15   S    
C42   H35   S    
H37   O82   S    
H38   O85   S    
C14   C15   A    
C70   C85   A    
O80   S2    D    
C47   C56   S    
C85   H51   S    
O41   Zn16  S    
H42   O98   S    
C24   C42   S    
C19   S13   S    
C130  C135  T    
C131  C134  T    
O48   Zn7   S    
C13   C41   S    
C37   C62   S    
C65   C86   A    
C115  O5    A    
C129  O40   A    
H11   O59   S    
C67   C88   A    
C29   C32   T    
C3    C7    S    
H14   O65   S    
O52   S1    S    
O14   Zn8   S    
C20   C25   A    
C15   S9    S    
C9    O25   A    
C82   O45   A    
C17   C20   A    
C18   C19   A    
C128  O12   A    
C80   C89   A    
C87   H44   S    
O24   Zn7   S    
C39   C55   S    
C44   C58   S    
C40   C56   S    
C61   C126  S    
C86   H46   S    
C1    C50   S    
C97   C102  T    
C49   O57   A    
H16   O72   S    
C111  H56   S    
C39   C126  S    
O74   S15   D    
C110  C117  A    
C79   C88   A    
C64   H1    S    
C67   H34   S    
O30   Zn12  S    
C68   H45   S    
C3    C132  T    
C50   C58   S    
O1    Zn10  S    
O89   S5    D    
C95   C100  T    
O35   Zn6   S    
C101  C121  S    
C113  H7    S    
H9    O52   S    
C74   C91   S    
C45   H26   S    
C104  O4    A    
O1    Zn1   S    
O70   S14   D    
C65   H12   S    
C46   C71   S    
C48   C49   S    
C128  O39   A    
C77   C86   A    
C34   C59   S    
C84   H52   S    
O11   Zn6   S    
C36   C61   S    
O72   S14   S    
C54   C82   S    
C4    O15   A    
C113  C114  A    
C124  O36   A    
O24   Zn12  S    
C52   C104  S    
C16   C22   A    
C80   C98   S    
O8    Zn3   S    
C112  C119  A    
O65   S12   S    
O3    S8    S    
C98   C101  T    
C125  O37   A    
C8    C30   S    
O82   S2    S    
C35   H22   S    
C41   C57   S    
C109  C110  A    
C5    O16   A    
C122  O33   A    
C12   S11   S    
C66   C75   A    
O96   S7    D    
C127  O38   A    
C75   C84   A    
C51   C115  S    
C69   C81   A    
H15   O69   S    
C116  H5    S    
C72   C80   A    
C36   H28   S    
O9    Zn4   S    
C36   C43   S    
C34   C47   S    
C102  C122  S    
C127  O11   A    
O62   S11   S    
O43   Zn3   S    
C2    H19   S    
O68   Zn1   S    
O20   Zn6   S    
C8    O23   A    
O5    Zn13  S    
C10   O28   A    
C123  O34   A    
C114  H6    S    
H17   O75   S    
O87   S4    D    
O1    Zn3   S    
O63   S12   D    
O42   Zn2   S    
C6    C136  S    
C47   C60   S    
C59   S5    S    
O85   S3    S    
C133  C136  T    
C122  O7    A    
C55   S16   S    
C39   C52   S    
C26   C31   T    
C27   C30   T    
O7    Zn2   S    
C69   C78   A    
O76   S16   D    
C53   C93   S    
O90   Zn14  S    
O24   Zn14  S    
C123  O8    A    
C34   H27   S    
C69   H53   S    
C108  H4    S    
O84   S3    D    
O44   Zn4   S    
O19   Zn5   S    
C105  C129  S    
H13   O62   S    
C12   C21   A    
C77   C95   S    
O15   Zn16  S    
O77   S16   D    
C58   S4    S    
C53   C62   S    
C92   C107  T    
O34   Zn10  S    
C17   S15   S    
C119  C132  S    
O25   Zn11  S    
O60   S11   D    
C71   O44   A    
C103  C128  S    
O12   Zn7   S    
C75   C92   S    
C45   C54   S    
C51   C59   S    
O17   Zn3   S    
O35   Zn15  S    
C99   C123  S    
C94   C106  T    
C61   S6    S    
C46   C126  S    
C83   H49   S    
O98   S7    S    
C13   C48   S    
O39   Zn14  S    
C1    O46   A    
O51   S1    D    
C16   S1    S    
C109  H3    S    
C112  H8    S    
O81   S2    D    
C39   H31   S    
C41   C54   S    
C40   H32   S    
O100  S8    D    
C9    C31   S    
C10   C32   S    
C15   C21   A    
C71   O79   A    
O94   S6    D    
C67   C76   A    
