data_mof_unit_12128.cif
_audit_creation_date              2013-03-05T15:54:20-0500
_audit_creation_method            fapswitch 2.2
_symmetry_space_group_name_H-M    P1
_symmetry_Int_Tables_number       1
_space_group_crystal_system       triclinic
_cell_length_a                    14.950718
_cell_length_b                    14.844855
_cell_length_c                    14.910714
_cell_angle_alpha                 109.501275
_cell_angle_beta                  109.173176
_cell_angle_gamma                 109.450262
_cell_volume                      2556.52801838

loop_
_atom_site_label
_atom_site_type_symbol
_atom_site_description
_atom_site_fract_x
_atom_site_fract_y
_atom_site_fract_z
_atom_type_partial_charge
C1    C     C_R   0.007596 0.807979 0.098090 0.547120
N1    N     N_R   0.995640 0.706130 0.053910 -0.104695
C2    C     C_R   0.792057 0.197093 0.698831 -0.158590
H1    H     H_    0.823945 0.170323 0.646138 0.098241
N2    N     N_R   0.848310 0.293860 0.791110 -0.049002
C3    C     C_R   0.026042 0.594688 0.780431 -0.143446
H2    H     H_    0.053342 0.680187 0.805715 0.133673
N3    N     N_R   0.054010 0.556790 0.847890 -0.035051
C4    C     C_R   0.686685 0.411262 0.931664 -0.066155
H3    H     H_    0.620696 0.328518 0.883168 0.131474
N4    N     N_R   0.789940 0.443190 0.997130 -0.032447
C5    C     C_R   0.935534 0.410738 0.685566 -0.153930
H4    H     H_    0.881810 0.326171 0.620611 0.100251
N5    N     N_R   0.997630 0.443170 0.791110 -0.058368
C6    C     C_R   0.779195 0.594221 0.025345 -0.136238
H5    H     H_    0.801341 0.679370 0.062172 0.178448
N6    N     N_R   0.846320 0.556810 0.053910 -0.053565
C7    C     C_R   0.699385 0.194548 0.788164 -0.063745
N7    N     N_R   0.791080 0.293860 0.847890 -0.069581
C8    C     C_R   0.096632 0.805001 0.005933 -0.234868
H6    H     H_    0.159352 0.831720 0.984739 0.136014
N8    N     N_R   0.052880 0.706130 0.997130 -0.059616
C9    C     C_R   0.069640 0.871728 0.068453 -0.037670
C10   C     C_R   0.699313 0.131169 0.695306 -0.008664
C11   C     C_R   0.951724 0.505403 0.677217 0.074608
C12   C     C_R   0.677357 0.504604 0.948339 -0.034771
C13   C     C_R   0.997439 0.592085 0.300994 -0.156289
H7    H     H_    0.020763 0.676382 0.351069 0.110889
N9    N     N_R   0.002370 0.556830 0.208890 -0.056069
C14   C     C_R   0.209019 0.411088 0.900468 0.487872
N10   N     N_R   0.153680 0.443190 0.946090 -0.093054
C15   C     C_R   0.313847 0.749126 0.219951 -0.117401
H8    H     H_    0.376071 0.759244 0.196650 0.101284
N11   N     N_R   0.208920 0.706140 0.152110 -0.039223
C16   C     C_R   0.973622 0.246057 0.062016 0.520913
N12   N     N_R   0.947120 0.293870 0.002870 -0.094215
C17   C     C_R   0.077218 0.264710 0.983826 -0.238799
H9    H     H_    0.138129 0.265855 0.960769 0.186823
N13   N     N_R   0.004360 0.293870 0.946090 -0.076476
C18   C     C_R   0.224245 0.749738 0.314634 -0.165967
H10   H     H_    0.205189 0.761582 0.380113 0.107828
N14   N     N_R   0.151690 0.706140 0.208890 -0.063205
C19   C     C_R   0.901775 0.409758 0.208565 -0.063040
N15   N     N_R   0.945990 0.443210 0.152110 -0.078266
C20   C     C_R   0.298356 0.592565 0.992841 -0.249674
H11   H     H_    0.350407 0.677961 0.020435 0.127774
N16   N     N_R   0.210060 0.556810 0.002870 -0.052480
Ni1   Ni    Ni4+2 0.999010 0.630300 0.130220 0.199818
Ni2   Ni    Ni4+2 0.000990 0.369700 0.869780 0.193436
Ni3   Ni    Ni4+2 0.130280 0.630280 0.000000 0.197890
Ni4   Ni    Ni4+2 0.869720 0.369720 0.000000 0.278386
C21   C     C_R   0.934080 0.502330 0.304165 -0.011043
C22   C     C_R   0.300413 0.502733 0.928507 -0.113660
C23   C     C_R   0.326580 0.776036 0.322736 0.075822
C24   C     C_R   0.062888 0.236126 0.058742 -0.108329
C25   C     C_3   0.476729 0.414293 0.820864 -0.401916
H12   H     H_    0.464085 0.332123 0.809080 0.178254
H13   H     H_    0.490195 0.421314 0.753990 0.197123
C26   C     C_3   0.373020 0.418946 0.812290 -0.361716
H14   H     H_    0.341718 0.441319 0.749191 0.181837
H15   H     H_    0.310479 0.334832 0.783328 0.214525
H16   H     H_    0.554062 0.407291 0.016436 0.197626
H17   H     H_    0.394691 0.395593 0.994961 0.186705
C27   C     C_3   0.557430 0.485784 0.024184 -0.388973
C28   C     C_3   0.585505 0.621009 0.954548 -0.186828
C29   C     C_3   0.576230 0.506873 0.934908 0.266715
H18   H     H_    0.653081 0.685844 0.038879 0.101429
C30   C     C_3   0.398569 0.505001 0.925215 0.407407
C31   C     C_3   0.451127 0.479531 0.014854 -0.401386
C32   C     C_3   0.481157 0.620217 0.951975 -0.484043
H19   H     H_    0.441981 0.642290 0.891604 0.183078
H20   H     H_    0.505541 0.684479 0.034121 0.148264
H21   H     H_    0.626140 0.553022 0.107264 0.164579
H22   H     H_    0.467556 0.539111 0.095603 0.158696
C33   C     C_R   0.617650 0.983999 0.508603 0.166501
C34   C     C_R   0.622151 0.015595 0.609879 0.018200
C35   C     C_R   0.538827 0.944104 0.617714 -0.147236
H23   H     H_    0.544199 0.956958 0.695145 0.145787
C36   C     C_R   0.442496 0.857086 0.523082 -0.176840
H24   H     H_    0.374531 0.810226 0.529964 0.132296
C37   C     C_R   0.432622 0.836299 0.420714 0.027527
C38   C     C_R   0.523762 0.894298 0.414750 0.137251
C39   C     C_3   0.586947 0.847970 0.375546 -0.501533
C40   C     C_3   0.688902 0.945254 0.477296 -0.500210
H25   H     H_    0.570458 0.768047 0.372909 0.199939
H26   H     H_    0.580921 0.848375 0.299369 0.185474
H27   H     H_    0.732557 0.922547 0.534429 0.196326
H28   H     H_    0.741780 0.001925 0.459960 0.188023
C41   C     C_R   0.947788 0.609362 0.483070 0.081777
C42   C     C_R   0.897700 0.509359 0.386480 0.082557
C43   C     C_R   0.823730 0.415566 0.381121 -0.185493
H29   H     H_    0.767818 0.338241 0.307431 0.150745
C44   C     C_R   0.829577 0.416460 0.477047 -0.164037
H30   H     H_    0.783348 0.339583 0.472167 0.126521
C45   C     C_R   0.906110 0.512301 0.578262 0.033328
C46   C     C_R   0.949679 0.610976 0.576817 -0.076230
C47   C     C_3   0.057624 0.716839 0.648703 0.435268
C48   C     C_3   0.056099 0.712789 0.545071 -0.625553
H31   H     H_    0.125490 0.707013 0.695228 0.063143
H32   H     H_    0.050475 0.781126 0.533313 0.199866
H33   H     H_    0.120596 0.697696 0.533484 0.180297
C49   C     C_R   0.104077 0.064906 0.181637 0.181008
C50   C     C_R   0.109688 0.988481 0.100353 0.045121
C51   C     C_R   0.147665 0.026269 0.037861 -0.220554
H34   H     H_    0.161979 0.977058 0.978176 0.173579
C52   C     C_R   0.149424 0.120287 0.036801 -0.208851
H35   H     H_    0.163646 0.135571 0.975540 0.155974
C53   C     C_R   0.114130 0.178945 0.099209 0.059040
C54   C     C_R   0.111975 0.160537 0.184427 0.167438
C55   C     C_3   0.072228 0.184023 0.264418 -0.540443
C56   C     C_3   0.060117 0.075957 0.259062 -0.436359
H36   H     H_    0.137757 0.257207 0.345339 0.200068
H37   H     H_    0.993257 0.182108 0.234725 0.273755
H38   H     H_    0.116125 0.087355 0.337755 0.191660
H39   H     H_    0.972592 0.014999 0.220382 0.250932
O1    O     O_3   0.971556 0.845890 0.169273 -0.664973
C57   C     C_3   0.013293 0.833292 0.261060 0.200748
H40   H     H_    0.104139 0.881052 0.306983 0.108840
H41   H     H_    0.984297 0.745973 0.236416 0.116350
C58   C     C_3   0.970592 0.873781 0.336811 -0.921244
H42   H     H_    0.879915 0.828087 0.291676 0.257465
H43   H     H_    0.999690 0.859554 0.406784 0.213298
H44   H     H_    0.999947 0.963066 0.369571 0.257523
O2    O     O_3   0.175849 0.303300 0.830420 -0.676275
C59   C     C_3   0.075524 0.257268 0.736151 0.228093
H45   H     H_    0.075689 0.314021 0.702502 0.099880
H46   H     H_    0.008447 0.235813 0.755222 0.121608
C60   C     C_3   0.054674 0.151809 0.647711 -0.913826
H47   H     H_    0.053745 0.092541 0.677575 0.266449
H48   H     H_    0.974484 0.113670 0.573944 0.211013
H49   H     H_    0.119566 0.170209 0.624913 0.255852
O3    O     O_3   0.896101 0.173852 0.071820 -0.623543
C61   C     C_3   0.840396 0.067502 0.978886 0.317188
H50   H     H_    0.897072 0.036553 0.970204 0.085577
H51   H     H_    0.797009 0.068043 0.902598 0.109884
C62   C     C_3   0.757507 0.985771 0.990287 -0.780711
H52   H     H_    0.697693 0.011134 0.998770 0.253483
H53   H     H_    0.712352 0.903659 0.915860 0.224286
H54   H     H_    0.799597 0.979741 0.062980 0.250775
C63   C     C_2   0.797048 0.308668 0.152167 1.055424
O4    O     O_2   0.713854 0.305936 0.097335 -0.668226
O5    O     O_R   0.791117 0.221660 0.171641 -0.772374
H55   H     H_    0.713119 0.161315 0.136595 0.310079
C64   C     C_2   0.610434 0.653700 0.875821 0.998691
O6    O     O_2   0.703019 0.722695 0.907183 -0.671067
O7    O     O_R   0.528385 0.605847 0.767996 -0.818658
H56   H     H_    0.555830 0.635005 0.724231 0.319153
O8    O     O_3   0.058064 0.811711 0.716881 -0.622953
C65   C     C_3   0.957223 0.810388 0.674837 0.335190
H57   H     H_    0.892002 0.741448 0.669686 0.098929
H58   H     H_    0.931924 0.803500 0.592853 0.092179
C66   C     C_3   0.968756 0.916800 0.751295 -0.946137
H59   H     H_    0.043013 0.988767 0.772237 0.269527
H60   H     H_    0.896194 0.923734 0.711257 0.210305
H61   H     H_    0.974212 0.916729 0.827242 0.262018
C67   C     C_2   0.624698 0.153130 0.826598 0.935497
O9    O     O_2   0.529060 0.127979 0.776902 -0.657080
O10   O     O_R   0.660614 0.134984 0.914065 -0.795848
H62   H     H_    0.599627 0.100119 0.928190 0.329201

loop_
_geom_bond_atom_site_label_1
_geom_bond_atom_site_label_2
_geom_bond_distance
_ccdc_geom_bond_type
C44   H30   1.082408 S    
C13   N9    1.333304 A    
C45   C46   1.401887 A    
C21   C42   1.484570 S    
C16   N12   1.346925 A    
N11   N14   1.387338 A    
C40   H27   1.112805 S    
C19   N15   1.348399 A    
C17   C24   1.373644 A    
C60   H47   1.109090 S    
C51   C52   1.392642 A    
C47   C48   1.518474 S    
C2    C10   1.377393 A    
C35   H23   1.075941 S    
C25   H12   1.111771 S    
C7    C10   1.389547 A    
C67   O9    1.223426 D    
C63   O5    1.396969 S    
C7    N7    1.349610 A    
C57   H41   1.098319 S    
C14   N10   1.337982 A    
C33   C40   1.496318 S    
C3    C11   1.376209 A    
C52   H35   1.079294 S    
C28   C32   1.543906 S    
C53   C54   1.393961 A    
C1    N1    1.352602 A    
C20   N16   1.327692 A    
C22   C30   1.473978 S    
C55   C56   1.524542 S    
H16   C27   1.113933 S    
C9    C50   1.469717 S    
H17   C31   1.114101 S    
O3    C61   1.418415 S    
C28   H18   1.112714 S    
N1    N8    1.387461 A    
C61   C62   1.520345 S    
C27   H21   1.114379 S    
N6    Ni1   1.871531 S    
C32   H19   1.113179 S    
C1    O1    1.382889 S    
C4    H3    1.065987 S    
C58   H44   1.107917 S    
N8    Ni3   1.864440 S    
C18   N14   1.345105 A    
C59   H45   1.114964 S    
C20   C22   1.375535 A    
C26   H14   1.112413 S    
C44   C45   1.399665 A    
N10   N16   1.379550 A    
N2    Ni2   1.871381 S    
C49   C56   1.495125 S    
N10   Ni2   1.871529 S    
C62   H54   1.110454 S    
C15   C23   1.376082 A    
C51   H34   1.080098 S    
C47   H31   1.111674 S    
C58   H43   1.110238 S    
C4    C12   1.386636 A    
C37   C38   1.398303 A    
N16   Ni3   1.864952 S    
C35   C36   1.393949 A    
C63   O4    1.222067 D    
C14   C22   1.378292 A    
C26   H15   1.103227 S    
N11   Ni3   1.859034 S    
N9    Ni1   1.849321 S    
C16   C24   1.405093 A    
C12   C29   1.471965 S    
C19   C63   1.462356 S    
C34   C35   1.410586 A    
C62   H53   1.108975 S    
C57   C58   1.523326 S    
C43   H29   1.067363 S    
C36   C37   1.397873 A    
C28   C64   1.516470 S    
C30   C31   1.546682 S    
C6    C12   1.374504 A    
C3    N3    1.327150 A    
N1    Ni1   1.849233 S    
C20   H11   1.079978 S    
C41   C48   1.499137 S    
C15   N11   1.323408 A    
C66   H61   1.108702 S    
C33   C34   1.394367 A    
C17   H9    1.070991 S    
C26   C30   1.558668 S    
C43   C44   1.399306 A    
C39   C40   1.504313 S    
C8    C9    1.381983 A    
C46   C47   1.507709 S    
C8    H6    1.080327 S    
C57   H40   1.113538 S    
C31   H22   1.114612 S    
N14   Ni1   1.871381 S    
C27   C31   1.517145 S    
O8    C65   1.420430 S    
C4    N4    1.332156 A    
C55   H37   1.103040 S    
N12   Ni4   1.864439 S    
N15   Ni4   1.858843 S    
C64   O7    1.398545 S    
C18   H10   1.080166 S    
C39   H25   1.112515 S    
C14   O2    1.382989 S    
C11   C45   1.462559 S    
C48   H32   1.110316 S    
N9    N15   1.379552 A    
C61   H50   1.112417 S    
C47   O8    1.431961 S    
C65   C66   1.520489 S    
C8    N8    1.332257 A    
C2    H1    1.079939 S    
C60   H49   1.110654 S    
N3    Ni3   1.858844 S    
C50   C51   1.410571 A    
C7    C67   1.466850 S    
C13   C21   1.380506 A    
C59   H46   1.105918 S    
O7    H56   1.013786 S    
C6    N6    1.321110 A    
N4    N6    1.379550 A    
N3    N5    1.379550 A    
N13   Ni2   1.849232 S    
O5    H55   1.013356 S    
N12   N13   1.387462 A    
C10   C34   1.467813 S    
C40   H28   1.111779 S    
C66   H60   1.110811 S    
C62   H52   1.106442 S    
C2    N2    1.334060 A    
C60   H48   1.110727 S    
C32   H20   1.112730 S    
C33   C38   1.386589 A    
C1    C9    1.383900 A    
C3    H2    1.074291 S    
N2    N7    1.387340 A    
C48   H33   1.112363 S    
C5    C11   1.399626 A    
C18   C23   1.398985 A    
C25   C26   1.540215 S    
C24   C53   1.463880 S    
C64   O6    1.222544 D    
C15   H8    1.078340 S    
C41   C46   1.380788 A    
C65   H58   1.111293 S    
C5    N5    1.344297 A    
C17   N13   1.328367 A    
C65   H57   1.112571 S    
C42   C43   1.417826 A    
O10   H62   1.014024 S    
C52   C53   1.410718 A    
C59   C60   1.521071 S    
C25   C29   1.552388 S    
C67   O10   1.390237 S    
C25   H13   1.110403 S    
O1    C57   1.408948 S    
C56   H38   1.111006 S    
C28   C29   1.568854 S    
C49   C50   1.405422 A    
C19   C21   1.396988 A    
C55   H36   1.111518 S    
N4    Ni4   1.864952 S    
C36   H24   1.082752 S    
N5    Ni2   1.849321 S    
N7    Ni4   1.859035 S    
C39   H26   1.111764 S    
C5    H4    1.079305 S    
C30   C32   1.556739 S    
C38   C39   1.494673 S    
C13   H7    1.076836 S    
C61   H51   1.113395 S    
C58   H42   1.111037 S    
C49   C54   1.369928 A    
C56   H39   1.109522 S    
C66   H59   1.109540 S    
C41   C42   1.400923 A    
C54   C55   1.491019 S    
C16   O3    1.379180 S    
C23   C37   1.452449 S    
C6    H5    1.071144 S    
C27   C29   1.553846 S    
O2    C59   1.408466 S    
