data_mof_unit_40279.cif
_audit_creation_date              2012-12-10T18:58:13-0500
_audit_creation_method            fapswitch 2.2
_symmetry_space_group_name_H-M    P1
_symmetry_Int_Tables_number       1
_space_group_crystal_system       triclinic
_cell_length_a                    10.811792
_cell_length_b                    9.819182
_cell_length_c                    15.827971
_cell_angle_alpha                 89.986152
_cell_angle_beta                  90.001283
_cell_angle_gamma                 90.118899
_cell_volume                      1680.34048003

loop_
_atom_site_label
_atom_site_type_symbol
_atom_type_description
_atom_site_fract_x
_atom_site_fract_y
_atom_site_fract_z
_atom_type_partial_charge
C1    C     C_R   0.873846 0.500553 0.501151 -0.421210
C2    C     C_R   0.495824 0.375987 0.956215 -0.160515
C3    C     C_R   0.495068 0.499962 0.913038 0.165328
C4    C     C_R   0.494887 0.499960 0.086957 0.165076
C5    C     C_1   0.496812 0.499979 0.824162 -0.052768
C6    C     C_1   0.496556 0.499981 0.175835 -0.053115
C7    C     C_1   0.498221 0.500010 0.250748 -0.126705
C8    C     C_1   0.498467 0.499973 0.749250 -0.126809
C9    C     C_R   0.523912 0.071920 0.572396 0.003543
C10   C     C_R   0.475448 0.928041 0.427689 -0.026151
C11   C     C_R   0.475799 0.071872 0.427635 0.030353
C12   C     C_R   0.128018 0.499915 0.500752 -0.421292
C13   C     C_R   0.524127 0.928106 0.572372 0.022783
C14   C     C_R   0.062607 0.381513 0.477217 0.311251
C15   C     C_R   0.940318 0.625639 0.503198 0.297960
C16   C     C_R   0.939434 0.375359 0.499739 0.302160
C17   C     C_R   0.063816 0.618479 0.525140 0.306927
C18   C     C_R   0.260040 0.499907 0.500101 1.055376
C19   C     C_R   0.740644 0.500194 0.500368 1.010124
C20   C     C_R   0.499882 0.500012 0.339210 0.931656
C21   C     C_R   0.500041 0.499986 0.660790 0.933343
C22   C     C_R   0.493650 0.623930 0.956173 -0.162919
C23   C     C_R   0.495724 0.375986 0.043821 -0.163263
C24   C     C_R   0.493570 0.623928 0.043780 -0.160200
H1    H     H_    0.543032 0.126026 0.630387 0.131901
H2    H     H_    0.750036 0.853163 0.373835 0.379657
H3    H     H_    0.777436 0.154007 0.649226 0.374337
H4    H     H_    0.267765 0.748175 0.691006 0.372549
H5    H     H_    0.455384 0.873886 0.369841 0.135737
H6    H     H_    0.456000 0.125952 0.369745 0.127015
H7    H     H_    0.543945 0.874010 0.630266 0.129728
H8    H     H_    0.492973 0.719773 0.077728 0.148217
H9    H     H_    0.496958 0.280149 0.922267 0.148136
H10   H     H_    0.493092 0.719772 0.922192 0.146776
H11   H     H_    0.496781 0.280149 0.077802 0.147017
H12   H     H_    0.256377 0.246416 0.307230 0.367152
N1    N     N_R   0.500000 0.857200 0.500000 -0.076743
N2    N     N_R   0.500000 0.142800 0.500000 -0.074060
O1    O     O_R   0.316770 0.614620 0.499990 -0.568772
O2    O     O_2   0.021525 0.183349 0.362239 -0.219329
O3    O     O_3   0.221687 0.323882 0.339467 -0.584538
O4    O     O_2   0.808255 0.851121 0.537742 -0.247745
O5    O     O_2   0.985841 0.879475 0.443312 -0.148310
O6    O     O_3   0.790769 0.764002 0.382640 -0.552553
O7    O     O_2   0.806077 0.147128 0.471644 -0.228644
O8    O     O_2   0.985618 0.125780 0.565047 -0.163536
O9    O     O_3   0.791582 0.245222 0.624253 -0.570203
O10   O     O_2   0.196943 0.849914 0.542739 -0.216269
O11   O     O_2   0.026319 0.814646 0.642213 -0.217231
O12   O     O_R   0.683230 0.385380 0.500010 -0.553453
O13   O     O_3   0.224820 0.671549 0.662689 -0.579019
O14   O     O_R   0.683230 0.614620 0.500010 -0.560207
O15   O     O_R   0.316770 0.385380 0.499990 -0.565666
O16   O     O_R   0.499980 0.614630 0.378020 -0.630521
O17   O     O_R   0.500020 0.385370 0.621980 -0.625142
O18   O     O_R   0.500020 0.614630 0.621980 -0.629574
O19   O     O_R   0.499980 0.385370 0.378020 -0.626552
O20   O     O_2   0.192719 0.148699 0.461215 -0.216253
S1    S     S_3+6 0.124257 0.252741 0.409702 0.102204
S2    S     S_3+6 0.881610 0.786138 0.467930 0.135458
S3    S     S_3+6 0.880911 0.217041 0.538987 0.130027
S4    S     S_3+6 0.127581 0.745305 0.593550 0.108122
Zn1   Zn    Zn3+2 0.500000 0.653120 0.500000 1.049257
Zn2   Zn    Zn3+2 0.500000 0.346880 0.500000 1.060099

loop_
_geom_bond_atom_site_label_1
_geom_bond_atom_site_label_2
_ccdc_geom_bond_type
C12   C17   A    
O9    S3    S    
C21   O18   A    
C18   O1    A    
C24   H8    S    
C20   O16   A    
C6    C7    T    
C1    C15   A    
C17   S4    S    
C11   N2    A    
O1    Zn1   S    
C15   S2    S    
O10   S4    D    
C19   O12   A    
O17   Zn2   S    
C22   C24   A    
C12   C18   S    
C2    C3    A    
C20   O19   A    
O18   Zn1   S    
H2    O6    S    
O2    S1    D    
C14   S1    S    
C10   H5    S    
H12   O3    S    
O13   S4    S    
O5    S2    D    
O6    S2    S    
C10   N1    A    
C4    C24   A    
C19   O14   A    
C2    H9    S    
O7    S3    D    
C9    N2    A    
N1    Zn1   S    
C12   C14   A    
C8    C21   S    
C23   H11   S    
C22   H10   S    
H4    O13   S    
C14   C16   A    
C1    C19   S    
C4    C6    S    
C10   C11   A    
O8    S3    D    
C9    H1    S    
O4    S2    D    
O12   Zn2   S    
O3    S1    S    
O19   Zn2   S    
C21   O17   A    
C7    C20   S    
C16   S3    S    
H3    O9    S    
C2    C23   A    
C15   C17   A    
N2    Zn2   S    
C5    C8    T    
O16   Zn1   S    
C1    C16   A    
C3    C22   A    
C9    C13   A    
O11   S4    D    
C18   O15   A    
O20   S1    D    
C13   N1    A    
O15   Zn2   S    
C13   H7    S    
C4    C23   A    
C11   H6    S    
C3    C5    S    
O14   Zn1   S    
