data_mof_unit_47659.cif
_audit_creation_date              2012-12-11T15:34:43-0500
_audit_creation_method            fapswitch 2.2
_symmetry_space_group_name_H-M    P1
_symmetry_Int_Tables_number       1
_space_group_crystal_system       triclinic
_cell_length_a                    16.923163
_cell_length_b                    16.923014
_cell_length_c                    16.894535
_cell_angle_alpha                 90.000525
_cell_angle_beta                  90.002164
_cell_angle_gamma                 90.00035
_cell_volume                      4838.44149176

loop_
_atom_site_label
_atom_site_type_symbol
_atom_type_description
_atom_site_fract_x
_atom_site_fract_y
_atom_site_fract_z
_atom_type_partial_charge
C1    C     C_R   0.800176 0.108036 0.399882 -0.153275
C2    C     C_R   0.172237 0.079559 0.354716 -0.143435
C3    C     C_3   0.466612 0.734860 0.311052 -0.971969
C4    C     C_3   0.734743 0.533341 0.688929 -0.972025
C5    C     C_3   0.128841 0.328533 0.076801 -0.984056
C6    C     C_3   0.328732 0.871220 0.922958 -0.984647
C7    C     C_3   0.533344 0.265270 0.311096 -0.971662
C8    C     C_3   0.265336 0.533317 0.311103 -0.971666
C9    C     C_3   0.871167 0.328610 0.923084 -0.984773
C10   C     C_3   0.671513 0.871099 0.076792 -0.984556
C11   C     C_3   0.466696 0.265351 0.688896 -0.971731
C12   C     C_3   0.734741 0.466671 0.311082 -0.971804
C13   C     C_R   0.920448 0.172238 0.645284 -0.143423
C14   C     C_3   0.128861 0.671592 0.923308 -0.985192
C15   C     C_3   0.328657 0.128801 0.076963 -0.984679
C16   C     C_3   0.533359 0.734772 0.688919 -0.971886
C17   C     C_3   0.765284 0.966672 0.188816 -0.971631
C18   C     C_3   0.371197 0.171232 0.577126 -0.984904
C19   C     C_3   0.171309 0.628794 0.422976 -0.984724
C20   C     C_3   0.966649 0.234787 0.811061 -0.971797
C21   C     C_3   0.234752 0.033337 0.188948 -0.971863
C22   C     C_3   0.628833 0.828571 0.576877 -0.984840
C23   C     C_3   0.828652 0.371181 0.423038 -0.984699
C24   C     C_R   0.108014 0.800173 0.399874 -0.153262
C25   C     C_3   0.033398 0.765157 0.811061 -0.971958
C26   C     C_3   0.765336 0.033331 0.811125 -0.972034
C27   C     C_3   0.371144 0.828455 0.423243 -0.985029
C28   C     C_3   0.171413 0.371142 0.576885 -0.984664
C29   C     C_3   0.966826 0.765657 0.188761 -0.971693
C30   C     C_3   0.234701 0.966689 0.811081 -0.971742
C31   C     C_3   0.628834 0.171387 0.423061 -0.984994
C32   C     C_3   0.828638 0.628816 0.576953 -0.984619
C33   C     C_3   0.033369 0.234789 0.188924 -0.971832
C34   C     C_R   0.199827 0.108022 0.600114 -0.153176
C35   C     C_R   0.827778 0.920473 0.354699 -0.143379
C36   C     C_R   0.079552 0.827766 0.645289 -0.143390
C37   C     C_R   0.891971 0.199825 0.399880 -0.153240
C38   C     C_R   0.300178 0.608053 0.899884 -0.153299
C39   C     C_R   0.672237 0.420439 0.145288 -0.143441
C40   C     C_R   0.420448 0.327777 0.854705 -0.143458
C41   C     C_R   0.172239 0.920437 0.645286 -0.143478
C42   C     C_R   0.608081 0.699819 0.100099 -0.153318
C43   C     C_R   0.699823 0.391965 0.899883 -0.153246
C44   C     C_R   0.327764 0.579565 0.145285 -0.143462
C45   C     C_R   0.579555 0.672234 0.854710 -0.143472
C46   C     C_R   0.391976 0.300172 0.100113 -0.153205
C47   C     C_R   0.300179 0.391959 0.100122 -0.153266
C48   C     C_R   0.672234 0.579556 0.854714 -0.143434
C49   C     C_R   0.420457 0.672233 0.145289 -0.143374
C50   C     C_R   0.608029 0.300174 0.899886 -0.153232
C51   C     C_R   0.699830 0.607993 0.100124 -0.153111
C52   C     C_R   0.920445 0.827781 0.354701 -0.143522
C53   C     C_R   0.327773 0.420460 0.854705 -0.143411
C54   C     C_R   0.579551 0.327770 0.145292 -0.143437
C55   C     C_R   0.391989 0.699829 0.899880 -0.153191
C56   C     C_R   0.251364 0.251320 0.620927 -0.065968
C57   C     C_R   0.840862 0.840872 0.223639 -0.062688
C58   C     C_R   0.840815 0.159202 0.776333 -0.062759
C59   C     C_R   0.251301 0.748643 0.379071 -0.065760
C60   C     C_R   0.748675 0.748656 0.620917 -0.065858
C61   C     C_R   0.159207 0.159200 0.223663 -0.062791
C62   C     C_R   0.159205 0.840803 0.776338 -0.062793
C63   C     C_R   0.108045 0.199821 0.600117 -0.153294
C64   C     C_R   0.748672 0.251345 0.379076 -0.065874
C65   C     C_R   0.751446 0.751280 0.120934 -0.066384
C66   C     C_R   0.340823 0.340838 0.723647 -0.062820
C67   C     C_R   0.340806 0.659208 0.276334 -0.062820
C68   C     C_R   0.751331 0.248659 0.879072 -0.065898
C69   C     C_R   0.248684 0.248644 0.120903 -0.065933
C70   C     C_R   0.659199 0.659195 0.723662 -0.062773
C71   C     C_R   0.659190 0.340819 0.276345 -0.062824
C72   C     C_R   0.248710 0.751375 0.879088 -0.065806
C73   C     C_R   0.811048 0.188961 0.390321 0.124461
C74   C     C_R   0.199820 0.891955 0.399879 -0.153278
C75   C     C_R   0.137273 0.862722 0.693068 0.116764
C76   C     C_R   0.862747 0.862772 0.306918 0.116593
C77   C     C_R   0.188973 0.188946 0.609675 0.124524
C78   C     C_R   0.188934 0.811031 0.390316 0.124402
C79   C     C_R   0.862735 0.137277 0.693065 0.116728
C80   C     C_R   0.137274 0.137276 0.306933 0.116765
C81   C     C_R   0.811050 0.811039 0.609673 0.124417
C82   C     C_R   0.311069 0.688979 0.890326 0.124379
C83   C     C_R   0.637269 0.362732 0.193072 0.116728
C84   C     C_R   0.362738 0.362752 0.806921 0.116728
C85   C     C_R   0.827769 0.079558 0.645289 -0.143450
C86   C     C_R   0.689019 0.688924 0.109662 0.124676
C87   C     C_R   0.688952 0.311039 0.890325 0.124461
C88   C     C_R   0.362735 0.637280 0.193067 0.116740
C89   C     C_R   0.637270 0.637271 0.806931 0.116748
C90   C     C_R   0.311055 0.311032 0.109668 0.124378
C91   C     C_R   0.277567 0.378178 0.683296 0.220122
C92   C     C_R   0.832345 0.731709 0.130400 0.226590
C93   C     C_R   0.731777 0.167769 0.869715 0.226653
C94   C     C_R   0.378146 0.722467 0.316687 0.220147
C95   C     C_R   0.722442 0.621824 0.683320 0.220116
C96   C     C_R   0.079557 0.172237 0.354712 -0.143452
C97   C     C_R   0.167796 0.268199 0.130219 0.226497
C98   C     C_R   0.268271 0.832259 0.869703 0.226664
C99   C     C_R   0.621827 0.277580 0.316698 0.220058
C100  C     C_R   0.277578 0.621816 0.316678 0.220029
C101  C     C_R   0.832219 0.268222 0.869739 0.226650
C102  C     C_R   0.731886 0.832187 0.130192 0.226617
C103  C     C_R   0.378203 0.277602 0.683311 0.220092
C104  C     C_R   0.722437 0.378185 0.316686 0.220110
C105  C     C_R   0.167819 0.731827 0.869802 0.226715
C106  C     C_R   0.268244 0.167759 0.130270 0.226712
C107  C     C_R   0.891972 0.800174 0.600116 -0.153232
C108  C     C_R   0.621838 0.722439 0.683306 0.220100
C109  C     C_R   0.777615 0.878182 0.183260 0.220093
C110  C     C_R   0.332256 0.231763 0.630306 0.226763
C111  C     C_R   0.231751 0.667755 0.369703 0.226668
C112  C     C_R   0.878172 0.222451 0.816680 0.220097
C113  C     C_R   0.222447 0.121821 0.183323 0.220087
C114  C     C_R   0.667787 0.768212 0.630247 0.226639
C115  C     C_R   0.768232 0.332233 0.369729 0.226628
C116  C     C_R   0.121863 0.777553 0.816704 0.220079
C117  C     C_R   0.777585 0.121824 0.816682 0.220104
C118  C     C_R   0.800177 0.891963 0.600118 -0.153256
C119  C     C_R   0.332187 0.768203 0.369768 0.226613
C120  C     C_R   0.231802 0.332211 0.630241 0.226622
C121  C     C_R   0.878286 0.777664 0.183326 0.220052
C122  C     C_R   0.222443 0.878195 0.816674 0.220047
C123  C     C_R   0.667780 0.231792 0.369741 0.226712
C124  C     C_R   0.768233 0.667769 0.630271 0.226644
C125  C     C_R   0.121847 0.222442 0.183299 0.220060
C126  C     C_3   0.265202 0.466651 0.688927 -0.971802
C127  C     C_3   0.871263 0.670805 0.077579 -0.983368
C128  C     C_3   0.671343 0.128812 0.922996 -0.984712
H1    H     H_    0.745067 0.076421 0.401194 0.116301
H2    H     H_    0.222543 0.043110 0.341388 0.119827
H3    H     H_    0.880740 0.390309 0.388001 0.248210
H4    H     H_    0.802855 0.423032 0.453567 0.252300
H5    H     H_    0.003588 0.814121 0.779327 0.247825
H6    H     H_    0.020353 0.707807 0.781976 0.245836
H7    H     H_    0.005984 0.765985 0.870562 0.254065
H8    H     H_    0.707935 0.020152 0.782210 0.246034
H9    H     H_    0.814259 0.003579 0.779284 0.247824
H10   H     H_    0.766411 0.005973 0.870648 0.253862
H11   H     H_    0.390582 0.880489 0.388326 0.248444
H12   H     H_    0.331717 0.846821 0.472315 0.242933
H13   H     H_    0.956904 0.222540 0.658618 0.119804
H14   H     H_    0.422776 0.802415 0.453912 0.252267
H15   H     H_    0.153171 0.331769 0.527716 0.242891
H16   H     H_    0.119315 0.390307 0.611890 0.248229
H17   H     H_    0.197241 0.422968 0.546330 0.252252
H18   H     H_    0.996479 0.814508 0.220819 0.247748
H19   H     H_    0.980224 0.708141 0.217380 0.246280
H20   H     H_    0.994103 0.767178 0.129195 0.253512
H21   H     H_    0.292082 0.979848 0.782092 0.245933
H22   H     H_    0.185738 0.996432 0.779281 0.247798
H23   H     H_    0.233700 0.994082 0.870602 0.253833
H24   H     H_    0.076383 0.745073 0.401183 0.116293
H25   H     H_    0.609692 0.119298 0.388040 0.248259
H26   H     H_    0.668180 0.153131 0.472235 0.242926
H27   H     H_    0.577012 0.197201 0.453592 0.252344
H28   H     H_    0.846882 0.668165 0.527766 0.242878
H29   H     H_    0.880733 0.609679 0.611985 0.248203
H30   H     H_    0.802827 0.576970 0.546420 0.252282
H31   H     H_    0.003590 0.185839 0.220704 0.247795
H32   H     H_    0.020285 0.292166 0.217951 0.245870
H33   H     H_    0.005942 0.233859 0.129422 0.253919
H34   H     H_    0.254920 0.076387 0.598793 0.116283
H35   H     H_    0.777485 0.956938 0.341347 0.119785
H36   H     H_    0.043091 0.777470 0.658627 0.119796
H37   H     H_    0.923594 0.254930 0.401191 0.116289
H38   H     H_    0.245053 0.576459 0.901191 0.116324
H39   H     H_    0.722549 0.456878 0.158628 0.119754
H40   H     H_    0.456899 0.277475 0.841362 0.119819
H41   H     H_    0.222548 0.956883 0.658623 0.119817
H42   H     H_    0.576484 0.754940 0.098797 0.116307
H43   H     H_    0.754930 0.423583 0.901191 0.116298
H44   H     H_    0.277451 0.543123 0.158617 0.119822
H45   H     H_    0.543105 0.722538 0.841373 0.119810
H46   H     H_    0.423600 0.245068 0.098798 0.116277
H47   H     H_    0.245063 0.423569 0.098837 0.116269
H48   H     H_    0.722539 0.543106 0.841384 0.119814
H49   H     H_    0.456928 0.722523 0.158623 0.119802
H50   H     H_    0.576406 0.245070 0.901202 0.116283
H51   H     H_    0.754881 0.576299 0.098851 0.116145
H52   H     H_    0.956890 0.777474 0.341336 0.119860
H53   H     H_    0.277477 0.456923 0.841368 0.119815
H54   H     H_    0.543092 0.277472 0.158636 0.119798
H55   H     H_    0.423623 0.754926 0.901196 0.116272
H56   H     H_    0.207839 0.479726 0.717985 0.245895
H57   H     H_    0.314162 0.496443 0.720684 0.247794
H58   H     H_    0.266094 0.494071 0.629420 0.253889
H59   H     H_    0.889389 0.618529 0.112976 0.247444
H60   H     H_    0.832155 0.652972 0.028007 0.242729
H61   H     H_    0.923816 0.695837 0.047517 0.252410
H62   H     H_    0.653118 0.168135 0.972209 0.242892
H63   H     H_    0.076432 0.254932 0.598813 0.116301
H64   H     H_    0.619245 0.109733 0.887943 0.248183
H65   H     H_    0.697111 0.076924 0.953487 0.252334
H66   H     H_    0.496418 0.685880 0.279345 0.247831
H67   H     H_    0.479660 0.792196 0.281940 0.245842
H68   H     H_    0.494028 0.734055 0.370557 0.253996
H69   H     H_    0.792110 0.520220 0.717936 0.245961
H70   H     H_    0.685790 0.503574 0.720711 0.247823
H71   H     H_    0.733783 0.505941 0.629426 0.253916
H72   H     H_    0.109533 0.380617 0.111794 0.248181
H73   H     H_    0.168266 0.346837 0.027684 0.242808
H74   H     H_    0.254941 0.923556 0.401182 0.116325
H75   H     H_    0.077090 0.302600 0.046150 0.252122
H76   H     H_    0.346970 0.831903 0.972173 0.242863
H77   H     H_    0.380820 0.890289 0.887883 0.248175
H78   H     H_    0.302983 0.923113 0.953458 0.252306
H79   H     H_    0.503581 0.314234 0.279315 0.247787
H80   H     H_    0.520224 0.207894 0.282071 0.245892
H81   H     H_    0.505945 0.266214 0.370619 0.253877
H82   H     H_    0.207962 0.520140 0.282099 0.245915
H83   H     H_    0.314316 0.503577 0.279330 0.247802
H84   H     H_    0.266328 0.505932 0.370631 0.253819
H85   H     H_    0.777469 0.043103 0.658634 0.119833
H86   H     H_    0.890335 0.380700 0.888073 0.248247
H87   H     H_    0.831812 0.346861 0.972258 0.242900
H88   H     H_    0.922987 0.302776 0.953628 0.252281
H89   H     H_    0.653277 0.831699 0.027641 0.242880
H90   H     H_    0.619405 0.890296 0.111777 0.248187
H91   H     H_    0.697354 0.922906 0.046212 0.252265
H92   H     H_    0.496435 0.314306 0.720711 0.247800
H93   H     H_    0.479862 0.207962 0.717871 0.245981
H94   H     H_    0.494085 0.266376 0.629372 0.253775
H95   H     H_    0.792123 0.479796 0.282081 0.245884
H96   H     H_    0.043107 0.222543 0.341378 0.119804
H97   H     H_    0.685788 0.496434 0.279284 0.247800
H98   H     H_    0.733767 0.494073 0.370598 0.253873
H99   H     H_    0.109409 0.619547 0.888405 0.248438
H100  H     H_    0.168302 0.653227 0.972369 0.242966
H101  H     H_    0.077245 0.697646 0.953978 0.252235
H102  H     H_    0.346914 0.168146 0.027779 0.242871
H103  H     H_    0.380742 0.109659 0.112005 0.248217
H104  H     H_    0.302847 0.076961 0.046423 0.252274
H105  H     H_    0.503581 0.685815 0.720689 0.247820
H106  H     H_    0.520263 0.792140 0.717951 0.245906
H107  H     H_    0.923592 0.745068 0.598802 0.116281
H108  H     H_    0.505949 0.733853 0.629410 0.253902
H109  H     H_    0.707849 0.979806 0.217713 0.245935
H110  H     H_    0.814182 0.996453 0.220684 0.247747
H111  H     H_    0.766369 0.994055 0.129285 0.253837
H112  H     H_    0.390071 0.119100 0.612231 0.248117
H113  H     H_    0.331942 0.153094 0.527830 0.242919
H114  H     H_    0.423214 0.196841 0.546752 0.252407
H115  H     H_    0.153050 0.668122 0.472169 0.242874
H116  H     H_    0.119232 0.609682 0.387912 0.248206
H117  H     H_    0.197085 0.576936 0.453504 0.252311
H118  H     H_    0.745067 0.923577 0.598815 0.116307
H119  H     H_    0.996426 0.185825 0.779293 0.247797
H120  H     H_    0.979746 0.292157 0.782021 0.245899
H121  H     H_    0.994062 0.233866 0.870574 0.253864
H122  H     H_    0.292117 0.020223 0.217981 0.245930
H123  H     H_    0.185785 0.003575 0.220720 0.247803
H124  H     H_    0.233812 0.005921 0.129443 0.253892
H125  H     H_    0.609608 0.880644 0.611870 0.248298
H126  H     H_    0.668202 0.846854 0.527728 0.242914
H127  H     H_    0.577054 0.802695 0.546309 0.252319
H128  H     H_    0.846899 0.331836 0.472226 0.242883
N1    N     N_R   0.868470 0.074730 0.422590 -0.040119
N2    N     N_R   0.131530 0.074730 0.422590 -0.040491
N3    N     N_R   0.925270 0.131530 0.577410 -0.040490
N4    N     N_R   0.074730 0.868470 0.422590 -0.040115
N5    N     N_R   0.131530 0.074730 0.577410 -0.040126
N6    N     N_R   0.868470 0.925270 0.422590 -0.040482
N7    N     N_R   0.074730 0.868470 0.577410 -0.040492
N8    N     N_R   0.925270 0.131530 0.422590 -0.040114
N9    N     N_R   0.368470 0.574730 0.922590 -0.040111
N10   N     N_R   0.631530 0.425270 0.077410 -0.040490
N11   N     N_R   0.425270 0.368470 0.922590 -0.040493
N12   N     N_R   0.131530 0.925270 0.577410 -0.040493
N13   N     N_R   0.574730 0.631530 0.077410 -0.040134
N14   N     N_R   0.631530 0.425270 0.922590 -0.040116
N15   N     N_R   0.368470 0.574730 0.077410 -0.040493
N16   N     N_R   0.574730 0.631530 0.922590 -0.040494
N17   N     N_R   0.425270 0.368470 0.077410 -0.040118
N18   N     N_R   0.368470 0.425270 0.077410 -0.040105
N19   N     N_R   0.631530 0.574730 0.922590 -0.040486
N20   N     N_R   0.425270 0.631530 0.077410 -0.040496
N21   N     N_R   0.574730 0.368470 0.922590 -0.040119
N22   N     N_R   0.631530 0.574730 0.077410 -0.040125
N23   N     N_R   0.925270 0.868470 0.422590 -0.040479
N24   N     N_R   0.368470 0.425270 0.922590 -0.040494
N25   N     N_R   0.574730 0.368470 0.077410 -0.040488
N26   N     N_R   0.425270 0.631530 0.922590 -0.040109
N27   N     N_R   0.074730 0.131530 0.577410 -0.040120
N28   N     N_R   0.131530 0.925270 0.422590 -0.040113
N29   N     N_R   0.868470 0.074730 0.577410 -0.040488
N30   N     N_R   0.074730 0.131530 0.422590 -0.040491
N31   N     N_R   0.925270 0.868470 0.577410 -0.040116
N32   N     N_R   0.868470 0.925270 0.577410 -0.040116
Ni1   Ni    Ni4+2 0.869670 0.000000 0.500000 0.207465
Ni2   Ni    Ni4+2 0.130330 0.000000 0.500000 0.207454
Ni3   Ni    Ni4+2 0.000000 0.869670 0.500000 0.207460
Ni4   Ni    Ni4+2 0.000000 0.130330 0.500000 0.207452
Ni5   Ni    Ni4+2 0.369670 0.500000 0.000000 0.207452
Ni6   Ni    Ni4+2 0.630330 0.500000 0.000000 0.207455
Ni7   Ni    Ni4+2 0.500000 0.369670 0.000000 0.207452
Ni8   Ni    Ni4+2 0.500000 0.630330 0.000000 0.207447

loop_
_geom_bond_atom_site_label_1
_geom_bond_atom_site_label_2
_ccdc_geom_bond_type
C95   C124  A    
C45   N16   A    
C71   C104  A    
C13   C79   A    
C91   C126  S    
C15   H104  S    
C53   N24   A    
N1    N8    A    
C32   C124  S    
C105  C116  A    
C60   C114  A    
C26   C117  S    
C62   C122  A    
C26   H9    S    
C1    C73   A    
C11   H93   S    
C21   H124  S    
C52   H52   S    
C20   H121  S    
C47   N18   A    
N1    Ni1   S    
C65   C86   S    
C72   C98   A    
C9    H87   S    
C101  C112  A    
C14   H100  S    
C50   N21   A    
C10   H90   S    
C28   H17   S    
C127  H61   S    
C85   N29   A    
C103  C110  A    
C58   C112  A    
C6    C98   S    
C35   N6    A    
C50   H50   S    
N18   Ni5   S    
C12   C104  S    
C1    H1    S    
C74   N28   A    
C34   C77   A    
N17   Ni7   S    
N20   Ni8   S    
C93   C128  S    
C51   H51   S    
C27   C119  S    
C30   H22   S    
C97   C125  A    
C41   C75   A    
C16   H108  S    
C61   C80   S    
C104  C115  A    
N29   Ni1   S    
N11   N24   A    
C27   H14   S    
C11   H94   S    
C60   C124  A    
N8    Ni4   S    
C108  C114  A    
N3    N29   A    
C40   C84   A    
N15   Ni5   S    
C22   H125  S    
C107  H107  S    
C42   H42   S    
N4    N28   A    
C33   C125  S    
C32   H28   S    
C126  H56   S    
C20   H119  S    
C57   C109  A    
C30   C122  S    
C49   N20   A    
C81   C107  A    
C6    H77   S    
C29   C121  S    
C10   H91   S    
C67   C94   A    
C96   N30   A    
C64   C73   S    
C54   H54   S    
C69   C97   A    
N7    Ni3   S    
C28   H16   S    
C13   H13   S    
C80   C96   A    
C8    H83   S    
C24   H24   S    
C49   H49   S    
C27   H11   S    
C33   H32   S    
C19   H115  S    
C21   H122  S    
C17   H110  S    
C18   H114  S    
C54   N25   A    
C4    H70   S    
C29   H19   S    
N4    Ni3   S    
N28   Ni2   S    
C43   N14   A    
C64   C115  A    
C20   C112  S    
C38   C82   A    
C39   H39   S    
C56   C120  A    
C49   C88   A    
C44   N15   A    
N15   N20   A    
C93   C117  A    
C65   C102  A    
C29   H20   S    
C8    H82   S    
C51   C86   A    
C56   C110  A    
C54   C83   A    
C31   H25   S    
C18   H112  S    
N9    N26   A    
N24   Ni5   S    
C5    H72   S    
C1    N1    A    
C4    H71   S    
C9    H88   S    
N7    N12   A    
C35   C76   A    
C39   N10   A    
C46   N17   A    
C40   H40   S    
C106  C113  A    
C63   N27   A    
C3    H66   S    
C36   N7    A    
C18   C110  S    
C126  H58   S    
C26   H8    S    
N5    N27   A    
C21   C113  S    
C28   C120  S    
C25   C116  S    
C29   H18   S    
C28   H15   S    
N14   N21   A    
C43   H43   S    
C7    H80   S    
C30   H21   S    
C37   H37   S    
C74   H74   S    
C96   H96   S    
N2    N30   A    
C23   H4    S    
C41   H41   S    
C81   C118  A    
C59   C78   S    
C3    H67   S    
C56   C77   S    
C23   C115  S    
C51   N22   A    
C128  H64   S    
C66   C84   S    
N9    Ni5   S    
C33   H33   S    
C44   H44   S    
C12   H95   S    
C6    H76   S    
C25   H6    S    
C36   C75   A    
C85   H85   S    
C55   N26   A    
C4    C95   S    
C94   C119  A    
C127  H59   S    
N31   N32   A    
N21   Ni7   S    
C10   C102  S    
N5    Ni2   S    
C8    H84   S    
C46   H46   S    
C127  H60   S    
C67   C88   S    
C23   H3    S    
N14   Ni6   S    
N13   Ni8   S    
C15   C106  S    
C68   C101  A    
C55   C82   A    
N11   Ni7   S    
C128  H65   S    
C128  H62   S    
C22   H127  S    
C26   H10   S    
C65   C92   A    
C7    C99   S    
C58   C79   S    
N16   Ni8   S    
C52   N23   A    
C42   C86   A    
N3    Ni4   S    
C50   C87   A    
C18   H113  S    
C7    H79   S    
C4    H69   S    
C2    N2    A    
C5    C97   S    
C72   C82   S    
C57   C76   S    
N23   Ni3   S    
C48   C89   A    
C53   C84   A    
C15   H102  S    
C61   C113  A    
C102  C109  A    
N27   Ni4   S    
C47   C90   A    
N10   N25   A    
C62   C75   S    
C70   C89   S    
C61   C125  A    
C7    H81   S    
N12   Ni2   S    
C69   C90   S    
C92   C127  S    
C17   H111  S    
C12   H98   S    
C79   C85   A    
C31   H26   S    
C25   H5    S    
C19   H117  S    
C99   C123  A    
C32   H29   S    
C63   C77   A    
C24   C78   A    
C38   H38   S    
C37   C73   A    
C59   C119  A    
C45   C89   A    
C34   N5    A    
C15   H103  S    
C21   H123  S    
C118  N32   A    
C66   C103  A    
C38   N9    A    
C126  H57   S    
C107  N31   A    
C3    H68   S    
N19   Ni6   S    
C23   H128  S    
C34   H34   S    
C17   C109  S    
C5    H75   S    
C48   N19   A    
C31   H27   S    
C69   C106  A    
C118  H118  S    
C19   H116  S    
C66   C91   A    
C46   C90   A    
C19   C111  S    
C9    H86   S    
C64   C123  A    
C11   C103  S    
C31   C123  S    
C24   N4    A    
C68   C93   A    
N6    Ni1   S    
N30   Ni4   S    
C52   C76   A    
N10   Ni6   S    
C43   C87   A    
N32   Ni1   S    
C42   N13   A    
C16   H106  S    
C13   N3    A    
C37   N8    A    
C39   C83   A    
C14   H99   S    
C67   C100  A    
C92   C121  A    
N25   Ni7   S    
C5    H73   S    
N26   Ni8   S    
C30   H23   S    
C71   C99   A    
C16   H105  S    
N16   N19   A    
C63   H63   S    
N6    N23   A    
C6    H78   S    
C2    H2    S    
C60   C81   S    
C14   H101  S    
N13   N22   A    
C70   C95   A    
C3    C94   S    
N31   Ni3   S    
C58   C117  A    
C8    C100  S    
C25   H7    S    
C53   H53   S    
C35   H35   S    
C22   H126  S    
N22   Ni6   S    
C2    C80   A    
C62   C116  A    
C16   C108  S    
C57   C121  A    
C40   N11   A    
C45   H45   S    
C22   C114  S    
C27   H12   S    
C72   C105  A    
C98   C122  A    
C9    C101  S    
C74   C78   A    
C12   H97   S    
C59   C111  A    
C36   H36   S    
C68   C87   S    
C55   H55   S    
C91   C120  A    
C41   N12   A    
C71   C83   S    
N2    Ni2   S    
C14   C105  S    
C44   C88   A    
C20   H120  S    
C100  C111  A    
C11   H92   S    
C70   C108  A    
C32   H30   S    
C47   H47   S    
C33   H31   S    
C10   H89   S    
C17   H109  S    
C48   H48   S    
N17   N18   A    
