data_mof_unit_26629.cif
_audit_creation_date              2012-10-26T18:43:35-0400
_audit_creation_method            fapswitch 2.2
_symmetry_space_group_name_H-M    P1
_symmetry_Int_Tables_number       1
_space_group_crystal_system       triclinic
_cell_length_a                    10.756982
_cell_length_b                    10.833639
_cell_length_c                    9.608111
_cell_angle_alpha                 90.186097
_cell_angle_beta                  90.375745
_cell_angle_gamma                 91.208606
_cell_volume                      1119.42332916

loop_
_atom_site_label
_atom_site_type_symbol
_atom_type_description
_atom_site_fract_x
_atom_site_fract_y
_atom_site_fract_z
_atom_type_partial_charge
C1    C     C_R   0.499211 0.262515 0.500001 0.554914
C2    C     C_R   0.493876 0.936284 0.622891 0.009020
C3    C     C_3   0.590697 0.929192 0.734588 -0.262398
C4    C     C_R   0.260105 0.501812 0.500099 0.547231
C5    C     C_3   0.593463 0.069469 0.735982 -0.248941
C6    C     C_R   0.572990 0.581725 0.073807 0.189058
C7    C     C_R   0.421306 0.424521 0.070583 0.195974
C8    C     C_R   0.423505 0.423540 0.923086 0.029498
C9    C     C_R   0.565808 0.588543 0.927179 0.147709
C10   C     C_3   0.701258 0.614006 0.915579 -0.252194
C11   C     C_3   0.712054 0.586935 0.069140 -0.065071
C12   C     C_3   0.878556 0.504131 0.503253 0.041036
C13   C     C_R   0.494812 0.737302 0.499542 0.549474
C14   C     C_R   0.740165 0.502748 0.500859 0.538850
C15   C     C_3   0.073916 0.536770 0.649146 -0.224239
C16   C     C_3   0.931151 0.535530 0.650259 -0.237774
C17   C     C_3   0.073902 0.601313 0.398312 -0.226885
C18   C     C_3   0.068368 0.375069 0.459966 -0.232211
C19   C     C_3   0.122207 0.503722 0.501636 0.031075
C20   C     C_3   0.930733 0.602658 0.400766 -0.233276
C21   C     C_3   0.925255 0.374610 0.463474 -0.229237
C22   C     C_R   0.496338 0.063325 0.624202 0.015294
C23   C     C_R   0.487966 0.129138 0.500276 -0.018349
C24   C     C_R   0.458236 0.064802 0.377361 -0.117897
C25   C     C_R   0.450326 0.936285 0.375516 0.062581
C26   C     C_R   0.480170 0.870202 0.498347 0.008692
Cu1   Cu    Cu3+1 0.499990 0.499980 0.640670 0.947065
Cu2   Cu    Cu3+1 0.500010 0.500020 0.359330 1.026132
H1    H     H_    0.110047 0.629733 0.681135 0.136513
H2    H     H_    0.899158 0.464322 0.725840 0.149604
H3    H     H_    0.898119 0.627164 0.685212 0.117192
H4    H     H_    0.112223 0.694423 0.426361 0.130269
H5    H     H_    0.899352 0.695948 0.431957 0.111195
H6    H     H_    0.444846 0.113534 0.280978 0.192909
H7    H     H_    0.557502 0.109367 0.834206 0.172934
H8    H     H_    0.682987 0.110680 0.699426 0.141407
H9    H     H_    0.722072 0.712047 0.889073 0.098025
H10   H     H_    0.753580 0.664903 0.130060 0.124161
H11   H     H_    0.097856 0.350902 0.353383 0.176850
H12   H     H_    0.887666 0.344855 0.361058 0.176515
H13   H     H_    0.103890 0.303223 0.531679 0.125847
H14   H     H_    0.891550 0.305260 0.540540 0.116881
H15   H     H_    0.105255 0.580053 0.290825 0.170255
H16   H     H_    0.895402 0.584986 0.294162 0.164537
H17   H     H_    0.553103 0.888300 0.832016 0.170226
H18   H     H_    0.678627 0.888710 0.697165 0.127705
H19   H     H_    0.107454 0.469128 0.727198 0.151027
H20   H     H_    0.363592 0.360001 0.865366 0.139714
H21   H     H_    0.748354 0.546566 0.850094 0.183006
I1    I     I_    0.393631 0.857893 0.180583 -0.394247
I2    I     I_    0.289934 0.298969 0.154658 -0.390558
I3    I     I_    0.792388 0.406602 0.090150 -0.436578
N1    N     N_R   0.500800 0.500930 0.147930 -0.202206
N2    N     N_R   0.500800 0.500890 0.852020 -0.246484
O1    O     O_R   0.500000 0.319640 0.618810 -0.503390
O2    O     O_R   0.500010 0.319680 0.381230 -0.472960
O3    O     O_R   0.317690 0.499960 0.618790 -0.517719
O4    O     O_R   0.317700 0.500000 0.381210 -0.475487
O5    O     O_R   0.499990 0.680320 0.618770 -0.503642
O6    O     O_R   0.500000 0.680360 0.381190 -0.475248
O7    O     O_R   0.682300 0.500000 0.618790 -0.522094
O8    O     O_R   0.682310 0.500040 0.381210 -0.481291

loop_
_geom_bond_atom_site_label_1
_geom_bond_atom_site_label_2
_ccdc_geom_bond_type
C4    O3    A    
C2    C22   A    
C11   H10   S    
Cu2   N1    S    
C17   H15   S    
C15   H1    S    
C13   O5    A    
Cu2   O4    S    
C18   C21   S    
C9    C10   S    
C3    H18   S    
C11   I3    S    
C15   H19   S    
C23   C24   A    
C12   C20   S    
C6    C9    A    
C8    H20   S    
C2    C3    S    
C1    O1    A    
Cu1   N2    S    
C7    I2    S    
C7    C8    A    
C2    C26   A    
C13   O6    A    
Cu1   O5    S    
C16   H3    S    
C15   C19   S    
C14   O7    A    
C10   H21   S    
C21   H12   S    
C10   H9    S    
C20   H5    S    
C5    H7    S    
C17   C19   S    
C1    O2    A    
C12   C14   S    
C1    C23   S    
Cu2   O6    S    
Cu2   O2    S    
Cu1   O1    S    
C13   C26   S    
C20   H16   S    
C10   C11   S    
C7    N1    A    
C6    N1    A    
C16   H2    S    
C21   H14   S    
C14   O8    A    
C5    H8    S    
C12   C16   S    
C6    C11   S    
C17   C20   S    
C24   C25   A    
C18   C19   S    
Cu1   O3    S    
C18   H13   S    
C8    N2    A    
Cu1   Cu2   S    
C17   H4    S    
C18   H11   S    
C25   I1    S    
C9    N2    A    
Cu1   O7    S    
C4    O4    A    
C25   C26   A    
C22   C23   A    
C4    C19   S    
C12   C21   S    
C3    H17   S    
C24   H6    S    
C5    C22   S    
C15   C16   S    
C3    C5    S    
Cu2   O8    S    
