data_mof_unit_30813.cif
_audit_creation_date              2012-12-10T19:23:59-0500
_audit_creation_method            fapswitch 2.2
_symmetry_space_group_name_H-M    P1
_symmetry_Int_Tables_number       1
_space_group_crystal_system       triclinic
_cell_length_a                    17.708622
_cell_length_b                    16.494979
_cell_length_c                    10.881266
_cell_angle_alpha                 91.204277
_cell_angle_beta                  92.409467
_cell_angle_gamma                 89.988997
_cell_volume                      3174.94194389

loop_
_atom_site_label
_atom_site_type_symbol
_atom_type_description
_atom_site_fract_x
_atom_site_fract_y
_atom_site_fract_z
_atom_type_partial_charge
C1    C     C_R   0.353974 0.500519 0.498988 0.898938
C2    C     C_R   0.645093 0.499748 0.491728 0.895141
C3    C     C_R   0.729577 0.496776 0.483812 -0.339045
C4    C     C_R   0.268254 0.500743 0.488602 -0.386606
C5    C     C_R   0.765065 0.423319 0.446259 0.317738
C6    C     C_R   0.229932 0.429818 0.438952 0.324859
C7    C     C_R   0.841376 0.407966 0.485200 -0.002620
C8    C     C_R   0.152146 0.418378 0.460760 0.009506
C9    C     C_R   0.882610 0.470244 0.548921 -0.122100
C10   C     C_R   0.109393 0.485520 0.498514 -0.146612
C11   C     C_1   0.964091 0.471695 0.544394 0.142537
C12   C     C_1   0.030794 0.476680 0.527522 0.134420
C13   C     C_R   0.553922 0.832733 0.570884 -0.224407
C14   C     C_R   0.448601 0.832454 0.431560 -0.191821
C15   C     C_R   0.552178 0.746995 0.575258 0.594504
C16   C     C_R   0.448437 0.746556 0.425782 0.586146
C17   C     C_R   0.501958 0.875762 0.501041 -0.084272
C18   C     C_1   0.503115 0.964637 0.500991 0.149944
C19   C     C_1   0.503915 0.038655 0.500444 0.203127
C20   C     C_R   0.508822 0.498460 0.261905 0.860894
C21   C     C_R   0.490035 0.500331 0.737727 0.801966
C22   C     C_R   0.541111 0.174036 0.594915 0.243262
C23   C     C_R   0.468001 0.169837 0.401303 0.241595
C24   C     C_R   0.537388 0.259429 0.593217 -0.080837
C25   C     C_R   0.467664 0.255372 0.403732 0.090466
C26   C     C_R   0.504363 0.127838 0.499073 -0.107257
C27   C     C_R   0.559462 0.637543 0.103782 0.030482
C28   C     C_R   0.441288 0.640435 0.925291 0.071440
C29   C     C_R   0.529962 0.714300 0.066840 0.346693
C30   C     C_R   0.467990 0.715538 0.977677 0.377606
C31   C     C_R   0.484186 0.570050 0.946522 -0.003628
C32   C     C_R   0.521804 0.566534 0.060179 -0.024042
C33   C     C_R   0.518307 0.493639 0.125625 -0.112735
C34   C     C_R   0.477338 0.498876 0.873357 -0.137002
C35   C     C_R   0.503031 0.419734 0.057583 0.099006
C36   C     C_R   0.473523 0.424059 0.934354 0.105498
C37   C     C_R   0.846882 0.542587 0.582962 0.342731
C38   C     C_R   0.142311 0.562641 0.502856 0.328010
C39   C     C_R   0.775600 0.561467 0.530214 0.306485
C40   C     C_R   0.221744 0.569639 0.521439 0.312568
Cu1   Cu    Cu3+1 0.500000 0.580420 0.500000 1.141146
Cu2   Cu    Cu3+1 0.500000 0.419580 0.500000 1.020419
H1    H     H_    0.565878 0.294775 0.665918 0.161921
H2    H     H_    0.441122 0.287509 0.328405 0.205849
H3    H     H_    0.594274 0.868013 0.626676 0.247873
H4    H     H_    0.408030 0.867610 0.378418 0.248710
N1    N     N_R   0.500000 0.701220 0.500000 -0.276658
N2    N     N_R   0.500000 0.298780 0.500000 -0.201617
O1    O     O_R   0.391260 0.567930 0.500000 -0.498027
O2    O     O_R   0.608740 0.567930 0.500000 -0.512983
O3    O     O_R   0.391280 0.432120 0.500000 -0.521689
O4    O     O_R   0.608720 0.432120 0.500000 -0.573284
O5    O     O_R   0.500000 0.567920 0.319650 -0.541139
O6    O     O_R   0.500000 0.567920 0.680350 -0.511227
O7    O     O_R   0.500030 0.432100 0.319660 -0.569385
O8    O     O_R   0.499970 0.432100 0.680340 -0.613017
C41   C     C_3   0.526601 0.337112 0.107994 -0.404581
C42   C     C_3   0.583225 0.293742 0.026897 -0.571883
H5    H     H_    0.556964 0.274801 0.936788 0.248791
H6    H     H_    0.632135 0.333972 0.011737 0.264688
H7    H     H_    0.604380 0.238295 0.073207 0.293442
H8    H     H_    0.556339 0.341548 0.198512 0.289861
H9    H     H_    0.476616 0.298299 0.119951 0.237168
C43   C     C_3   0.428983 0.352941 0.874586 -0.358921
C44   C     C_3   0.349306 0.378055 0.830645 -0.745432
H10   H     H_    0.350968 0.424083 0.757998 0.222656
H11   H     H_    0.318319 0.324267 0.791695 0.263255
H12   H     H_    0.317901 0.403066 0.909073 0.256021
H13   H     H_    0.459016 0.324915 0.797586 0.225089
H14   H     H_    0.421078 0.303386 0.939636 0.240410
S1    S     S_3+6 0.592572 0.127627 0.717380 0.034884
O9    O     O_2   0.537961 0.098613 0.808900 -0.183767
O10   O     O_2   0.636638 0.056299 0.670611 -0.251275
O11   O     O_3   0.652774 0.194247 0.787865 -0.523641
H15   H     H_    0.689099 0.208004 0.724684 0.339857
S2    S     S_3+6 0.424205 0.116971 0.274217 0.070426
O12   O     O_2   0.483242 0.069588 0.208260 -0.169649
O13   O     O_2   0.366671 0.058708 0.319009 -0.249947
O14   O     O_3   0.381673 0.181136 0.175103 -0.504859
H16   H     H_    0.332158 0.193561 0.210050 0.407600
C45   C     C_3   0.638344 0.627755 0.162322 -0.286089
C46   C     C_3   0.690838 0.584369 0.074122 -0.686848
H17   H     H_    0.694290 0.618915 0.987927 0.274366
H18   H     H_    0.748407 0.579879 0.117949 0.286396
H19   H     H_    0.670520 0.522024 0.050958 0.261651
H20   H     H_    0.665892 0.686387 0.185136 0.296796
H21   H     H_    0.636058 0.592680 0.247681 0.235300
C47   C     C_3   0.359271 0.628706 0.883933 -0.267607
C48   C     C_3   0.312758 0.593135 0.985052 -0.766893
H22   H     H_    0.256282 0.574812 0.945827 0.265492
H23   H     H_    0.304223 0.639266 0.058536 0.293865
H24   H     H_    0.340536 0.538889 0.025232 0.244867
H25   H     H_    0.332158 0.686524 0.858493 0.307422
H26   H     H_    0.355619 0.585464 0.804663 0.215109
S3    S     S_3+6 0.562855 0.804960 0.144368 0.076959
O15   O     O_2   0.625424 0.840396 0.073258 -0.219739
O16   O     O_2   0.500359 0.866019 0.154817 -0.159750
O17   O     O_3   0.595776 0.785925 0.287833 -0.566033
H27   H     H_    0.623821 0.835487 0.315183 0.392224
S4    S     S_3+6 0.435464 0.807447 0.909244 0.100345
O18   O     O_2   0.371336 0.841104 0.980653 -0.209753
O19   O     O_2   0.497718 0.869249 0.907369 -0.153095
O20   O     O_3   0.405332 0.790088 0.762587 -0.535532
H28   H     H_    0.388148 0.843499 0.732310 0.377712
S5    S     S_3+6 0.888070 0.604895 0.702442 0.090335
O21   O     O_2   0.937057 0.668300 0.649333 -0.161250
O22   O     O_2   0.827025 0.645485 0.773301 -0.241616
O23   O     O_3   0.941313 0.547733 0.798507 -0.530597
H29   H     H_    0.965371 0.586820 0.858499 0.392919
S6    S     S_3+6 0.085408 0.648887 0.464927 0.125221
O24   O     O_2   0.079182 0.703747 0.575997 -0.153892
O25   O     O_2   0.122291 0.694091 0.364994 -0.203293
O26   O     O_3   0.998155 0.622584 0.411370 -0.512754
H30   H     H_    0.972716 0.674487 0.391707 0.418777
S7    S     S_3+6 0.769382 0.657433 0.457102 0.084268
O27   O     O_2   0.811296 0.650523 0.340155 -0.264265
O28   O     O_2   0.689670 0.681523 0.424209 -0.294061
O29   O     O_3   0.809611 0.732434 0.543998 -0.403954
H31   H     H_    0.767551 0.759913 0.585050 0.406552
S8    S     S_3+6 0.252724 0.660692 0.603503 0.065039
O30   O     O_2   0.212668 0.663759 0.722549 -0.294386
O31   O     O_2   0.335785 0.666859 0.631308 -0.299187
O32   O     O_3   0.228747 0.744238 0.525101 -0.386831
H32   H     H_    0.242037 0.790242 0.581878 0.383990
S9    S     S_3+6 0.719084 0.363721 0.326107 0.008305
O33   O     O_2   0.672671 0.419974 0.246996 -0.342071
O34   O     O_2   0.774464 0.321688 0.245779 -0.248415
O35   O     O_3   0.661684 0.293651 0.382802 -0.509236
H33   H     H_    0.673899 0.293152 0.472362 0.324565
S10   S     S_3+6 0.276148 0.359120 0.340571 -0.009539
O36   O     O_2   0.307795 0.292211 0.418670 -0.297727
O37   O     O_2   0.222630 0.322520 0.244224 -0.295445
O38   O     O_3   0.345739 0.404012 0.266466 -0.531338
H34   H     H_    0.320729 0.448460 0.220440 0.341130
C49   C     C_3   0.878952 0.325371 0.466378 -0.328799
C50   C     C_3   0.836955 0.256458 0.526065 -0.720523
H35   H     H_    0.814163 0.276798 0.615166 0.236297
H36   H     H_    0.790675 0.232972 0.463859 0.285641
H37   H     H_    0.876324 0.205153 0.543641 0.254123
H38   H     H_    0.886764 0.311592 0.367861 0.250659
H39   H     H_    0.936697 0.324802 0.509786 0.187327
C51   C     C_3   0.113858 0.335890 0.443317 -0.305575
C52   C     C_3   0.060032 0.332206 0.329120 -0.700972
H40   H     H_    0.011973 0.374422 0.338495 0.223412
H41   H     H_    0.088932 0.348882 0.245047 0.298535
H42   H     H_    0.037152 0.269799 0.316344 0.244360
H43   H     H_    0.155516 0.285992 0.437473 0.267966
H44   H     H_    0.081632 0.322551 0.525967 0.175301
S11   S     S_3+6 0.613190 0.711329 0.699587 0.052130
O39   O     O_2   0.565916 0.684996 0.800503 -0.334779
O40   O     O_2   0.665352 0.643347 0.670948 -0.271773
O41   O     O_3   0.668067 0.787428 0.757880 -0.515194
H45   H     H_    0.689999 0.767201 0.836712 0.409443
S12   S     S_3+6 0.379536 0.709047 0.311162 0.053017
O42   O     O_2   0.414023 0.659112 0.213067 -0.361113
O43   O     O_2   0.317853 0.660654 0.362913 -0.243792
O44   O     O_3   0.337086 0.787406 0.239424 -0.480526
H46   H     H_    0.294812 0.763201 0.188714 0.396757

loop_
_geom_bond_atom_site_label_1
_geom_bond_atom_site_label_2
_ccdc_geom_bond_type
C52   H42   S    
C38   C40   A    
O44   H46   S    
C27   C29   A    
Cu1   Cu2   S    
C22   S1    S    
S3    O15   D    
S2    O14   S    
C15   N1    A    
C23   S2    S    
C6    S10   S    
O35   H33   S    
C45   C46   S    
S3    O17   S    
O32   H32   S    
C14   H4    S    
C37   S5    S    
S5    O22   D    
S2    O13   D    
O26   H30   S    
S11   O40   D    
C21   O6    A    
C42   H6    S    
S7    O27   D    
C30   S4    S    
O23   H29   S    
C25   H2    S    
C52   H41   S    
C18   C19   T    
C23   C26   A    
C19   C26   S    
O29   H31   S    
C2    O2    A    
Cu2   O8    S    
S6    O24   D    
C35   C36   A    
C44   H11   S    
C28   C47   S    
S9    O35   S    
C14   C16   A    
C43   H14   S    
C48   H23   S    
S12   O43   D    
C45   H20   S    
S8    O32   S    
Cu2   O3    S    
S7    O29   S    
C42   H7    S    
C49   C50   S    
C3    C39   A    
C14   C17   A    
C20   O7    A    
C16   N1    A    
Cu1   O1    S    
S8    O31   D    
C41   H9    S    
C49   H38   S    
S5    O23   S    
C47   H26   S    
O11   H15   S    
C24   N2    A    
C51   H44   S    
C41   H8    S    
S2    O12   D    
S12   O44   S    
C4    C6    A    
S11   O41   S    
C5    C7    A    
C50   H35   S    
C6    C8    A    
C21   C34   S    
S7    O28   D    
C42   H5    S    
C46   H17   S    
S4    O20   S    
C50   H37   S    
S10   O37   D    
C7    C49   S    
C29   C30   A    
C2    O4    A    
Cu2   O7    S    
C21   O8    A    
C9    C11   S    
C31   C32   A    
S6    O26   S    
C27   C45   S    
C44   H12   S    
C9    C37   A    
C17   C18   S    
Cu1   N1    S    
C31   C34   A    
Cu2   N2    S    
C43   H13   S    
O41   H45   S    
C48   H24   S    
C1    O3    A    
C25   N2    A    
Cu1   O5    S    
S12   O42   D    
C45   H21   S    
C10   C12   S    
C20   C33   S    
C50   H36   S    
C40   S8    S    
C44   H10   S    
C39   S7    S    
C13   C15   A    
C16   S12   S    
O38   H34   S    
C22   C24   A    
S10   O38   S    
C38   S6    S    
Cu1   O2    S    
C15   S11   S    
S8    O30   D    
S1    O10   D    
S4    O19   D    
C7    C9    A    
C47   H25   S    
C27   C32   A    
C51   H43   S    
C28   C31   A    
C20   O5    A    
C3    C5    A    
C35   C41   S    
S1    O11   S    
C11   C12   T    
S3    O16   D    
C46   H19   S    
S5    O21   D    
C46   H18   S    
C13   C17   A    
C10   C38   A    
C4    C40   A    
C32   C33   A    
C1    C4    S    
C28   C30   A    
S10   O36   D    
S1    O9    D    
C37   C39   A    
S11   O39   D    
C43   C44   S    
C13   H3    S    
C41   C42   S    
S9    O33   D    
S4    O18   D    
C33   C35   A    
C2    C3    S    
C34   C36   A    
C23   C25   A    
S6    O25   D    
Cu1   O6    S    
C29   S3    S    
O14   H16   S    
C49   H39   S    
C47   C48   S    
C8    C10   A    
O17   H27   S    
C22   C26   A    
C5    S9    S    
O20   H28   S    
S9    O34   D    
C24   H1    S    
C51   C52   S    
C8    C51   S    
C48   H22   S    
C36   C43   S    
C1    O1    A    
C52   H40   S    
Cu2   O4    S    
