data_mof_unit_24135.cif
_audit_creation_date              2013-03-05T15:43:49-0500
_audit_creation_method            fapswitch 2.2
_symmetry_space_group_name_H-M    P1
_symmetry_Int_Tables_number       1
_space_group_crystal_system       triclinic
_cell_length_a                    21.397654
_cell_length_b                    21.409948
_cell_length_c                    22.300498
_cell_angle_alpha                 89.988587
_cell_angle_beta                  90.000641
_cell_angle_gamma                 90.016602
_cell_volume                      10216.3628189

loop_
_atom_site_label
_atom_site_type_symbol
_atom_site_description
_atom_site_fract_x
_atom_site_fract_y
_atom_site_fract_z
_atom_type_partial_charge
C1    C     C_R   0.938642 0.135169 0.112596 -0.115180
C2    C     C_R   0.085423 0.841438 0.920644 -0.137913
C3    C     C_R   0.158688 0.085380 0.079098 -0.126772
C4    C     C_R   0.864490 0.938337 0.887566 -0.106251
C5    C     C_R   0.061737 0.864413 0.112371 -0.114384
C6    C     C_R   0.914587 0.158568 0.920642 -0.140013
C7    C     C_R   0.841319 0.914585 0.079096 -0.126682
C8    C     C_R   0.135476 0.061699 0.887528 -0.107324
C9    C     C_R   0.938227 0.864481 0.887585 -0.114124
C10   C     C_R   0.085546 0.158608 0.079190 -0.138057
C11   C     C_R   0.158640 0.914647 0.920751 -0.126626
C12   C     C_R   0.864916 0.061303 0.112689 -0.111519
C13   C     C_R   0.061759 0.135575 0.887620 -0.114333
C14   C     C_R   0.914499 0.841394 0.079254 -0.137528
C15   C     C_R   0.841390 0.085335 0.920661 -0.124115
C16   C     C_R   0.135472 0.938310 0.112479 -0.106313
C17   C     C_R   0.438451 0.635356 0.612496 -0.116292
C18   C     C_R   0.585403 0.341442 0.420633 -0.139980
C19   C     C_R   0.658665 0.585469 0.579119 -0.126562
C20   C     C_R   0.364537 0.438302 0.387512 -0.106917
C21   C     C_R   0.561353 0.364823 0.612604 -0.115303
C22   C     C_R   0.414515 0.658593 0.420727 -0.137814
C23   C     C_R   0.341311 0.414578 0.579081 -0.126917
C24   C     C_R   0.635468 0.561708 0.387522 -0.107228
C25   C     C_R   0.438243 0.364410 0.387652 -0.114233
C26   C     C_R   0.585427 0.658607 0.579249 -0.137058
C27   C     C_R   0.658602 0.414676 0.420634 -0.123945
C28   C     C_R   0.364764 0.561431 0.612602 -0.106909
C29   C     C_R   0.561736 0.635570 0.387620 -0.114403
C30   C     C_R   0.414477 0.341380 0.579196 -0.137959
C31   C     C_R   0.341332 0.585363 0.420847 -0.126755
C32   C     C_R   0.635074 0.438693 0.612695 -0.111370
H1    H     H_    0.970013 0.172324 0.125063 0.095838
H2    H     H_    0.062663 0.796664 0.925066 0.089200
H3    H     H_    0.203452 0.062678 0.074236 0.114403
H4    H     H_    0.827376 0.969724 0.875056 0.114434
H5    H     H_    0.030465 0.827137 0.124752 0.095716
H6    H     H_    0.937336 0.203347 0.925066 0.089317
H7    H     H_    0.796541 0.937256 0.074213 0.113258
H8    H     H_    0.172570 0.030309 0.874956 0.110950
H9    H     H_    0.969467 0.827224 0.875127 0.095714
H10   H     H_    0.062833 0.203393 0.074744 0.089030
H11   H     H_    0.203441 0.937329 0.925495 0.113875
H12   H     H_    0.827920 0.029804 0.125324 0.111301
H13   H     H_    0.030512 0.172848 0.875223 0.095834
H14   H     H_    0.937235 0.796621 0.074832 0.089042
H15   H     H_    0.796614 0.062563 0.925175 0.113292
H16   H     H_    0.172567 0.969720 0.125060 0.111554
H17   H     H_    0.469685 0.672653 0.624908 0.094673
H18   H     H_    0.562656 0.296662 0.425065 0.089207
H19   H     H_    0.703471 0.562836 0.574317 0.112901
H20   H     H_    0.327452 0.469697 0.374906 0.111557
H21   H     H_    0.529983 0.327664 0.625074 0.095755
H22   H     H_    0.437254 0.703377 0.425151 0.088704
H23   H     H_    0.296536 0.437257 0.574215 0.114374
H24   H     H_    0.672575 0.530342 0.374943 0.114388
H25   H     H_    0.469485 0.327125 0.375299 0.095766
H26   H     H_    0.562637 0.703346 0.574768 0.088100
H27   H     H_    0.703381 0.437450 0.425118 0.112968
H28   H     H_    0.327729 0.529961 0.625205 0.111361
H29   H     H_    0.530468 0.672829 0.375229 0.095738
H30   H     H_    0.437206 0.296608 0.574737 0.088887
H31   H     H_    0.296553 0.562660 0.425698 0.114324
H32   H     H_    0.672063 0.470196 0.625331 0.111375
N1    N     N_R   0.940200 0.105310 0.059970 -0.043957
N2    N     N_R   0.059800 0.894690 0.940030 -0.041693
N3    N     N_R   0.105310 0.059800 0.059970 -0.043963
N4    N     N_R   0.894690 0.940200 0.940030 -0.043797
N5    N     N_R   0.059800 0.894690 0.059970 -0.044034
N6    N     N_R   0.940200 0.105310 0.940030 -0.041466
N7    N     N_R   0.894690 0.940200 0.059970 -0.043703
N8    N     N_R   0.105310 0.059800 0.940030 -0.043501
N9    N     N_R   0.940200 0.894690 0.940030 -0.044012
N10   N     N_R   0.059800 0.105310 0.059970 -0.041563
N11   N     N_R   0.105310 0.940200 0.940030 -0.043900
N12   N     N_R   0.894690 0.059800 0.059970 -0.043779
N13   N     N_R   0.059800 0.105310 0.940030 -0.043963
N14   N     N_R   0.940200 0.894690 0.059970 -0.041596
N15   N     N_R   0.894690 0.059800 0.940030 -0.044512
N16   N     N_R   0.105310 0.940200 0.059970 -0.043517
N17   N     N_R   0.440200 0.605310 0.559970 -0.043838
N18   N     N_R   0.559800 0.394690 0.440030 -0.041413
N19   N     N_R   0.605310 0.559800 0.559970 -0.043629
N20   N     N_R   0.394690 0.440200 0.440030 -0.043528
N21   N     N_R   0.559800 0.394690 0.559970 -0.043959
N22   N     N_R   0.440200 0.605310 0.440030 -0.041609
N23   N     N_R   0.394690 0.440200 0.559970 -0.043867
N24   N     N_R   0.605310 0.559800 0.440030 -0.043754
N25   N     N_R   0.440200 0.394690 0.440030 -0.043975
N26   N     N_R   0.559800 0.605310 0.559970 -0.041388
N27   N     N_R   0.605310 0.440200 0.440030 -0.044385
N28   N     N_R   0.394690 0.559800 0.559970 -0.043477
N29   N     N_R   0.559800 0.605310 0.440030 -0.044017
N30   N     N_R   0.440200 0.394690 0.559970 -0.041480
N31   N     N_R   0.394690 0.559800 0.440030 -0.043901
N32   N     N_R   0.605310 0.440200 0.559970 -0.043806
C33   C     C_R   0.362291 0.199468 0.153777 0.279091
C34   C     C_R   0.738342 0.899934 0.690095 0.276322
C35   C     C_R   0.260777 0.899974 0.310782 0.279262
C36   C     C_R   0.638606 0.198863 0.843781 0.286791
C37   C     C_R   0.637608 0.800233 0.153384 0.280263
C38   C     C_R   0.260791 0.099957 0.689238 0.282714
C39   C     C_R   0.739153 0.099868 0.310011 0.278817
C40   C     C_R   0.362144 0.800350 0.846452 0.277705
C41   C     C_R   0.862364 0.700524 0.652763 0.279401
C42   C     C_R   0.239423 0.399968 0.189052 0.279614
C43   C     C_R   0.760739 0.400169 0.810106 0.278907
C44   C     C_R   0.137635 0.699644 0.346529 0.278699
C45   C     C_R   0.137587 0.300143 0.653268 0.278481
C46   C     C_R   0.760750 0.599985 0.189241 0.276246
C47   C     C_R   0.239027 0.600100 0.810188 0.279748
C48   C     C_R   0.861360 0.301115 0.343715 0.286938
C49   C     C_R   0.794051 0.874918 0.714054 -0.045385
C50   C     C_R   0.301125 0.219182 0.139391 -0.046465
C51   C     C_R   0.699728 0.218566 0.858294 -0.056580
C52   C     C_R   0.205407 0.874718 0.286318 -0.046024
C53   C     C_R   0.205405 0.125192 0.713662 -0.046676
C54   C     C_R   0.698884 0.780638 0.139246 -0.046270
C55   C     C_R   0.300791 0.780723 0.860136 -0.041465
C56   C     C_R   0.794928 0.124759 0.286095 -0.046166
C57   C     C_R   0.294725 0.374687 0.213611 -0.045930
C58   C     C_R   0.800922 0.719876 0.638973 -0.046391
C59   C     C_R   0.198915 0.719256 0.360670 -0.046428
C60   C     C_R   0.704988 0.375259 0.786164 -0.046198
C61   C     C_R   0.705364 0.625215 0.213666 -0.045715
C62   C     C_R   0.198875 0.280568 0.639152 -0.046205
C63   C     C_R   0.800226 0.281430 0.358214 -0.056615
C64   C     C_R   0.294576 0.625233 0.785981 -0.046269
C65   C     C_R   0.817130 0.816926 0.693363 -0.006835
C66   C     C_R   0.280517 0.279592 0.155563 -0.005399
C67   C     C_R   0.720075 0.279290 0.842702 -0.000204
C68   C     C_R   0.182492 0.816514 0.306679 -0.007417
C69   C     C_R   0.182478 0.183357 0.693244 -0.007844
C70   C     C_R   0.719546 0.720273 0.155529 -0.005130
C71   C     C_R   0.279979 0.720600 0.843396 -0.005286
C72   C     C_R   0.817598 0.183189 0.306083 -0.008704
C73   C     C_R   0.317593 0.316451 0.193335 -0.007489
C74   C     C_R   0.780021 0.780042 0.655652 -0.005726
C75   C     C_R   0.219583 0.779638 0.344412 -0.005494
C76   C     C_R   0.682333 0.316817 0.806153 -0.008655
C77   C     C_R   0.682450 0.683395 0.193271 -0.006674
C78   C     C_R   0.219563 0.220224 0.655480 -0.005610
C79   C     C_R   0.779857 0.220720 0.342614 -0.000248
C80   C     C_R   0.317311 0.683646 0.806041 -0.006706
H33   H     H_    0.802312 0.943909 0.783199 0.159936
H34   H     H_    0.271711 0.129481 0.107906 0.158947
H35   H     H_    0.727833 0.130375 0.894700 0.159711
H36   H     H_    0.197264 0.943901 0.217258 0.157367
H37   H     H_    0.197270 0.056071 0.782776 0.157057
H38   H     H_    0.728299 0.870398 0.107870 0.158092
H39   H     H_    0.271903 0.870223 0.892467 0.156169
H40   H     H_    0.803823 0.054932 0.217768 0.156872
H41   H     H_    0.302856 0.443901 0.282634 0.157295
H42   H     H_    0.771830 0.630161 0.607147 0.158466
H43   H     H_    0.228321 0.629498 0.392022 0.158886
H44   H     H_    0.696104 0.445090 0.717811 0.156829
H45   H     H_    0.697212 0.556067 0.282751 0.159865
H46   H     H_    0.228253 0.370320 0.607710 0.158857
H47   H     H_    0.772152 0.369613 0.394637 0.159533
H48   H     H_    0.303062 0.555673 0.717363 0.157146
C81   C     C_R   0.899178 0.736993 0.691403 0.012488
C82   C     C_R   0.201732 0.362662 0.151903 0.011182
C83   C     C_R   0.798924 0.362411 0.846324 0.010946
C84   C     C_R   0.100806 0.736149 0.307944 0.012101
C85   C     C_R   0.100774 0.263657 0.691900 0.013097
C86   C     C_R   0.798457 0.637309 0.152113 0.011082
C87   C     C_R   0.201042 0.637603 0.846814 0.011870
C88   C     C_R   0.899339 0.263472 0.307463 0.014347
C89   C     C_R   0.399093 0.235929 0.192393 0.012862
C90   C     C_R   0.700557 0.862542 0.653135 0.012625
C91   C     C_R   0.298478 0.862654 0.347903 0.012033
C92   C     C_R   0.600625 0.236500 0.807510 0.014394
C93   C     C_R   0.600775 0.763726 0.191978 0.011540
C94   C     C_R   0.298501 0.137282 0.652111 0.011715
C95   C     C_R   0.700966 0.137634 0.346204 0.010939
C96   C     C_R   0.398380 0.764985 0.806137 0.003783
H49   H     H_    0.946038 0.805379 0.781803 0.112558
H50   H     H_    0.132399 0.272598 0.100904 0.112081
H51   H     H_    0.868666 0.272033 0.896045 0.111698
H52   H     H_    0.053978 0.804813 0.217776 0.112516
H53   H     H_    0.053978 0.195071 0.782154 0.112673
H54   H     H_    0.867758 0.727413 0.101131 0.112061
H55   H     H_    0.131701 0.727703 0.897570 0.112097
H56   H     H_    0.947015 0.194128 0.218353 0.113457
H57   H     H_    0.445994 0.304745 0.282372 0.112677
H58   H     H_    0.631556 0.772418 0.602047 0.111993
H59   H     H_    0.367785 0.772556 0.398833 0.111995
H60   H     H_    0.552967 0.305836 0.718363 0.113443
H61   H     H_    0.553945 0.695088 0.282175 0.112480
H62   H     H_    0.367783 0.227396 0.601117 0.112070
H63   H     H_    0.631262 0.228009 0.395925 0.111690
H64   H     H_    0.446965 0.693829 0.718490 0.115971
Ni1   Ni    Ni4+2 0.000000 0.104370 0.000000 0.214020
Ni2   Ni    Ni4+2 0.000000 0.895630 0.000000 0.214772
Ni3   Ni    Ni4+2 0.104370 0.000000 0.000000 0.234704
Ni4   Ni    Ni4+2 0.895630 0.000000 0.000000 0.232477
Ni5   Ni    Ni4+2 0.500000 0.604370 0.500000 0.214109
Ni6   Ni    Ni4+2 0.500000 0.395630 0.500000 0.214137
Ni7   Ni    Ni4+2 0.604370 0.500000 0.500000 0.232304
Ni8   Ni    Ni4+2 0.395630 0.500000 0.500000 0.234701
C97   C     C_R   0.892694 0.107342 0.147744 0.057857
C98   C     C_R   0.148027 0.852119 0.908509 0.075457
C99   C     C_R   0.148178 0.147946 0.091199 0.075548
C100  C     C_R   0.891950 0.892045 0.852609 0.057382
C101  C     C_R   0.107989 0.891941 0.147393 0.057120
C102  C     C_R   0.852013 0.147873 0.908434 0.076637
C103  C     C_R   0.851863 0.852030 0.091258 0.075707
C104  C     C_R   0.108002 0.108045 0.852606 0.057144
C105  C     C_R   0.392402 0.607607 0.647597 0.057640
C106  C     C_R   0.647970 0.352144 0.408397 0.076694
C107  C     C_R   0.648048 0.648022 0.591281 0.076405
C108  C     C_R   0.392014 0.391934 0.352620 0.057135
C109  C     C_R   0.607290 0.392648 0.647756 0.057928
C110  C     C_R   0.351883 0.647924 0.408684 0.075624
C111  C     C_R   0.351844 0.352010 0.591199 0.075518
C112  C     C_R   0.607974 0.608046 0.352602 0.057383
C113  C     C_R   0.823148 0.903038 0.763228 -0.128922
C114  C     C_R   0.258062 0.177431 0.114701 -0.119034
C115  C     C_R   0.742228 0.177488 0.884808 -0.136517
C116  C     C_R   0.176485 0.902875 0.237044 -0.130127
C117  C     C_R   0.176486 0.097065 0.762958 -0.130461
C118  C     C_R   0.741970 0.822453 0.114668 -0.118088
C119  C     C_R   0.257908 0.822415 0.885166 -0.117079
C120  C     C_R   0.824422 0.096103 0.237435 -0.131060
C121  C     C_R   0.323609 0.402852 0.262901 -0.130247
C122  C     C_R   0.757941 0.677980 0.614341 -0.118686
C123  C     C_R   0.241996 0.677452 0.385239 -0.118919
C124  C     C_R   0.675511 0.403907 0.737479 -0.130406
C125  C     C_R   0.676437 0.597072 0.262947 -0.129699
C126  C     C_R   0.241946 0.322388 0.614552 -0.118596
C127  C     C_R   0.757740 0.322512 0.384731 -0.136653
C128  C     C_R   0.323777 0.596760 0.737080 -0.130049
C129  C     C_R   0.874147 0.874298 0.791142 0.083085
C130  C     C_R   0.196037 0.195415 0.104805 0.080961
C131  C     C_R   0.804407 0.195285 0.894055 0.087628
C132  C     C_R   0.125687 0.874046 0.208860 0.083837
C133  C     C_R   0.125692 0.125895 0.791123 0.083839
C134  C     C_R   0.804032 0.804530 0.104873 0.081150
C135  C     C_R   0.195734 0.804641 0.894615 0.081199
C136  C     C_R   0.875321 0.124859 0.209365 0.084064
C137  C     C_R   0.374347 0.374018 0.291159 0.083880
C138  C     C_R   0.695737 0.695633 0.604950 0.080834
C139  C     C_R   0.304058 0.695403 0.395052 0.080870
C140  C     C_R   0.624639 0.375134 0.709391 0.084126
C141  C     C_R   0.625650 0.625900 0.291120 0.083218
C142  C     C_R   0.304021 0.304492 0.604797 0.080862
C143  C     C_R   0.695556 0.304731 0.393977 0.087712
C144  C     C_R   0.374770 0.625363 0.709090 0.082823
C145  C     C_R   0.903567 0.823869 0.762982 -0.192461
C146  C     C_R   0.179121 0.258138 0.112066 -0.201353
C147  C     C_R   0.821736 0.257715 0.885533 -0.202590
C148  C     C_R   0.096326 0.823395 0.236769 -0.192634
C149  C     C_R   0.096323 0.176496 0.763171 -0.192791
C150  C     C_R   0.821001 0.741829 0.112204 -0.200993
C151  C     C_R   0.178529 0.742081 0.886710 -0.201139
C152  C     C_R   0.904636 0.175505 0.237291 -0.194029
C153  C     C_R   0.403675 0.323326 0.263337 -0.192467
C154  C     C_R   0.678456 0.758180 0.612755 -0.200565
C155  C     C_R   0.321030 0.758118 0.387747 -0.201542
C156  C     C_R   0.595328 0.324474 0.737317 -0.193935
C157  C     C_R   0.596288 0.676515 0.263186 -0.192326
C158  C     C_R   0.321016 0.241799 0.612165 -0.201101
C159  C     C_R   0.678199 0.242317 0.385426 -0.202664
C160  C     C_R   0.404099 0.675991 0.736989 -0.189856
C161  C     C_R   0.874621 0.793239 0.715045 0.051624
C162  C     C_R   0.220368 0.300692 0.138611 0.051687
C163  C     C_R   0.780370 0.300324 0.859320 0.051396
C164  C     C_R   0.125211 0.792650 0.284662 0.051779
C165  C     C_R   0.125194 0.207202 0.715239 0.051769
C166  C     C_R   0.779761 0.699242 0.138718 0.052725
C167  C     C_R   0.219718 0.699560 0.860106 0.050763
C168  C     C_R   0.875375 0.206560 0.284768 0.051663
C169  C     C_R   0.374793 0.292537 0.215481 0.051651
C170  C     C_R   0.719584 0.800825 0.639283 0.053868
C171  C     C_R   0.279791 0.800695 0.361248 0.051591
C172  C     C_R   0.624576 0.293426 0.784816 0.051792
C173  C     C_R   0.625170 0.707243 0.215275 0.051630
C174  C     C_R   0.279788 0.199207 0.638690 0.051105
C175  C     C_R   0.719549 0.199706 0.359211 0.051376
C176  C     C_R   0.374649 0.707556 0.784076 0.050313
N33   N     N_2   0.959801 0.715037 0.707312 -0.074761
H65   H     H_    0.967719 0.710249 0.752658 0.177364
C177  C     C_3   0.010547 0.744329 0.675059 -0.747768
H66   H     H_    0.013601 0.794706 0.686643 0.222368
H67   H     H_    0.003495 0.739148 0.625937 0.266078
H68   H     H_    0.055290 0.721387 0.687315 0.247091
N34   N     N_2   0.144719 0.388057 0.129692 -0.073644
H69   H     H_    0.105186 0.362411 0.139192 0.176891
C178  C     C_3   0.147783 0.410628 0.068665 -0.778413
H70   H     H_    0.156213 0.371305 0.037184 0.228581
H71   H     H_    0.185818 0.445667 0.064059 0.262364
H72   H     H_    0.102880 0.433424 0.056709 0.241098
N35   N     N_2   0.856265 0.387557 0.868047 -0.073093
H73   H     H_    0.895636 0.361944 0.857934 0.177830
C179  C     C_3   0.853999 0.409749 0.929224 -0.779515
H74   H     H_    0.845854 0.370247 0.960585 0.227612
H75   H     H_    0.816113 0.444829 0.934444 0.262534
H76   H     H_    0.899101 0.432384 0.940797 0.241538
N36   N     N_2   0.040352 0.713968 0.291697 -0.074943
H77   H     H_    0.032643 0.709388 0.246299 0.177266
C180  C     C_3   0.989337 0.742809 0.323899 -0.746063
H78   H     H_    0.986094 0.793235 0.312551 0.222154
H79   H     H_    0.996209 0.737383 0.373022 0.266167
H80   H     H_    0.944752 0.719703 0.311359 0.247330
N37   N     N_2   0.040324 0.285817 0.708143 -0.074554
H81   H     H_    0.032641 0.290461 0.753539 0.177315
C181  C     C_3   0.989294 0.256886 0.676011 -0.752105
H82   H     H_    0.986068 0.206474 0.687432 0.223483
H83   H     H_    0.996135 0.262241 0.626877 0.265526
H84   H     H_    0.944712 0.279976 0.688543 0.246580
N38   N     N_2   0.855551 0.611976 0.130039 -0.074155
H85   H     H_    0.895029 0.637683 0.139588 0.177503
C182  C     C_3   0.852643 0.589353 0.069032 -0.778598
H86   H     H_    0.844221 0.628637 0.037491 0.229111
H87   H     H_    0.814668 0.554256 0.064394 0.262245
H88   H     H_    0.897603 0.566612 0.057187 0.241250
N39   N     N_2   0.143804 0.612341 0.868671 -0.073470
H89   H     H_    0.104408 0.638096 0.858977 0.177469
C183  C     C_3   0.146419 0.589649 0.929676 -0.777643
H90   H     H_    0.154807 0.628888 0.961268 0.228527
H91   H     H_    0.184294 0.554482 0.934435 0.262388
H92   H     H_    0.101361 0.566974 0.941345 0.241112
N40   N     N_2   0.958957 0.286873 0.289967 -0.078548
H93   H     H_    0.965015 0.292128 0.244394 0.172642
C184  C     C_3   0.011441 0.258013 0.319978 -0.731133
H94   H     H_    0.015373 0.208035 0.307179 0.216900
H95   H     H_    0.005963 0.261694 0.369396 0.272946
H96   H     H_    0.055197 0.282364 0.306930 0.244680
N41   N     N_2   0.459353 0.213505 0.208969 -0.074966
H97   H     H_    0.466835 0.209047 0.254415 0.177264
C185  C     C_3   0.510672 0.241978 0.176871 -0.752000
H98   H     H_    0.514130 0.292434 0.188032 0.223682
H99   H     H_    0.503998 0.236395 0.127740 0.265817
H100  H     H_    0.555076 0.218710 0.189693 0.246617
N42   N     N_2   0.642996 0.887530 0.631804 -0.075395
H101  H     H_    0.603836 0.861452 0.641652 0.170970
C186  C     C_3   0.644991 0.910589 0.570907 -0.782147
H102  H     H_    0.653392 0.871598 0.539044 0.229059
H103  H     H_    0.682596 0.946053 0.566075 0.262597
H104  H     H_    0.599693 0.933004 0.559682 0.240622
N43   N     N_2   0.355544 0.888025 0.370039 -0.072997
H105  H     H_    0.395040 0.862367 0.360493 0.177742
C187  C     C_3   0.352585 0.910579 0.431068 -0.781903
H106  H     H_    0.344166 0.871250 0.462565 0.228069
H107  H     H_    0.314589 0.945628 0.435719 0.262468
H108  H     H_    0.397525 0.933357 0.442963 0.241193
N44   N     N_2   0.541026 0.213078 0.789990 -0.078871
H109  H     H_    0.534993 0.207823 0.744417 0.172150
C188  C     C_3   0.488514 0.241913 0.819964 -0.731616
H110  H     H_    0.484573 0.291890 0.807154 0.217280
H111  H     H_    0.493964 0.238223 0.869384 0.273084
H112  H     H_    0.444775 0.217551 0.806895 0.244367
N45   N     N_2   0.540331 0.785896 0.208231 -0.075520
H113  H     H_    0.532642 0.790503 0.253629 0.176915
C189  C     C_3   0.489296 0.757018 0.176064 -0.740634
H114  H     H_    0.486046 0.706597 0.187440 0.221692
H115  H     H_    0.496149 0.762417 0.126935 0.267797
H116  H     H_    0.444721 0.780116 0.188607 0.246759
N46   N     N_2   0.355606 0.111957 0.630055 -0.073792
H117  H     H_    0.395075 0.137688 0.639579 0.176494
C190  C     C_3   0.352705 0.089262 0.569072 -0.782615
H118  H     H_    0.344262 0.128508 0.537492 0.229563
H119  H     H_    0.314748 0.054141 0.564473 0.262301
H120  H     H_    0.397675 0.066528 0.557249 0.240566
N47   N     N_2   0.643597 0.112512 0.367892 -0.072928
H121  H     H_    0.604247 0.138151 0.357752 0.177864
C191  C     C_3   0.645810 0.090295 0.429072 -0.780590
H122  H     H_    0.653955 0.129782 0.460438 0.227488
H123  H     H_    0.683675 0.055194 0.434319 0.262427
H124  H     H_    0.600687 0.067680 0.440617 0.241575
N48   N     N_2   0.458359 0.787631 0.788599 -0.080576
H125  H     H_    0.493314 0.754502 0.789488 0.176116
C192  C     C_3   0.458920 0.825348 0.734569 -0.711197
H126  H     H_    0.449883 0.796293 0.694317 0.190938
H127  H     H_    0.505421 0.847765 0.729554 0.245100
H128  H     H_    0.422852 0.862542 0.736627 0.287452
N49   N     N_R   0.386375 0.141316 0.131250 0.247021
O1    O     O_R   0.411290 0.100712 0.167546 -0.305081
O2    O     O_R   0.385006 0.129584 0.074007 -0.356072
N50   N     N_R   0.718658 0.962268 0.705091 0.244622
O3    O     O_R   0.661777 0.972982 0.722977 -0.324002
O4    O     O_R   0.757126 0.008912 0.698892 -0.387540
N51   N     N_R   0.280147 0.962540 0.296250 0.242012
O5    O     O_R   0.337145 0.973815 0.279012 -0.332081
O6    O     O_R   0.241258 0.008837 0.302258 -0.393812
N52   N     N_R   0.616299 0.138477 0.861640 0.244630
O7    O     O_R   0.636320 0.088743 0.834187 -0.328513
O8    O     O_R   0.569350 0.134001 0.898428 -0.329003
N53   N     N_R   0.613394 0.858193 0.130462 0.247345
O9    O     O_R   0.587036 0.898346 0.166213 -0.305424
O10   O     O_R   0.615576 0.869909 0.073240 -0.354469
N54   N     N_R   0.280162 0.037408 0.703813 0.240906
O11   O     O_R   0.337169 0.026166 0.721028 -0.346876
O12   O     O_R   0.241270 0.991087 0.697838 -0.397860
N55   N     N_R   0.719902 0.037174 0.295860 0.241666
O13   O     O_R   0.663159 0.025799 0.277928 -0.333808
O14   O     O_R   0.758628 0.990890 0.302870 -0.393935
N56   N     N_R   0.388025 0.854904 0.874982 0.249505
O15   O     O_R   0.416379 0.897832 0.843971 -0.317005
O16   O     O_R   0.383718 0.861409 0.932857 -0.353355
N57   N     N_R   0.886780 0.642833 0.629441 0.247123
O17   O     O_R   0.913508 0.602605 0.664874 -0.305790
O18   O     O_R   0.884430 0.631466 0.572164 -0.359381
N58   N     N_R   0.220106 0.462551 0.203516 0.241942
O19   O     O_R   0.163100 0.473863 0.220685 -0.334099
O20   O     O_R   0.259055 0.508824 0.197519 -0.393261
N59   N     N_R   0.779968 0.462875 0.795956 0.241656
O21   O     O_R   0.836716 0.474280 0.778054 -0.334348
O22   O     O_R   0.741215 0.509139 0.802932 -0.392229
N60   N     N_R   0.113403 0.641677 0.369452 0.247510
O23   O     O_R   0.087012 0.601526 0.333705 -0.304840
O24   O     O_R   0.115595 0.629958 0.426673 -0.357148
N61   N     N_R   0.113339 0.358061 0.630281 0.247172
O25   O     O_R   0.086945 0.398236 0.665983 -0.305481
O26   O     O_R   0.115529 0.369714 0.573047 -0.356563
N62   N     N_R   0.780148 0.537455 0.203847 0.244467
O27   O     O_R   0.837145 0.526267 0.221123 -0.321613
O28   O     O_R   0.741289 0.491105 0.197875 -0.387247
N63   N     N_R   0.219779 0.537443 0.795883 0.241680
O29   O     O_R   0.162943 0.526068 0.778221 -0.333069
O30   O     O_R   0.258605 0.491181 0.802509 -0.393652
N64   N     N_R   0.883681 0.361490 0.361570 0.244702
O31   O     O_R   0.863680 0.411238 0.334105 -0.328849
O32   O     O_R   0.930614 0.365943 0.398382 -0.328972

loop_
_geom_bond_atom_site_label_1
_geom_bond_atom_site_label_2
_geom_bond_distance
_ccdc_geom_bond_type
N32   Ni7   1.851345 S    
C4    H4    1.077181 S    
C46   C86   1.405168 A    
C5    H5    1.077294 S    
C94   N46   1.424601 S    
C2    C98   1.385575 A    
C53   C69   1.413844 A    
C130  C146  1.400334 A    
C186  H102  1.111059 S    
C31   C110  1.385034 A    
C23   C111  1.385038 A    
C180  H78   1.111035 S    
N25   Ni6   1.851007 S    
C44   C84   1.404399 A    
H37   C117  1.078654 S    
C134  C150  1.400312 A    
H41   C121  1.078703 S    
C18   C106  1.385316 A    
H55   C151  1.075746 S    
N18   Ni6   1.851034 S    
N21   N32   1.377367 A    
C67   C163  1.415747 A    
N23   N30   1.377767 A    
C57   C121  1.397802 A    
N13   Ni1   1.851020 S    
C67   C76   1.400777 A    
C60   C124  1.397416 A    
C30   C111  1.385557 A    
N34   C178  1.445575 S    
C126  C142  1.399553 A    
H44   C124  1.078687 S    
N43   C187  1.445579 S    
N61   O26   1.301296 A    
N9    Ni2   1.851007 S    
C138  C154  1.400240 A    
C36   C51   1.411730 A    
C43   C60   1.411502 A    
N45   C189  1.445391 S    
C190  H120  1.110258 S    
C38   N54   1.439085 S    
N40   H93   1.030659 S    
C44   N60   1.438667 S    
N54   O12   1.301319 A    
C192  H128  1.110072 S    
C113  C129  1.398995 A    
C35   C52   1.411903 A    
N42   C186  1.445519 S    
C28   C105  1.391426 A    
N18   N27   1.377367 A    
C117  C133  1.399055 A    
C16   N16   1.337661 A    
H47   C127  1.077383 S    
N52   O8    1.300535 A    
H64   C160  1.075688 S    
C59   C123  1.396901 A    
C31   H31   1.079690 S    
C84   C164  1.415968 A    
C189  H114  1.111034 S    
H50   C146  1.075849 S    
C55   C119  1.396784 A    
C72   C168  1.415727 A    
N3    N10   1.377767 A    
C63   C79   1.414314 A    
C64   C80   1.414463 A    
C74   C170  1.415576 A    
C135  C151  1.400141 A    
N53   O9    1.301273 A    
C87   N39   1.424651 S    
C47   C87   1.404689 A    
N51   O5    1.301277 A    
C91   N43   1.424600 S    
C147  C163  1.399159 A    
C186  H104  1.110253 S    
C180  H80   1.110332 S    
N6    N15   1.377367 A    
C127  C143  1.399141 A    
C182  H88   1.110256 S    
C104  C133  1.472725 S    
C23   H23   1.079698 S    
C26   N26   1.336948 A    
C50   C66   1.413444 A    
C9    H9    1.077346 S    
N62   O27   1.301279 A    
C192  H127  1.110231 S    
N4    N9    1.377767 A    
C33   C89   1.403940 A    
C12   H12   1.077271 S    
C119  C135  1.399562 A    
N47   H121  1.030361 S    
C70   C77   1.400451 A    
C13   H13   1.077270 S    
N6    Ni1   1.851009 S    
C18   N18   1.336971 A    
C150  C166  1.399642 A    
C191  H124  1.110251 S    
C20   C108  1.391868 A    
N15   Ni4   1.851345 S    
C15   C102  1.385078 A    
C91   C171  1.416928 A    
N22   N31   1.377367 A    
C50   C114  1.396774 A    
N42   H101  1.030429 S    
H34   C114  1.078145 S    
N21   Ni6   1.851006 S    
C47   N63   1.439038 S    
C30   N30   1.337504 A    
N46   H117  1.030355 S    
C7    H7    1.079697 S    
C41   C81   1.404482 A    
C35   N51   1.439002 S    
C8    H8    1.077319 S    
C128  C144  1.398090 A    
C121  C137  1.398967 A    
C88   N40   1.424853 S    
C143  C159  1.399925 A    
N50   O3    1.301276 A    
C144  C160  1.398477 A    
C183  H91   1.111425 S    
C188  H110  1.110663 S    
C39   N55   1.439035 S    
C154  C170  1.399228 A    
C37   C93   1.404364 A    
N63   O29   1.301289 A    
C140  C156  1.398921 A    
C48   N64   1.434374 S    
N57   O17   1.301266 A    
H45   C125  1.078648 S    
C40   C96   1.408324 A    
C68   C75   1.400487 A    
H59   C155  1.075834 S    
C69   C78   1.400463 A    
C108  C137  1.472663 S    
C37   C54   1.412407 A    
N24   Ni7   1.851337 S    
C72   C79   1.400788 A    
C61   C125  1.397681 A    
C40   N56   1.440710 S    
C122  C138  1.399488 A    
N44   C188  1.446044 S    
C59   C75   1.413428 A    
C145  C161  1.398762 A    
C184  H95   1.111071 S    
C48   C63   1.411728 A    
C103  C134  1.474188 S    
N17   N28   1.377367 A    
C15   N15   1.336571 A    
C81   C161  1.415951 A    
N37   C181  1.445394 S    
C1    N1    1.336947 A    
C6    H6    1.079626 S    
C27   N27   1.336609 A    
C52   C116  1.397760 A    
C54   C70   1.413445 A    
C40   C55   1.411674 A    
C125  C141  1.399007 A    
C22   N22   1.337514 A    
N2    Ni2   1.851034 S    
C56   C120  1.397407 A    
C177  H68   1.110320 S    
N41   C185  1.445432 S    
C107  C138  1.474030 S    
C75   C171  1.415529 A    
C25   H25   1.077226 S    
C132  C148  1.399071 A    
C19   N19   1.336970 A    
C79   C175  1.415739 A    
C28   H28   1.077304 S    
C29   H29   1.077290 S    
C136  C152  1.398923 A    
C115  C131  1.399153 A    
N58   O19   1.301294 A    
C32   H32   1.077278 S    
C99   C130  1.474172 S    
C7    C103  1.384987 A    
C16   C101  1.391770 A    
C17   H17   1.077363 S    
C4    N4    1.337161 A    
N40   C184  1.446079 S    
C11   C98   1.385014 A    
N29   Ni5   1.851020 S    
N35   H73   1.030349 S    
C9    C100  1.391872 A    
C185  H99   1.111368 S    
C52   C68   1.413826 A    
C3    H3    1.079683 S    
C178  H70   1.111079 S    
C13   C104  1.391674 A    
C90   N42   1.424695 S    
C120  C136  1.398742 A    
C105  C144  1.472322 S    
N60   O23   1.301270 A    
C38   C53   1.411935 A    
C189  H115  1.111360 S    
C43   C83   1.404835 A    
C188  H112  1.110284 S    
C20   N20   1.337758 A    
N64   O31   1.301046 A    
N56   O16   1.301423 A    
C92   C172  1.415497 A    
C42   N58   1.438996 S    
C36   C92   1.401470 A    
C32   N32   1.337580 A    
C95   N47   1.424664 S    
C109  C140  1.472249 S    
C2    N2    1.337132 A    
N33   C177  1.445383 S    
C85   N37   1.424730 S    
C181  H84   1.110336 S    
C187  H107  1.111427 S    
C31   N31   1.336553 A    
C11   N11   1.336709 A    
C24   C112  1.391690 A    
C2    H2    1.079604 S    
C92   N44   1.424845 S    
H39   C119  1.078769 S    
C41   C58   1.412431 A    
C36   N52   1.434358 S    
N59   O22   1.301312 A    
C185  H100  1.110372 S    
N49   O2    1.301400 A    
C34   C90   1.404929 A    
C45   C62   1.412404 A    
C157  C173  1.398507 A    
C64   C128  1.397047 A    
C47   C64   1.411850 A    
C33   C50   1.412205 A    
N28   Ni8   1.851712 S    
N61   O25   1.301263 A    
C10   H10   1.079641 S    
C3    C99   1.384940 A    
C39   C56   1.411503 A    
N46   C190  1.445563 S    
C187  H106  1.111078 S    
C1    C97   1.391196 A    
C78   C174  1.415541 A    
N45   H113  1.030433 S    
C129  C145  1.398939 A    
C14   H14   1.079617 S    
N26   Ni5   1.851004 S    
C190  H119  1.111429 S    
N1    N12   1.377367 A    
C85   C165  1.415959 A    
H42   C122  1.078175 S    
C19   C107  1.385323 A    
N23   Ni8   1.851337 S    
C133  C149  1.399031 A    
N63   O30   1.301321 A    
C95   C175  1.417121 A    
C17   C105  1.391431 A    
C96   C176  1.418306 A    
C30   H30   1.079629 S    
N17   Ni5   1.851034 S    
C81   N33   1.424710 S    
C54   C118  1.396861 A    
C89   N41   1.424787 S    
N48   H125  1.031123 S    
C58   C122  1.397099 A    
C178  H72   1.110263 S    
N14   Ni2   1.851020 S    
N39   C183  1.445587 S    
C84   N36   1.424724 S    
C5    N5    1.336851 A    
N12   Ni4   1.851712 S    
C158  C174  1.399660 A    
C83   N35   1.424644 S    
C148  C164  1.398550 A    
C149  C165  1.398536 A    
N31   Ni8   1.851345 S    
C155  C171  1.399678 A    
C37   N53   1.438668 S    
C10   C99   1.385669 A    
N1    Ni1   1.851034 S    
C142  C158  1.400376 A    
C82   N34   1.424602 S    
N10   Ni1   1.851004 S    
C141  C157  1.399014 A    
C14   C103  1.385649 A    
H38   C118  1.078125 S    
C16   H16   1.077367 S    
C186  H103  1.111414 S    
C116  C132  1.399029 A    
C93   C173  1.415947 A    
C180  H79   1.111364 S    
N55   O14   1.301319 A    
C21   N21   1.336954 A    
C8    N8    1.337580 A    
C181  H82   1.111030 S    
C89   C169  1.415964 A    
C58   C74   1.413585 A    
C179  H75   1.111411 S    
C179  H74   1.111057 S    
C131  C147  1.399908 A    
C34   C49   1.411931 A    
C93   N45   1.424729 S    
C112  C141  1.472655 S    
C82   C162  1.416930 A    
C27   C106  1.385146 A    
C55   C71   1.412254 A    
C110  C139  1.474255 S    
C56   C72   1.413783 A    
N62   O28   1.301320 A    
C25   C108  1.391495 A    
C185  H98   1.111054 S    
C100  C129  1.472601 S    
H51   C147  1.075723 S    
N34   H69   1.030363 S    
H49   C145  1.076522 S    
H60   C156  1.076734 S    
C39   C95   1.404824 A    
H61   C157  1.076405 S    
N4    Ni4   1.851707 S    
C139  C155  1.400342 A    
H36   C116  1.078671 S    
C146  C162  1.399717 A    
C71   C167  1.415644 A    
C45   C85   1.404393 A    
H57   C153  1.076354 S    
C22   H22   1.079623 S    
H40   C120  1.078682 S    
C70   C166  1.415547 A    
C44   C59   1.412400 A    
N44   H109  1.030645 S    
C65   C161  1.415814 A    
C18   H18   1.079618 S    
C97   C136  1.472252 S    
N50   O4    1.301313 A    
C6    N6    1.337020 A    
N16   Ni3   1.851345 S    
C83   C163  1.417104 A    
C60   C76   1.413770 A    
C101  C132  1.472758 S    
N58   O20   1.301322 A    
N54   O11   1.301302 A    
C41   N57   1.438648 S    
N55   O13   1.301279 A    
C25   N25   1.336658 A    
N47   C191  1.445577 S    
N52   O7    1.301015 A    
C29   N29   1.336843 A    
C76   C172  1.415725 A    
C182  H86   1.111077 S    
C159  C175  1.399134 A    
N2    N11   1.377367 A    
N5    Ni2   1.851006 S    
C62   C78   1.413462 A    
C17   N17   1.337018 A    
C42   C82   1.405200 A    
C184  H94   1.110699 S    
C182  H87   1.111427 S    
N22   Ni5   1.851009 S    
C77   C173  1.415697 A    
C183  H90   1.111075 S    
C66   C162  1.415551 A    
H33   C113  1.078518 S    
C111  C142  1.474251 S    
N35   C179  1.445556 S    
N37   H81   1.030436 S    
N53   O10   1.301293 A    
C66   C73   1.400541 A    
N11   Ni3   1.851715 S    
N38   H85   1.030358 S    
C177  H67   1.111360 S    
H52   C148  1.076397 S    
N41   H97   1.030452 S    
C53   C117  1.397715 A    
C191  H122  1.111067 S    
C15   H15   1.079594 S    
C24   H24   1.077264 S    
N36   H77   1.030430 S    
H46   C126  1.078141 S    
N8    Ni3   1.851337 S    
C1    H1    1.077241 S    
C151  C167  1.399358 A    
N43   H105  1.030357 S    
N20   Ni8   1.851707 S    
C152  C168  1.398418 A    
C49   C65   1.413846 A    
C62   C126  1.396903 A    
C87   C167  1.416683 A    
C88   C168  1.415513 A    
C123  C139  1.399589 A    
C51   C67   1.414291 A    
C4    C100  1.391376 A    
C35   C91   1.405199 A    
C57   C73   1.413886 A    
C48   C88   1.401478 A    
C46   N62   1.439034 S    
C8    C104  1.391678 A    
C21   C109  1.391194 A    
C160  C176  1.398928 A    
C26   H26   1.079600 S    
C65   C74   1.400448 A    
N48   C192  1.450389 S    
C124  C140  1.398752 A    
N59   O21   1.301267 A    
C11   H11   1.079693 S    
C26   C107  1.385270 A    
C7    N7    1.336585 A    
N60   O24   1.301297 A    
H43   C123  1.078134 S    
N27   Ni7   1.851715 S    
H56   C152  1.076736 S    
C183  H92   1.110254 S    
C45   N61   1.438668 S    
C188  H111  1.111046 S    
C23   N23   1.336667 A    
N64   O32   1.300565 A    
C86   C166  1.416928 A    
C51   C115  1.396549 A    
C9    N9    1.337247 A    
C106  C143  1.473558 S    
N3    Ni3   1.851704 S    
C49   C113  1.397381 A    
N57   O18   1.301292 A    
C179  H76   1.110232 S    
C13   N13   1.336913 A    
C6    C102  1.385336 A    
C114  C130  1.399522 A    
C191  H123  1.111421 S    
C61   C77   1.413843 A    
C98   C135  1.473809 S    
C28   N28   1.337506 A    
C29   C112  1.391599 A    
N33   H65   1.030425 S    
C137  C153  1.399045 A    
C118  C134  1.399566 A    
N38   C182  1.445561 S    
C86   N38   1.424593 S    
C102  C131  1.473557 S    
N30   Ni6   1.851020 S    
H63   C159  1.075712 S    
C184  H96   1.110292 S    
N51   O6    1.301317 A    
N8    N13   1.377767 A    
C68   C164  1.415670 A    
H54   C150  1.075829 S    
C69   C165  1.415695 A    
C63   C127  1.396584 A    
C80   C176  1.416616 A    
C12   C97   1.391395 A    
C34   N50   1.439032 S    
N36   C180  1.445397 S    
N49   O1    1.301965 A    
H53   C149  1.076410 S    
C32   C109  1.391378 A    
C71   C80   1.399528 A    
C94   C174  1.416981 A    
C22   C110  1.385710 A    
N20   N25   1.377767 A    
N19   Ni7   1.851704 S    
C90   C170  1.416916 A    
C177  H66   1.111029 S    
C156  C172  1.398394 A    
N19   N26   1.377767 A    
N24   N29   1.377767 A    
C33   N49   1.438284 S    
C24   N24   1.337602 A    
C3    N3    1.336478 A    
C38   C94   1.405203 A    
C190  H118  1.111079 S    
C153  C169  1.398381 A    
C43   N59   1.439016 S    
H62   C158  1.075817 S    
C12   N12   1.337584 A    
C181  H83   1.111363 S    
C20   H20   1.077385 S    
C27   H27   1.079602 S    
C192  H126  1.109152 S    
C21   H21   1.077230 S    
C10   N10   1.337593 A    
N7    Ni4   1.851337 S    
H58   C154  1.075717 S    
C96   N48   1.426441 S    
C42   C57   1.411896 A    
C73   C169  1.415754 A    
C178  H71   1.111431 S    
C14   N14   1.337482 A    
N39   H89   1.030357 S    
H35   C115  1.077361 S    
C46   C61   1.411905 A    
C5    C101  1.391620 A    
C19   H19   1.079713 S    
C189  H116  1.110333 S    
H48   C128  1.078676 S    
C187  H108  1.110253 S    
N56   O15   1.300200 A    
N5    N16   1.377367 A    
N7    N14   1.377767 A    
