data_mof_unit_9683.cif
_audit_creation_date              2012-12-11T15:30:41-0500
_audit_creation_method            fapswitch 2.2
_symmetry_space_group_name_H-M    P1
_symmetry_Int_Tables_number       1
_space_group_crystal_system       triclinic
_cell_length_a                    6.954131
_cell_length_b                    20.496686
_cell_length_c                    24.330736
_cell_angle_alpha                 89.886692
_cell_angle_beta                  90.113117
_cell_angle_gamma                 89.274372
_cell_volume                      3467.72951566

loop_
_atom_site_label
_atom_site_type_symbol
_atom_type_description
_atom_site_fract_x
_atom_site_fract_y
_atom_site_fract_z
_atom_type_partial_charge
O1    O     O_R   0.507310 0.423620 0.460450 -0.535169
O2    O     O_R   0.170760 0.556060 0.437190 -0.541113
O3    O     O_R   0.004040 0.576380 0.539550 -0.534287
C1    C     C_R   0.338944 0.576133 0.421215 0.710116
O4    O     O_R   0.177350 0.422870 0.454070 -0.535248
O5    O     O_R   0.010680 0.442240 0.556560 -0.527316
C2    C     C_R   0.346785 0.398608 0.444004 0.737331
O6    O     O_R   0.500670 0.557760 0.443440 -0.541069
O7    O     O_3   0.340380 0.506510 0.533610 -0.354534
V1    V     V_3+5 0.064130 0.498790 0.493770 1.476756
O8    O     O_R   0.681170 0.443940 0.562810 -0.528290
C3    C     C_R   0.850486 0.423790 0.578566 0.750370
O9    O     O_R   0.674570 0.577130 0.545930 -0.532778
C4    C     C_R   0.841796 0.601123 0.556923 0.710143
V2    V     V_3+5 0.564560 0.501210 0.506230 1.499655
O10   O     O_3   0.838170 0.493490 0.466390 -0.376779
C5    C     C_R   0.985068 0.837982 0.910192 -0.097481
C6    C     C_R   0.840786 0.663252 0.587972 -0.071548
C7    C     C_R   0.126383 0.730755 0.896225 -0.110499
C8    C     C_R   0.076187 0.781874 0.931221 0.152578
C9    C     C_R   0.930028 0.839328 0.854468 -0.209227
C10   C     C_R   0.977656 0.786888 0.818027 0.095176
C11   C     C_R   0.090412 0.734268 0.839167 -0.009141
C12   C     C_R   0.919997 0.785317 0.761373 0.050694
C13   C     C_R   0.982663 0.732945 0.726514 0.017202
C14   C     C_R   0.131823 0.691164 0.746126 0.089380
C15   C     C_R   0.173108 0.687945 0.802793 -0.070210
C16   C     C_R   0.803349 0.834847 0.738123 -0.138768
C17   C     C_R   0.743696 0.832316 0.683748 -0.130995
C18   C     C_R   0.781528 0.777435 0.651023 0.063517
C19   C     C_R   0.899613 0.726170 0.672594 0.116183
C20   C     C_R   0.701664 0.772198 0.597394 0.006033
C21   C     C_R   0.737543 0.716085 0.566241 -0.183143
C22   C     C_R   0.916712 0.667730 0.641365 -0.142029
H1    H     H_    0.976978 0.623866 0.659452 0.148824
H2    H     H_    0.673558 0.711724 0.525720 0.129359
H3    H     H_    0.661877 0.873626 0.668349 0.172587
H4    H     H_    0.199401 0.688969 0.914188 0.163819
H5    H     H_    0.860903 0.883583 0.840286 0.109558
H6    H     H_    0.755597 0.877031 0.760826 0.135042
C23   C     C_3   0.813271 0.271346 0.810462 -0.199048
C24   C     C_3   0.119698 0.226514 0.768115 -0.347491
C25   C     C_3   0.097285 0.270049 0.716169 -0.342783
H7    H     H_    0.926786 0.362440 0.774912 0.182027
H8    H     H_    0.206198 0.182737 0.757768 0.213380
H9    H     H_    0.205083 0.252441 0.799576 0.213932
H10   H     H_    0.191741 0.313029 0.719903 0.193960
H11   H     H_    0.145684 0.242392 0.679263 0.210080
C26   C     C_1   0.861407 0.378292 0.624174 -0.104497
C27   C     C_3   0.919526 0.206953 0.791244 0.062481
C28   C     C_3   0.820472 0.324343 0.764131 -0.039403
C29   C     C_3   0.885498 0.292730 0.708771 0.131482
C30   C     C_3   0.763042 0.231137 0.697477 -0.351453
C31   C     C_3   0.799170 0.176710 0.742231 0.110984
C32   C     C_1   0.871442 0.339892 0.662189 0.029947
C33   C     C_1   0.945593 0.159493 0.837520 0.028688
C34   C     C_1   0.961348 0.121222 0.875494 -0.123777
H12   H     H_    0.608665 0.246151 0.696238 0.169471
H13   H     H_    0.659698 0.259478 0.816946 0.171906
H14   H     H_    0.796743 0.211753 0.655907 0.199931
C35   C     C_3   0.551386 0.755989 0.303959 -0.314751
C36   C     C_3   0.445850 0.670732 0.236903 -0.347646
C37   C     C_3   0.470904 0.719807 0.188322 0.059744
H15   H     H_    0.729162 0.803688 0.241536 0.169559
H16   H     H_    0.689326 0.729175 0.311235 0.147345
H17   H     H_    0.332716 0.635009 0.226104 0.148609
H18   H     H_    0.580972 0.642303 0.243845 0.171169
H19   H     H_    0.362452 0.708573 0.156098 0.156573
C38   C     C_1   0.475229 0.878071 0.124466 -0.129858
C39   C     C_3   0.389632 0.706882 0.290621 0.239449
C40   C     C_3   0.577826 0.805674 0.256144 -0.327058
C41   C     C_3   0.437080 0.791388 0.208141 0.215907
C42   C     C_3   0.229530 0.795859 0.231600 -0.375994
C43   C     C_3   0.201584 0.746332 0.279500 -0.333794
C44   C     C_1   0.460269 0.839317 0.162219 -0.024741
C45   C     C_1   0.364647 0.659732 0.337018 -0.074037
C46   C     C_1   0.349144 0.621493 0.375150 -0.178918
H20   H     H_    0.157496 0.773078 0.317280 0.154924
H21   H     H_    0.083172 0.712505 0.268954 0.163270
H22   H     H_    0.199506 0.846169 0.246720 0.153058
H23   H     H_    0.516042 0.782827 0.342426 0.159108
H24   H     H_    0.551599 0.855996 0.271758 0.144025
H25   H     H_    0.123316 0.785944 0.198489 0.185182
C47   C     C_R   0.468627 0.161811 0.088506 -0.050452
C48   C     C_R   0.355800 0.337301 0.412732 -0.088534
C49   C     C_R   0.499967 0.278895 0.092521 -0.141250
C50   C     C_R   0.500714 0.221296 0.062369 -0.152983
C51   C     C_R   0.436496 0.160040 0.145467 -0.212463
C52   C     C_R   0.437600 0.218123 0.177491 0.088353
C53   C     C_R   0.469511 0.277873 0.149542 0.125777
C54   C     C_R   0.409931 0.219082 0.235995 0.057414
C55   C     C_R   0.413821 0.279872 0.265229 0.066271
C56   C     C_R   0.445321 0.337605 0.234986 -0.183451
C57   C     C_R   0.472390 0.336408 0.178513 -0.188827
C58   C     C_R   0.379408 0.161326 0.266277 -0.184817
C59   C     C_R   0.353636 0.162503 0.322807 -0.177784
C60   C     C_R   0.356300 0.221066 0.351772 0.097062
C61   C     C_R   0.386241 0.280817 0.323742 0.093504
C62   C     C_R   0.328059 0.219969 0.408876 -0.159469
C63   C     C_R   0.326983 0.277488 0.439301 0.138721
C64   C     C_R   0.385899 0.338905 0.355667 -0.249001
H26   H     H_    0.496705 0.382091 0.157230 0.137462
H27   H     H_    0.405771 0.386373 0.337656 0.101436
H28   H     H_    0.330697 0.116770 0.344147 0.131931
H29   H     H_    0.524971 0.324484 0.071202 0.138973
H30   H     H_    0.526906 0.223076 0.018503 0.141705
H31   H     H_    0.413923 0.112610 0.163266 0.090169
H32   H     H_    0.450840 0.385058 0.253708 0.126294
H33   H     H_    0.374682 0.113852 0.247562 0.120935
H34   H     H_    0.305443 0.174117 0.430021 0.151640
O11   O     O_R   0.323590 0.942280 0.056590 -0.529501
O12   O     O_R   0.647030 0.077140 0.045940 -0.540686
O13   O     O_R   0.813570 0.057750 0.943430 -0.529367
C65   C     C_R   0.477595 0.101253 0.056275 0.688894
O14   O     O_R   0.653510 0.943950 0.062820 -0.534751
O15   O     O_R   0.820100 0.923600 0.960440 -0.530806
C66   C     C_R   0.485331 0.923829 0.078733 0.740901
O16   O     O_R   0.317060 0.076430 0.039590 -0.538988
O17   O     O_3   0.483830 0.993520 0.966410 -0.364940
V3    V     V_3+5 0.760140 0.001200 0.006230 1.477614
O18   O     O_R   0.149560 0.922820 0.954030 -0.530777
C67   C     C_R   0.982504 0.898615 0.943367 0.740172
O19   O     O_R   0.143080 0.056020 0.937150 -0.541887
C68   C     C_R   0.973645 0.076005 0.921278 0.717746
V4    V     V_3+5 0.259690 0.998730 0.993720 1.478718
O20   O     O_3   0.986120 0.006480 0.033580 -0.370838
C69   C     C_2   0.317178 0.639216 0.822619 0.832584
O21   O     O_2   0.297000 0.581424 0.811942 -0.509519
O22   O     O_R   0.477693 0.659660 0.852393 -0.656161
H35   H     H_    0.566314 0.622065 0.863081 0.317639
C70   C     C_2   0.568860 0.821906 0.573486 0.758632
O23   O     O_2   0.591977 0.840411 0.526168 -0.551738
O24   O     O_R   0.411544 0.844904 0.603842 -0.653540
H36   H     H_    0.329890 0.877683 0.582637 0.316065
C71   C     C_2   0.885677 0.297921 0.864788 0.805886
O25   O     O_2   0.781767 0.296207 0.905256 -0.545883
O26   O     O_R   0.068763 0.324935 0.868804 -0.653951
H37   H     H_    0.098990 0.340810 0.907259 0.316310
C72   C     C_2   0.607742 0.147558 0.759469 0.746421
O27   O     O_2   0.504324 0.123544 0.724354 -0.524406
O28   O     O_R   0.550414 0.145961 0.814561 -0.676686
H38   H     H_    0.423268 0.123219 0.820065 0.295629
I1    I     I_    0.952633 0.094733 0.704832 -0.323200
I2    I     I_    0.550957 0.377420 0.759274 -0.364602
I3    I     I_    0.746315 0.705016 0.148964 -0.426342
I4    I     I_    0.281046 0.271170 0.525472 -0.395132
I5    I     I_    0.152468 0.772850 0.015577 -0.337432
I6    I     I_    0.349473 0.653471 0.691057 -0.356336

loop_
_geom_bond_atom_site_label_1
_geom_bond_atom_site_label_2
_ccdc_geom_bond_type
C35   C39   S    
C13   C19   A    
C18   C20   A    
C56   C57   A    
C30   H12   S    
C42   C43   S    
C4    C6    S    
O2    C1    A    
C7    C8    A    
C47   C50   A    
C1    O6    A    
C21   H2    S    
O12   C65   A    
C3    C26   S    
C55   C61   A    
O19   C68   A    
C28   I2    S    
O13   C68   A    
C14   C15   A    
C27   C31   S    
V4    O20   S    
O15   C67   A    
C36   H18   S    
C16   C17   A    
C56   H32   S    
O5    C3    A    
C18   C19   A    
V3    O20   S    
C25   C29   S    
O19   V4    S    
C16   H6    S    
V2    O10   S    
C5    C8    A    
C33   C34   T    
C36   C39   S    
C22   H1    S    
C24   H9    S    
H15   C40   S    
C39   C43   S    
O8    V2    S    
C58   C59   A    
C63   I4    S    
O14   C66   A    
O11   V4    S    
C53   C57   A    
O1    V2    S    
O16   V4    S    
C11   C15   A    
C52   C54   A    
C25   H11   S    
C29   C32   S    
C40   H24   S    
C35   C40   S    
C31   I1    S    
C64   H27   S    
O9    C4    A    
C15   C69   S    
C41   C44   S    
C60   C62   A    
C30   H14   S    
C60   C61   A    
C37   C41   S    
C19   C22   A    
C36   H17   S    
C28   C29   S    
C12   C16   A    
C71   O25   D    
C45   C46   T    
C23   H13   S    
C49   C53   A    
C54   C55   A    
O12   V3    S    
C51   H31   S    
C49   C50   A    
C13   C14   A    
C26   C32   T    
C62   H34   S    
C27   C33   S    
O15   V3    S    
C24   H8    S    
C7    C11   A    
C69   O22   S    
O18   V4    S    
C17   C18   A    
C7    H4    S    
O13   V3    S    
C31   C72   S    
C9    H5    S    
O17   V3    S    
C59   C60   A    
C36   C37   S    
C8    I5    S    
C12   C13   A    
C14   I6    S    
C6    C22   A    
O18   C67   A    
C65   O16   A    
O3    C4    A    
C24   C27   S    
O17   V4    S    
H7    C28   S    
O6    V2    S    
C43   H21   S    
C59   H28   S    
C58   H33   S    
O24   H36   S    
C10   C12   A    
C49   H29   S    
C24   C25   S    
C69   O21   D    
O2    V1    S    
C23   C27   S    
C23   C71   S    
C48   C64   A    
C29   C30   S    
O4    C2    A    
O22   H35   S    
O7    V1    S    
C71   O26   S    
C37   H19   S    
C47   C65   S    
O1    C2    A    
C47   C51   A    
C41   C42   S    
C70   O24   S    
O5    V1    S    
C72   O27   D    
C30   C31   S    
C61   C64   A    
O26   H37   S    
C62   C63   A    
O11   C66   A    
C37   I3    S    
C20   C21   A    
O9    V2    S    
O7    V2    S    
C1    C46   S    
O3    V1    S    
V1    O10   S    
O28   H38   S    
C34   C68   S    
C39   C45   S    
C72   O28   S    
C2    C48   S    
C50   H30   S    
C38   C66   S    
C55   C56   A    
C42   H22   S    
C42   H25   S    
C38   C44   T    
C6    C21   A    
C5    C9    A    
C54   C58   A    
C35   H16   S    
C5    C67   S    
O4    V1    S    
C40   C41   S    
C51   C52   A    
C57   H26   S    
O14   V3    S    
C43   H20   S    
C17   H3    S    
C48   C63   A    
C10   C11   A    
C35   H23   S    
C52   C53   A    
C9    C10   A    
C25   H10   S    
C23   C28   S    
C20   C70   S    
C70   O23   D    
O8    C3    A    
