data_mof_unit_17048.cif
_audit_creation_date              2012-12-11T14:08:08-0500
_audit_creation_method            fapswitch 2.2
_symmetry_space_group_name_H-M    P1
_symmetry_Int_Tables_number       1
_space_group_crystal_system       triclinic
_cell_length_a                    10.935169
_cell_length_b                    10.976859
_cell_length_c                    18.687921
_cell_angle_alpha                 90.460218
_cell_angle_beta                  90.03548
_cell_angle_gamma                 60.483757
_cell_volume                      1951.97595744

loop_
_atom_site_label
_atom_site_type_symbol
_atom_type_description
_atom_site_fract_x
_atom_site_fract_y
_atom_site_fract_z
_atom_type_partial_charge
C1    C     C_R   0.239957 0.643740 0.609322 0.553008
C2    C     C_2   0.771760 0.175037 0.710545 -0.190377
C3    C     C_2   0.181733 0.659884 0.681076 0.137872
C4    C     C_R   0.650003 0.617635 0.603684 0.543382
C5    C     C_2   0.204944 0.658257 0.843191 -0.104398
C6    C     C_2   0.202388 0.560555 0.801119 -0.154424
C7    C     C_2   0.243003 0.549930 0.725887 -0.144245
C8    C     C_2   0.649669 0.646203 0.317279 -0.092807
C9    C     C_2   0.633770 0.665651 0.159541 -0.107522
C10   C     C_2   0.706792 0.546501 0.195312 -0.162117
C11   C     C_2   0.687829 0.537471 0.271771 -0.148067
C12   C     C_3   0.706713 0.526094 0.801362 -0.248758
C13   C     C_2   0.633123 0.196612 0.318682 -0.101694
C14   C     C_2   0.637711 0.201623 0.164069 -0.109599
C15   C     C_2   0.523231 0.229736 0.201192 -0.165996
C16   C     C_R   0.626136 0.231531 0.603034 0.541845
C17   C     C_2   0.517578 0.257104 0.277102 -0.151773
C18   C     C_2   0.122466 0.680016 0.344881 -0.110318
C19   C     C_2   0.113965 0.691502 0.190651 -0.086187
C20   C     C_2   0.042868 0.803499 0.234224 -0.146625
C21   C     C_2   0.074929 0.799024 0.309562 -0.167269
C22   C     C_R   0.702268 0.104101 0.898449 0.547891
C23   C     C_3   0.693768 0.670591 0.815068 0.054272
C24   C     C_R   0.720321 0.685998 0.890133 0.539796
C25   C     C_R   0.120692 0.705612 0.908324 0.553936
C26   C     C_R   0.673320 0.114036 0.101331 0.553873
C27   C     C_R   0.692457 0.688803 0.094711 0.553373
C28   C     C_R   0.215820 0.650930 0.404507 0.554135
C29   C     C_R   0.086572 0.713601 0.115274 0.551813
C30   C     C_R   0.641205 0.620755 0.392634 0.552458
C31   C     C_R   0.614190 0.233392 0.393477 0.551270
C32   C     C_3   0.545535 0.785661 0.790766 -0.241220
C33   C     C_3   0.525582 0.765354 0.711155 -0.234303
C34   C     C_3   0.663416 0.642200 0.679595 0.051536
C35   C     C_3   0.806401 0.684738 0.770317 -0.207805
C36   C     C_3   0.956643 0.860225 0.651784 -0.294955
C37   C     C_3   0.783808 0.674202 0.690092 -0.248062
C38   C     C_3   0.696155 0.506832 0.720898 -0.217742
C39   C     C_2   0.666852 0.172312 0.674343 -0.143538
C40   C     C_2   0.683915 0.176293 0.830962 -0.119345
C41   C     C_2   0.793466 0.140945 0.787023 -0.170171
Cr1   Cr    Cr6+3 0.393010 0.398050 0.501480 1.012970
Cr2   Cr    Cr6+3 0.398820 0.707980 0.501630 1.014652
Cr3   Cr    Cr6+3 0.708140 0.393940 0.496850 1.008642
Cr4   Cr    Cr6+3 0.937950 0.938450 0.008940 1.016811
Cr5   Cr    Cr6+3 0.626180 0.937030 0.994750 1.015584
Cr6   Cr    Cr6+3 0.937790 0.625760 0.001410 1.016343
H1    H     H_    0.533572 0.891672 0.798669 0.144472
H2    H     H_    0.325350 0.448557 0.706922 0.121644
H3    H     H_    0.250839 0.719862 0.823513 0.096894
H4    H     H_    0.462549 0.780679 0.822991 0.111988
H5    H     H_    0.792883 0.455091 0.169886 0.151729
H6    H     H_    0.718982 0.433576 0.291949 0.153351
H7    H     H_    0.542348 0.754209 0.183500 0.111704
H8    H     H_    0.617165 0.751463 0.299116 0.095809
H9    H     H_    0.439021 0.216640 0.178276 0.156300
H10   H     H_    0.413354 0.322181 0.299787 0.157915
H11   H     H_    0.717763 0.222106 0.186417 0.096759
H12   H     H_    0.798552 0.419258 0.702278 0.138952
H13   H     H_    0.738310 0.131312 0.297381 0.083141
H14   H     H_    0.970256 0.905980 0.212781 0.152497
H15   H     H_    0.437330 0.742738 0.705264 0.137871
H16   H     H_    0.077809 0.888790 0.332607 0.153697
H17   H     H_    0.188013 0.587775 0.209837 0.085993
H18   H     H_    0.110865 0.594041 0.323157 0.107750
H19   H     H_    0.496513 0.863934 0.681967 0.126518
H20   H     H_    0.801502 0.786684 0.782113 0.135886
H21   H     H_    0.754775 0.774819 0.663572 0.105058
H22   H     H_    0.808911 0.440406 0.821151 0.140099
H23   H     H_    0.913583 0.600393 0.784596 0.143304
H24   H     H_    0.621600 0.518450 0.830090 0.115042
H25   H     H_    0.613218 0.478067 0.710569 0.124190
H26   H     H_    0.096902 0.856121 0.729003 0.243737
H27   H     H_    0.969482 0.941514 0.623128 0.155521
H28   H     H_    0.855467 0.908642 0.680586 0.153850
H29   H     H_    0.954439 0.785465 0.611971 0.139298
H30   H     H_    0.882879 0.591422 0.665169 0.137304
H31   H     H_    0.900662 0.078825 0.805954 0.154647
H32   H     H_    0.846634 0.196114 0.683119 0.144243
H33   H     H_    0.577123 0.240187 0.811703 0.104656
H34   H     H_    0.599601 0.139115 0.700586 0.106441
H35   H     H_    0.161458 0.494296 0.819992 0.141484
N1    N     N_2   0.067701 0.790820 0.703521 -0.523487
O1    O     O_R   0.507110 0.256280 0.580300 -0.519193
O2    O     O_R   0.837080 0.593860 0.915300 -0.530310
O3    O     O_R   0.064770 0.636080 0.932550 -0.500063
O4    O     O_R   0.280830 0.527190 0.577940 -0.518203
O5    O     O_R   0.068250 0.829200 0.092940 -0.515907
O6    O     O_R   0.799650 0.057040 0.080330 -0.510448
O7    O     O_R   0.586130 0.079760 0.077080 -0.512096
O8    O     O_R   0.627700 0.809630 0.066580 -0.497260
O9    O     O_R   0.816140 0.597180 0.075920 -0.512253
O10   O     O_R   0.045360 0.639170 0.081440 -0.495413
O11   O     O_3   0.833980 0.833750 0.001700 -0.249094
O12   O     O_R   0.524640 0.695370 0.425100 -0.489789
O13   O     O_R   0.261360 0.738990 0.584270 -0.521782
O14   O     O_R   0.532590 0.694780 0.574370 -0.510908
O15   O     O_R   0.744470 0.503750 0.577000 -0.529144
O16   O     O_R   0.698520 0.277230 0.571620 -0.501984
O17   O     O_R   0.498530 0.256920 0.419280 -0.511961
O18   O     O_R   0.272880 0.527780 0.428680 -0.507227
O19   O     O_R   0.252780 0.739630 0.423250 -0.509575
O20   O     O_R   0.735890 0.504390 0.415980 -0.512912
O21   O     O_R   0.690560 0.277820 0.422350 -0.503418
O22   O     O_3   0.499990 0.499990 0.499980 -0.255103
O23   O     O_R   0.089190 0.825870 0.932320 -0.519562
O24   O     O_R   0.819070 0.053960 0.931440 -0.496417
O25   O     O_R   0.607070 0.076440 0.916460 -0.522150
O26   O     O_R   0.647110 0.806550 0.917690 -0.510230

loop_
_geom_bond_atom_site_label_1
_geom_bond_atom_site_label_2
_ccdc_geom_bond_type
C1    O4    A    
C12   H22   S    
C6    H35   S    
C4    O15   A    
C34   C37   S    
Cr6   O9    S    
C19   C20   D    
C10   H5    S    
Cr3   O21   S    
C13   H13   S    
Cr3   O22   S    
C18   H18   S    
C12   C23   S    
Cr6   O2    S    
C35   C37   S    
C3    C7    D    
C8    C11   D    
C5    C6    D    
Cr3   O16   S    
C36   N1    S    
C22   O24   A    
C18   C21   D    
C37   H21   S    
C16   O1    A    
Cr2   O22   S    
C20   H14   S    
C29   O5    A    
C2    H32   S    
C36   H29   S    
Cr3   O15   S    
C2    C39   D    
C35   H23   S    
C33   H15   S    
Cr5   O25   S    
C30   O20   A    
C25   O23   A    
Cr2   O12   S    
C23   C24   S    
C40   H33   S    
C27   O8    A    
Cr4   O6    S    
C9    C10   D    
C11   H6    S    
C4    O14   A    
C32   H1    S    
Cr4   O11   S    
C28   O18   A    
C8    H8    S    
Cr1   O22   S    
Cr3   O20   S    
C33   H19   S    
C33   C34   S    
C38   H25   S    
C14   H11   S    
C4    C34   S    
Cr6   O3    S    
Cr4   O5    S    
C18   C28   S    
C7    H2    S    
C41   H31   S    
Cr5   O8    S    
C37   H30   S    
C1    C3    S    
C32   H4    S    
C30   O12   A    
C36   H28   S    
Cr1   O17   S    
Cr5   O11   S    
C35   H20   S    
C19   H17   S    
C22   C40   S    
Cr2   O13   S    
Cr6   O10   S    
Cr1   O1    S    
C27   O9    A    
C31   O17   A    
C14   C26   S    
C39   H34   S    
C36   H27   S    
C5    C25   S    
C40   C41   D    
C9    H7    S    
C12   H24   S    
C23   C35   S    
C3    N1    S    
C5    H3    S    
C19   C29   S    
Cr1   O18   S    
Cr4   O23   S    
C9    C27   S    
C24   O2    A    
C15   C17   S    
C34   C38   S    
C13   C31   S    
C24   O26   A    
Cr2   O14   S    
C23   C32   S    
C16   O16   A    
C6    C7    S    
Cr5   O7    S    
C26   O7    A    
C13   C17   D    
C8    C30   S    
C32   C33   S    
Cr2   O19   S    
C26   O6    A    
C31   O21   A    
C29   O10   A    
C1    O13   A    
C22   O25   A    
C25   O3    A    
Cr6   O11   S    
C12   C38   S    
C15   H9    S    
C21   H16   S    
C10   C11   S    
C16   C39   S    
C38   H12   S    
C28   O19   A    
C20   C21   S    
Cr5   O26   S    
C14   C15   D    
Cr1   O4    S    
C2    C41   S    
H26   N1    S    
Cr4   O24   S    
C17   H10   S    
