data_mof_unit_9591.cif
_audit_creation_date              2012-10-26T21:15:29-0400
_audit_creation_method            fapswitch 2.2
_symmetry_space_group_name_H-M    P1
_symmetry_Int_Tables_number       1
_space_group_crystal_system       triclinic
_cell_length_a                    10.64062
_cell_length_b                    10.925885
_cell_length_c                    9.725416
_cell_angle_alpha                 89.851217
_cell_angle_beta                  88.995083
_cell_angle_gamma                 90.810046
_cell_volume                      1130.36780701

loop_
_atom_site_label
_atom_site_type_symbol
_atom_type_description
_atom_site_fract_x
_atom_site_fract_y
_atom_site_fract_z
_atom_type_partial_charge
C1    C     C_R   0.499558 0.265449 0.500177 0.545990
C2    C     C_2   0.451986 0.412934 0.078430 -0.011454
C3    C     C_R   0.259369 0.499443 0.501004 0.546490
C4    C     C_R   0.502108 0.734579 0.499960 0.556407
C5    C     C_R   0.740504 0.500602 0.498968 0.555720
C6    C     C_3   0.036837 0.508397 0.630914 -0.126865
C7    C     C_3   0.952986 0.404001 0.573469 -0.112703
C8    C     C_3   0.877176 0.500352 0.497339 0.036722
C9    C     C_3   0.958326 0.604592 0.554937 -0.129989
C10   C     C_3   0.045556 0.594988 0.426548 -0.131409
C11   C     C_3   0.308650 0.368820 0.869170 -0.204297
C12   C     C_3   0.961880 0.490841 0.368604 -0.114714
C13   C     C_3   0.234630 0.283191 0.967891 -0.352850
C14   C     C_3   0.117936 0.230003 0.899669 -0.463736
C15   C     C_3   0.084263 0.276829 0.379226 -0.255439
C16   C     C_3   0.140590 0.189974 0.484688 -0.297732
C17   C     C_3   0.180184 0.070405 0.417056 -0.447940
C18   C     C_3   0.039897 0.395634 0.445545 0.004236
C19   C     C_3   0.122330 0.498781 0.502446 0.050483
C20   C     C_2   0.504502 0.933508 0.386902 -0.170208
C21   C     C_2   0.509958 0.866675 0.502202 -0.123581
C22   C     C_2   0.511322 0.067560 0.387646 -0.170030
C23   C     C_2   0.495044 0.133324 0.502578 -0.124535
C24   C     C_2   0.426315 0.429376 0.926588 0.089457
Cu1   Cu    Cu3+1 0.500030 0.500020 0.638630 0.909999
Cu2   Cu    Cu3+1 0.499970 0.499980 0.361370 0.918134
H1    H     H_    0.474601 0.091730 0.601659 0.095990
H2    H     H_    0.526652 0.112926 0.289109 0.142486
H3    H     H_    0.911958 0.326082 0.633357 0.104340
H4    H     H_    0.055070 0.304438 0.866694 0.149734
H5    H     H_    0.145423 0.174329 0.808956 0.145559
H6    H     H_    0.065565 0.170240 0.974033 0.146985
H7    H     H_    0.294709 0.205948 0.999425 0.148993
H8    H     H_    0.203924 0.335018 0.060361 0.157913
H9    H     H_    0.244413 0.443263 0.841272 0.164196
H10   H     H_    0.332800 0.314892 0.776952 0.191832
H11   H     H_    0.067171 0.517489 0.738824 0.105594
H12   H     H_    0.578062 0.534857 0.891123 0.202941
H13   H     H_    0.096832 0.021238 0.376096 0.146952
H14   H     H_    0.248276 0.088897 0.331423 0.160938
H15   H     H_    0.225178 0.010908 0.494174 0.150116
H16   H     H_    0.223692 0.234116 0.532425 0.164761
H17   H     H_    0.069941 0.168515 0.566983 0.152126
H18   H     H_    0.002454 0.231355 0.330228 0.140489
H19   H     H_    0.155508 0.299465 0.298080 0.147817
H20   H     H_    0.420867 0.329879 0.130277 0.137981
H21   H     H_    0.518752 0.580755 0.104821 0.206317
H22   H     H_    0.921679 0.690674 0.599674 0.109328
H23   H     H_    0.085859 0.673401 0.366903 0.111326
H24   H     H_    0.929095 0.483091 0.261178 0.116583
H25   H     H_    0.496253 0.889220 0.287529 0.146566
H26   H     H_    0.523714 0.907503 0.602121 0.100979
N1    N     N_2   0.498620 0.498660 0.846910 -0.348290
N2    N     N_2   0.498590 0.498630 0.153040 -0.361697
O1    O     O_R   0.500020 0.321960 0.617040 -0.513158
O2    O     O_R   0.499980 0.321920 0.382900 -0.498557
O3    O     O_R   0.316870 0.499990 0.617050 -0.522413
O4    O     O_R   0.316830 0.499950 0.382910 -0.494790
O5    O     O_R   0.500020 0.678080 0.617100 -0.493219
O6    O     O_R   0.499980 0.678040 0.382960 -0.498074
O7    O     O_R   0.683170 0.500050 0.617090 -0.500561
O8    O     O_R   0.683130 0.500010 0.382950 -0.494240

loop_
_geom_bond_atom_site_label_1
_geom_bond_atom_site_label_2
_ccdc_geom_bond_type
C15   H18   S    
C15   C18   S    
C12   H24   S    
C13   H7    S    
C6    C7    S    
C4    C21   S    
C23   H1    S    
C5    C8    S    
C11   C13   S    
C9    C10   S    
C10   C19   S    
C14   H5    S    
C8    C12   S    
C7    C18   S    
C4    O6    A    
C6    C9    S    
C11   H9    S    
Cu2   O8    S    
C6    H11   S    
C5    O7    A    
C7    C8    S    
Cu1   O7    S    
C13   C14   S    
C2    H20   S    
C3    C19   S    
C6    C19   S    
Cu2   O4    S    
C16   H17   S    
H12   N1    S    
Cu1   O3    S    
C14   H4    S    
H21   N2    S    
C7    H3    S    
Cu2   N2    S    
C4    O5    A    
C11   H10   S    
C1    O2    A    
Cu1   N1    S    
C5    O8    A    
C1    C23   S    
C20   H25   S    
C10   C12   S    
C20   C22   S    
C2    C24   S    
C17   H15   S    
C1    O1    A    
C15   H19   S    
C15   C16   S    
C3    O4    A    
C16   H16   S    
C11   C24   S    
C13   H8    S    
C20   C21   D    
C24   N1    D    
C9    H22   S    
C18   C19   S    
C2    N2    D    
C12   C18   S    
C17   H13   S    
C22   C23   D    
C8    C9    S    
C22   H2    S    
Cu1   O5    S    
Cu1   Cu2   S    
C10   H23   S    
Cu2   O6    S    
C21   H26   S    
Cu1   O1    S    
C14   H6    S    
C16   C17   S    
C3    O3    A    
C17   H14   S    
Cu2   O2    S    
