data_mof_unit_36624.cif
_audit_creation_date              2012-12-10T17:10:59-0500
_audit_creation_method            fapswitch 2.2
_symmetry_space_group_name_H-M    P1
_symmetry_Int_Tables_number       1
_space_group_crystal_system       triclinic
_cell_length_a                    11.707967
_cell_length_b                    13.00371
_cell_length_c                    13.540875
_cell_angle_alpha                 92.77823
_cell_angle_beta                  76.47166
_cell_angle_gamma                 99.769166
_cell_volume                      1975.21102332

loop_
_atom_site_label
_atom_site_type_symbol
_atom_type_description
_atom_site_fract_x
_atom_site_fract_y
_atom_site_fract_z
_atom_type_partial_charge
C1    C     C_R   0.520974 0.700738 0.501354 0.805362
C2    C     C_R   0.450714 0.487069 0.972894 0.097770
C3    C     C_R   0.479896 0.464857 0.867188 0.078097
C4    C     C_R   0.535935 0.480951 0.031324 -0.033373
C5    C     C_R   0.653194 0.467347 0.981843 0.095001
C6    C     C_R   0.677859 0.439069 0.879630 -0.212022
C7    C     C_R   0.589826 0.430667 0.825219 -0.186499
C8    C     C_R   0.506915 0.482823 0.137755 0.522792
C9    C     C_R   0.714977 0.493285 0.141286 -0.276056
C10   C     C_R   0.398724 0.478726 0.806905 -0.099427
C11   C     C_R   0.467005 0.185339 0.495895 -0.169736
C12   C     C_R   0.436143 0.488080 0.695259 0.772021
C13   C     C_R   0.533257 0.814123 0.502280 -0.054608
C14   C     C_R   0.646586 0.984512 0.522975 -0.174596
C15   C     C_R   0.636752 0.876392 0.520516 -0.192208
C16   C     C_R   0.440256 0.860651 0.485590 -0.237248
C17   C     C_R   0.448797 0.968442 0.489181 0.064072
C18   C     C_R   0.552799 0.030991 0.507713 0.179084
C19   C     C_R   0.561300 0.138956 0.510709 -0.353784
C20   C     C_R   0.363017 0.122254 0.478366 0.611462
C21   C     C_R   0.354523 0.014414 0.474875 -0.279212
C22   C     C_R   0.956044 0.622344 0.561163 -0.307355
C23   C     C_R   0.479092 0.299089 0.498152 0.837209
C24   C     C_R   0.835228 0.606811 0.560702 0.077767
C25   C     C_R   0.850521 0.443684 0.477312 0.046705
C26   C     C_R   0.972672 0.454899 0.478427 -0.003899
C27   C     C_R   0.026009 0.545043 0.522150 -0.012806
C28   C     C_R   0.148344 0.556258 0.524802 0.576341
C29   C     C_R   0.164423 0.394807 0.436312 0.100727
C30   C     C_R   0.043078 0.379918 0.434757 -0.331042
C31   C     C_R   0.562861 0.501150 0.304292 0.836838
C32   C     C_R   0.742369 0.475877 0.036668 -0.195141
C33   C     C_R   0.596613 0.494269 0.192876 -0.152741
C34   C     C_R   0.284084 0.497106 0.854919 -0.199097
C35   C     C_R   0.255942 0.519350 0.957926 -0.180084
C36   C     C_R   0.340089 0.520114 0.015216 -0.098424
Cu1   Cu    Cu3+1 0.386470 0.492430 0.492410 1.017667
Cu2   Cu    Cu3+1 0.613530 0.507570 0.507590 0.932519
H1    H     H_    0.785058 0.500281 0.182303 0.183771
H2    H     H_    0.726904 0.031575 0.537271 0.136900
H3    H     H_    0.274183 0.966890 0.461069 0.168402
H4    H     H_    0.709744 0.841684 0.533419 0.151903
H5    H     H_    0.360646 0.813217 0.470325 0.196796
H6    H     H_    0.217377 0.336554 0.401724 0.217177
H7    H     H_    0.993302 0.695045 0.591765 0.164811
H8    H     H_    0.004755 0.310266 0.399261 0.165119
H9    H     H_    0.782856 0.666519 0.592198 0.128812
H10   H     H_    0.764103 0.419355 0.842564 0.142737
H11   H     H_    0.809212 0.375750 0.441631 0.121897
H12   H     H_    0.832948 0.468187 0.998708 0.146717
H13   H     H_    0.217708 0.500586 0.812141 0.140751
H14   H     H_    0.317388 0.550391 0.091521 0.200350
H15   H     H_    0.170150 0.541102 0.992682 0.145677
H16   H     H_    0.610088 0.396456 0.750273 0.176827
H17   H     H_    0.641469 0.186637 0.524768 0.174532
N1    N     N_R   0.215880 0.481050 0.481000 -0.226106
N2    N     N_R   0.784100 0.518950 0.519000 -0.183186
O1    O     O_R   0.419710 0.645650 0.494620 -0.534395
O2    O     O_R   0.611450 0.658430 0.507430 -0.602167
O3    O     O_R   0.357340 0.490460 0.641450 -0.599618
O4    O     O_R   0.549080 0.503250 0.654260 -0.589073
O5    O     O_R   0.388550 0.341570 0.492570 -0.538057
O6    O     O_R   0.580290 0.354350 0.505380 -0.614316
O7    O     O_R   0.450920 0.496750 0.345740 -0.508365
O8    O     O_R   0.642660 0.509540 0.358550 -0.595938
F1    F     F_    0.269641 0.164014 0.463847 -0.679424
O9    O     O_3   0.202648 0.649429 0.559735 -0.607189
C37   C     C_3   0.174738 0.654100 0.667216 0.022794
H18   H     H_    0.242697 0.622671 0.694994 0.186431
H19   H     H_    0.085424 0.609894 0.703038 0.115164
C38   C     C_3   0.181824 0.768129 0.702438 -0.349377
H20   H     H_    0.273443 0.810441 0.672897 0.232628
H21   H     H_    0.119384 0.806431 0.672300 0.216820
C39   C     C_3   0.151752 0.776596 0.818162 -0.908975
H22   H     H_    0.059409 0.736877 0.849750 0.255017
H23   H     H_    0.158796 0.860071 0.841407 0.264904
H24   H     H_    0.214749 0.740536 0.849959 0.257447
F2    F     F_    0.390985 0.459037 0.187814 -0.680279

loop_
_geom_bond_atom_site_label_1
_geom_bond_atom_site_label_2
_ccdc_geom_bond_type
C9    C33   A    
C35   H15   S    
C14   C18   A    
C35   C36   A    
C4    C8    A    
Cu1   O5    S    
C28   N1    A    
C11   C19   A    
C34   H13   S    
C29   C30   A    
C6    H10   S    
C20   F1    S    
C18   C19   A    
C3    C7    A    
C1    O2    A    
C5    C6    A    
C2    C36   A    
C9    H1    S    
C34   C35   A    
C9    C32   A    
Cu1   N1    S    
C23   O5    A    
C16   C17   A    
C39   H24   S    
C31   C33   S    
Cu1   O1    S    
C36   H14   S    
Cu2   O4    S    
C23   O6    A    
C8    F2    S    
C25   N2    A    
C11   C20   A    
C39   H22   S    
O9    C37   S    
C28   O9    S    
C38   H21   S    
C37   H18   S    
C25   C26   A    
C17   C21   A    
C2    C4    A    
Cu1   Cu2   S    
Cu2   N2    S    
Cu2   O8    S    
C17   C18   A    
C26   C27   A    
C10   C34   A    
C16   H5    S    
C32   H12   S    
C10   C12   S    
C21   H3    S    
C26   C30   A    
C22   C27   A    
C13   C15   A    
C29   H6    S    
C22   C24   A    
C1    C13   S    
C39   H23   S    
Cu1   O7    S    
Cu2   O6    S    
C24   N2    A    
C19   H17   S    
C31   O8    A    
C24   H9    S    
C31   O7    A    
C30   H8    S    
C15   H4    S    
C4    C5    A    
C38   C39   S    
C6    C7    A    
C29   N1    A    
C5    C32   A    
C2    C3    A    
C38   H20   S    
C3    C10   A    
C1    O1    A    
C12   O4    A    
C37   C38   S    
C11   C23   S    
C8    C33   A    
C25   H11   S    
Cu1   O3    S    
C14   H2    S    
Cu2   O2    S    
C12   O3    A    
C22   H7    S    
C20   C21   A    
C37   H19   S    
C13   C16   A    
C27   C28   A    
C14   C15   A    
C7    H16   S    
