data_mof_unit_66071.cif
_audit_creation_date              2012-12-10T18:23:04-0500
_audit_creation_method            fapswitch 2.2
_symmetry_space_group_name_H-M    P1
_symmetry_Int_Tables_number       1
_space_group_crystal_system       triclinic
_cell_length_a                    21.563114
_cell_length_b                    21.556814
_cell_length_c                    22.167685
_cell_angle_alpha                 60.268353
_cell_angle_beta                  119.922874
_cell_angle_gamma                 91.052181
_cell_volume                      7387.20923468

loop_
_atom_site_label
_atom_site_type_symbol
_atom_type_description
_atom_site_fract_x
_atom_site_fract_y
_atom_site_fract_z
_atom_type_partial_charge
C1    C     C_R   0.619490 0.502173 0.496852 0.900169
C2    C     C_3   0.289403 0.709752 0.083082 -0.094964
C3    C     C_3   0.182797 0.737157 0.971518 0.412472
C4    C     C_3   0.208036 0.792736 0.917225 -0.088959
C5    C     C_3   0.211665 0.768440 0.026635 -0.123680
C6    C     C_3   0.236097 0.825428 0.971494 -0.398051
C7    C     C_1   0.335599 0.663648 0.173950 0.157401
C8    C     C_1   0.163231 0.837650 0.826320 0.122473
C9    C     C_3   0.758094 0.447248 0.591909 0.348549
C10   C     C_3   0.829840 0.455984 0.590721 -0.443442
C11   C     C_3   0.686419 0.474065 0.444020 0.318419
C12   C     C_R   0.418521 0.581162 0.337754 0.888489
C13   C     C_3   0.698986 0.584435 0.464719 0.350260
C14   C     C_3   0.687727 0.503177 0.497259 -0.184320
C15   C     C_3   0.809696 0.503702 0.498806 -0.125796
C16   C     C_3   0.761291 0.469031 0.451893 -0.479254
C17   C     C_3   0.765543 0.586414 0.455113 -0.272322
C18   C     C_3   0.706751 0.220613 0.027291 -0.162906
C19   C     C_3   0.694653 0.305476 0.971417 -0.150733
C20   C     C_1   0.626164 0.374120 0.751515 -0.153354
C21   C     C_1   0.873870 0.125858 0.248429 -0.175226
C22   C     C_3   0.720476 0.207019 0.972009 -0.163285
C23   C     C_R   0.377490 0.500720 0.497235 0.987877
C24   C     C_3   0.709175 0.291081 0.917735 0.198217
C25   C     C_3   0.805509 0.194634 0.028455 -0.160660
C26   C     C_3   0.790985 0.209022 0.082150 0.196994
C27   C     C_3   0.793405 0.279506 0.972565 -0.165067
C28   C     C_3   0.779688 0.293093 0.027866 -0.157964
C29   C     C_1   0.663764 0.336542 0.826681 -0.073684
C30   C     C_1   0.836313 0.163498 0.173238 -0.067764
C31   C     C_3   0.248798 0.488964 0.426631 0.961627
C32   C     C_3   0.180059 0.483094 0.434767 -0.524490
C33   C     C_3   0.331437 0.429388 0.586579 -0.312912
C34   C     C_R   0.581483 0.418758 0.662395 0.936709
C35   C     C_3   0.276787 0.572536 0.482403 -0.449546
C36   C     C_3   0.309885 0.497926 0.498545 -0.068136
C37   C     C_3   0.190974 0.496685 0.502057 -0.124217
C38   C     C_3   0.262737 0.432943 0.593475 -0.140706
C39   C     C_3   0.201863 0.575753 0.474755 0.349982
C40   C     C_R   0.000966 0.877003 0.503440 0.840811
C41   C     C_R   0.081270 0.918816 0.662302 0.920347
C42   C     C_R   0.998653 0.122869 0.496473 0.852052
C43   C     C_R   0.918676 0.081181 0.337595 0.895709
C44   C     C_R   0.000385 0.378426 0.500147 0.870594
C45   C     C_3   0.286086 0.734377 0.974145 0.352556
C46   C     C_R   0.878364 0.501464 0.499865 0.916954
C47   C     C_R   0.001310 0.621629 0.499946 0.889248
C48   C     C_R   0.121851 0.498220 0.500538 0.906752
C49   C     C_3   0.082054 0.761511 0.552024 -0.478209
C50   C     C_3   0.083858 0.691821 0.549050 -0.163667
C51   C     C_3   0.962082 0.758412 0.547250 -0.149660
C52   C     C_3   0.958057 0.832120 0.411657 -0.437139
C53   C     C_3   0.999622 0.808808 0.503433 0.052918
C54   C     C_3   0.001615 0.689265 0.501057 -0.017758
C55   C     C_3   0.964148 0.687594 0.545863 -0.531899
C56   C     C_3   0.313834 0.766127 0.028450 0.464517
C57   C     C_3   0.954668 0.762009 0.408985 0.407850
C58   C     C_3   0.047822 0.233990 0.465995 -0.211225
C59   C     C_3   0.048480 0.304301 0.468957 -0.453499
C60   C     C_3   0.915777 0.245898 0.435367 0.360133
C61   C     C_3   0.034500 0.168478 0.588337 -0.215402
C62   C     C_3   0.998253 0.191475 0.495977 -0.062968
C63   C     C_3   0.999541 0.310749 0.499412 0.031811
C64   C     C_3   0.917397 0.317320 0.436532 -0.191945
C65   C     C_3   0.033653 0.239260 0.589393 -0.420443
C66   C     C_1   0.373650 0.625746 0.248930 -0.138094
C67   C     C_1   0.125938 0.874733 0.751264 -0.136297
C68   C     C_3   0.260198 0.678839 0.027212 0.313144
H1    H     H_    0.871113 0.400369 0.627971 0.231679
H2    H     H_    0.681892 0.415969 0.471931 0.140012
H3    H     H_    0.792435 0.409065 0.488406 0.218375
H4    H     H_    0.721518 0.587971 0.519852 0.187698
H5    H     H_    0.804176 0.608715 0.490503 0.133444
H6    H     H_    0.751394 0.495834 0.388922 0.190245
H7    H     H_    0.648402 0.351710 0.946422 0.151338
H8    H     H_    0.672003 0.195694 0.051288 0.144017
H9    H     H_    0.804742 0.327583 0.052359 0.147142
H10   H     H_    0.828075 0.304463 0.948452 0.131839
H11   H     H_    0.851739 0.148397 0.053422 0.137537
H12   H     H_    0.695419 0.172530 0.947518 0.139653
H13   H     H_    0.125857 0.521542 0.374455 0.212403
H14   H     H_    0.172432 0.427048 0.452275 0.132086
H15   H     H_    0.343217 0.378750 0.587555 0.148156
H16   H     H_    0.224715 0.886047 0.946449 0.191128
H17   H     H_    0.316903 0.578539 0.534162 0.238836
H18   H     H_    0.268787 0.620974 0.424043 0.220153
H19   H     H_    0.203770 0.589616 0.517786 0.136665
H20   H     H_    0.113607 0.746234 0.617884 0.161773
H21   H     H_    0.111356 0.794903 0.523765 0.207650
H22   H     H_    0.107652 0.697469 0.512862 0.175323
H23   H     H_    0.996602 0.740038 0.614249 0.092022
H24   H     H_    0.995139 0.636951 0.611486 0.171953
H25   H     H_    0.900325 0.870480 0.372559 0.182494
H26   H     H_    0.987895 0.864225 0.383374 0.190897
H27   H     H_    0.894956 0.761393 0.379574 0.147012
H28   H     H_    0.906817 0.682598 0.513369 0.202968
H29   H     H_    0.106871 0.196364 0.511573 0.141182
H30   H     H_    0.107302 0.299620 0.512840 0.157196
H31   H     H_    0.028203 0.356469 0.406628 0.219311
H32   H     H_    0.896137 0.262883 0.370700 0.092153
H33   H     H_    0.899239 0.364725 0.372214 0.102421
H34   H     H_    0.094475 0.135266 0.626106 0.164800
H35   H     H_    0.092517 0.235059 0.632565 0.198087
H36   H     H_    0.002673 0.243438 0.615645 0.219262
H37   H     H_    0.859298 0.484650 0.622097 0.186166
O1    O     O_R   0.592630 0.447740 0.499990 -0.668222
O2    O     O_R   0.947670 0.907410 0.499960 -0.633813
O3    O     O_R   0.113890 0.938270 0.623230 -0.619568
O4    O     O_R   0.009320 0.938380 0.623210 -0.594396
O5    O     O_R   0.052330 0.092440 0.500040 -0.655841
O6    O     O_R   0.947760 0.092550 0.500030 -0.561792
O7    O     O_R   0.990680 0.061470 0.376790 -0.620778
O8    O     O_R   0.886110 0.061580 0.376770 -0.619309
O9    O     O_R   0.034860 0.372650 0.569600 -0.604148
O10   O     O_R   0.965300 0.442140 0.430470 -0.654414
O11   O     O_R   0.942170 0.465260 0.569550 -0.630355
O12   O     O_R   0.592590 0.552250 0.500040 -0.570860
O13   O     O_R   0.872610 0.534760 0.430420 -0.640494
O14   O     O_R   0.034700 0.557860 0.569530 -0.633597
O15   O     O_R   0.965140 0.627350 0.430400 -0.584094
O16   O     O_R   0.127390 0.465250 0.569580 -0.622683
O17   O     O_R   0.057830 0.534740 0.430450 -0.585384
O18   O     O_R   0.438420 0.509360 0.376750 -0.611267
O19   O     O_R   0.438370 0.613870 0.376810 -0.616840
O20   O     O_R   0.407410 0.447750 0.499960 -0.592461
O21   O     O_R   0.407370 0.552260 0.500010 -0.609610
O22   O     O_R   0.561630 0.386130 0.623190 -0.644599
O23   O     O_R   0.561580 0.490640 0.623250 -0.577917
O24   O     O_R   0.052240 0.907300 0.499970 -0.625179
Zn1   Zn    Zn3+2 0.500030 0.430220 0.499960 0.980760
Zn2   Zn    Zn3+2 0.499970 0.569780 0.500040 1.047808
Zn3   Zn    Zn3+2 0.069820 0.999850 0.500010 0.949826
Zn4   Zn    Zn3+2 0.930180 0.000000 0.499990 1.001238
Zn5   Zn    Zn3+2 0.046440 0.453600 0.592900 0.998887
Zn6   Zn    Zn3+2 0.953560 0.546400 0.407100 0.975636
O25   O     O_3   0.384878 0.776780 0.065203 -0.612362
C69   C     C_3   0.386714 0.841291 0.003122 -0.287067
H38   H     H_    0.351252 0.892832 0.983787 0.174769
H39   H     H_    0.369141 0.840037 0.947328 0.186183
H40   H     H_    0.445295 0.843666 0.030303 0.188776
O26   O     O_3   0.636544 0.651668 0.402546 -0.606702
C70   C     C_3   0.579595 0.657105 0.329339 -0.058641
H41   H     H_    0.599939 0.655045 0.293350 0.164590
H42   H     H_    0.537324 0.713031 0.287023 0.170011
H43   H     H_    0.548911 0.616114 0.342472 0.161925
C71   C     C_2   0.742260 0.638484 0.365168 0.545162
H44   H     H_    0.713214 0.623705 0.320173 0.066000
O27   O     O_2   0.757578 0.697386 0.342616 -0.576428
O28   O     O_3   0.625919 0.521179 0.358332 -0.638691
C72   C     C_3   0.599426 0.479973 0.322072 -0.344707
H45   H     H_    0.571198 0.442701 0.348792 0.188643
H46   H     H_    0.645484 0.446764 0.330624 0.165042
H47   H     H_    0.557184 0.519933 0.253514 0.192912
O29   O     O_3   0.320272 0.721348 0.939600 -0.610589
C73   C     C_3   0.392791 0.669690 0.004723 -0.289482
H48   H     H_    0.392828 0.617955 0.054342 0.188343
H49   H     H_    0.432031 0.695865 0.032968 0.199223
H50   H     H_    0.414441 0.652527 0.977454 0.184962
O30   O     O_3   0.280692 0.419845 0.444001 -0.638083
C74   C     C_3   0.239697 0.411319 0.376741 -0.276204
H51   H     H_    0.243387 0.451168 0.323198 0.206057
H52   H     H_    0.180541 0.415834 0.356874 0.136632
H53   H     H_    0.265664 0.354099 0.398700 0.180251
O31   O     O_3   0.236502 0.551438 0.349654 -0.632108
C75   C     C_3   0.162768 0.584154 0.276128 -0.302709
H54   H     H_    0.129003 0.625389 0.272706 0.229322
H55   H     H_    0.133771 0.542781 0.269500 0.123574
H56   H     H_    0.166231 0.615806 0.220906 0.213112
C76   C     C_2   0.249738 0.355736 0.621368 0.300048
H57   H     H_    0.242555 0.331948 0.586019 0.090912
O32   O     O_2   0.248624 0.318427 0.683851 -0.581568
O33   O     O_3   0.141604 0.630309 0.390264 -0.600475
C77   C     C_3   0.133587 0.702865 0.373889 -0.250167
H58   H     H_    0.186019 0.718612 0.386937 0.147937
H59   H     H_    0.115908 0.707343 0.410950 0.195600
H60   H     H_    0.089085 0.743851 0.306326 0.197325
C78   C     C_2   0.405704 0.414709 0.663423 0.452195
H61   H     H_    0.433054 0.358871 0.721057 0.055018
O34   O     O_2   0.434444 0.464161 0.662807 -0.536964
C79   C     C_2   0.277999 0.449807 0.658976 0.503196
H62   H     H_    0.261012 0.420546 0.701785 0.143052
O35   O     O_2   0.306825 0.498148 0.662845 -0.543549
C80   C     C_2   0.170871 0.789467 0.055342 0.435600
H63   H     H_    0.116958 0.832790 0.009092 0.077079
O36   O     O_2   0.197642 0.758336 0.130134 -0.575525
C81   C     C_2   0.136198 0.622572 0.637321 0.441379
H64   H     H_    0.126111 0.607630 0.685440 0.063578
O37   O     O_2   0.190752 0.583266 0.655489 -0.551770
O38   O     O_3   0.983453 0.763383 0.363148 -0.624059
C82   C     C_3   0.925875 0.802885 0.276524 -0.302179
H65   H     H_    0.897235 0.860629 0.251366 0.155986
H66   H     H_    0.884428 0.771801 0.264414 0.188764
H67   H     H_    0.951222 0.807846 0.242006 0.183653
C83   C     C_2   0.882618 0.797303 0.511299 0.468094
H68   H     H_    0.871837 0.807432 0.549024 0.061479
O39   O     O_2   0.830379 0.817747 0.440592 -0.558960
C84   C     C_2   0.025719 0.252582 0.380893 0.349103
H69   H     H_    0.054383 0.214284 0.378030 0.097323
O40   O     O_2   0.975255 0.308906 0.315248 -0.598843
O41   O     O_3   0.111942 0.726235 0.934118 -0.601820
C85   C     C_3   0.099449 0.678575 0.996394 -0.305429
H70   H     H_    0.079589 0.710660 0.013300 0.165637
H71   H     H_    0.149761 0.629818 0.053811 0.188024
H72   H     H_    0.054234 0.655849 0.970034 0.186949
C86   C     C_2   0.999779 0.119461 0.632032 0.506509
H73   H     H_    0.944208 0.142229 0.613428 0.170931
O42   O     O_2   0.034814 0.053894 0.690194 -0.596857
O43   O     O_3   0.867939 0.210066 0.458487 -0.577076
C87   C     C_3   0.796728 0.229096 0.386762 -0.260109
H74   H     H_    0.801226 0.204324 0.354916 0.162232
H75   H     H_    0.770355 0.290940 0.341972 0.129876
H76   H     H_    0.759461 0.205413 0.407183 0.195606
O44   O     O_3   0.276015 0.600914 0.063336 -0.613443
C88   C     C_3   0.242079 0.587807 0.999281 -0.285848
H77   H     H_    0.261761 0.612804 0.957085 0.198618
H78   H     H_    0.179898 0.608646 0.962085 0.198018
H79   H     H_    0.258093 0.526400 0.029057 0.180428
C89   C     C_2   0.860981 0.338160 0.450208 0.438651
H80   H     H_    0.815306 0.390239 0.400328 0.014023
O45   O     O_2   0.865124 0.296989 0.515501 -0.554664
C90   C     C_2   0.754395 0.366236 0.626285 0.327938
H81   H     H_    0.714276 0.350312 0.642675 0.103031
O46   O     O_2   0.795421 0.318816 0.636196 -0.577723
O47   O     O_3   0.756513 0.470291 0.641764 -0.635342
C91   C     C_3   0.810788 0.419668 0.729397 -0.314850
H82   H     H_    0.822957 0.451033 0.759301 0.194180
H83   H     H_    0.864845 0.392814 0.745085 0.165970
H84   H     H_    0.787721 0.375776 0.757261 0.164562

loop_
_geom_bond_atom_site_label_1
_geom_bond_atom_site_label_2
_ccdc_geom_bond_type
C58   C62   S    
C3    O41   S    
C83   O39   D    
C40   O24   A    
C63   C65   S    
C58   C84   S    
C82   H65   S    
C41   O3    A    
C73   H49   S    
C59   H31   S    
C76   H57   S    
C35   C36   S    
C18   C26   S    
C24   C27   S    
C39   H19   S    
C4    C8    S    
C27   H10   S    
O47   C91   S    
C91   H84   S    
C11   H2    S    
C49   C50   S    
C41   C67   S    
O44   C88   S    
O33   C77   S    
C6    C56   S    
C32   H13   S    
C69   H39   S    
C75   H54   S    
C16   H6    S    
C22   C24   S    
O31   C75   S    
C11   O28   S    
C37   C38   S    
C2    C68   S    
C10   C15   S    
C80   O36   D    
C48   O17   A    
C5    C6    S    
C35   H18   S    
C88   H78   S    
O11   Zn5   S    
C15   C16   S    
C23   C36   S    
C33   C36   S    
C46   O13   A    
C60   C62   S    
C18   C19   S    
C85   H70   S    
C84   O40   D    
C24   C29   S    
C82   H67   S    
C51   H23   S    
C21   C43   S    
C15   C46   S    
O20   Zn1   S    
C50   H22   S    
C3    C68   S    
C45   C56   S    
C34   O22   A    
C78   O34   D    
C22   C25   S    
O41   C85   S    
C82   H66   S    
C52   H26   S    
O2    Zn4   S    
C13   O26   S    
O16   Zn5   S    
C9    C10   S    
C42   C62   S    
C21   C30   T    
C61   C62   S    
C1    O1    A    
C23   O20   A    
O24   Zn3   S    
C20   C34   S    
C86   O42   D    
C83   H68   S    
C44   O9    A    
C31   C36   S    
C75   H55   S    
O8    Zn4   S    
C13   C14   S    
C73   H50   S    
C17   H5    S    
C85   H71   S    
C49   H20   S    
O38   C82   S    
C58   H29   S    
C56   O25   S    
C79   O35   D    
C60   C64   S    
C87   H74   S    
C71   O27   D    
C20   C29   T    
C77   H59   S    
C44   C63   S    
C64   H33   S    
C69   H40   S    
O14   Zn5   S    
C70   H43   S    
C31   O31   S    
O4    Zn4   S    
C4    C45   S    
C74   H53   S    
C6    H16   S    
C44   O10   A    
C4    C6    S    
O43   C87   S    
C11   C14   S    
C88   H77   S    
C60   O43   S    
C47   C54   S    
C58   C59   S    
C77   H58   S    
C12   C66   S    
C51   C83   S    
C60   H32   S    
O19   Zn2   S    
C51   C53   S    
C74   H52   S    
C35   C39   S    
C9    C14   S    
C80   H63   S    
C57   O38   S    
C90   H81   S    
C68   O44   S    
C9    C90   S    
C11   C16   S    
C16   H3    S    
C89   O45   D    
O30   C74   S    
C12   O19   A    
C45   C68   S    
C91   H82   S    
O9    Zn5   S    
C52   H25   S    
C1    O12   A    
C32   C37   S    
O7    Zn3   S    
C37   C48   S    
O5    Zn3   S    
C28   H9    S    
C33   H15   S    
C38   C79   S    
O29   C73   S    
C8    C67   T    
C23   O21   A    
C47   O15   A    
C55   H24   S    
C26   C30   S    
C75   H56   S    
C40   O2    A    
O18   Zn1   S    
C19   C28   S    
C85   H72   S    
C72   H46   S    
C2    C5    S    
C43   O7    A    
C65   H35   S    
C81   O37   D    
C3    C4    S    
C50   C81   S    
C33   C78   S    
C50   C54   S    
C70   H42   S    
C52   C53   S    
C38   C76   S    
C71   H44   S    
C76   O32   D    
C77   H60   S    
C64   C89   S    
O1    Zn1   S    
C86   H73   S    
C54   C55   S    
C87   H75   S    
C18   H8    S    
C18   C22   S    
C26   C28   S    
C31   C32   S    
O6    Zn4   S    
C49   H21   S    
C55   H28   S    
C3    C5    S    
C88   H79   S    
C25   H11   S    
C87   H76   S    
C40   C53   S    
C15   C17   S    
C1    C14   S    
C13   H4    S    
C46   O11   A    
C25   C27   S    
C32   H14   S    
C69   H38   S    
C59   C63   S    
C33   C38   S    
C65   H36   S    
C13   C17   S    
C90   O46   D    
O15   Zn6   S    
C74   H51   S    
C19   H7    S    
C19   C24   S    
C25   C26   S    
O22   Zn1   S    
C22   H12   S    
C37   C39   S    
C2    C56   S    
O28   C72   S    
C43   O8    A    
C7    C66   T    
C35   H17   S    
C9    O47   S    
C89   H80   S    
C12   O18   A    
O10   Zn6   S    
O21   Zn2   S    
C49   C53   S    
C47   O14   A    
C91   H83   S    
C61   H34   S    
C51   C55   S    
C72   H47   S    
C42   O6    A    
C42   O5    A    
C84   H69   S    
O12   Zn2   S    
O17   Zn6   S    
O3    Zn3   S    
C52   C57   S    
O13   Zn6   S    
C17   C71   S    
C63   C64   S    
C10   H1    S    
C61   C65   S    
C2    C7    S    
C39   O33   S    
C34   O23   A    
C78   H61   S    
C57   H27   S    
C73   H48   S    
C70   H41   S    
C59   H30   S    
C72   H45   S    
O25   C69   S    
C10   H37   S    
C41   O4    A    
C45   O29   S    
C48   O16   A    
C81   H64   S    
O26   C70   S    
O23   Zn2   S    
C5    C80   S    
C31   O30   S    
C79   H62   S    
C61   C86   S    
C27   C28   S    
C54   C57   S    
