data_mof_unit_32148.cif
_audit_creation_date              2012-12-10T16:50:55-0500
_audit_creation_method            fapswitch 2.2
_symmetry_space_group_name_H-M    P1
_symmetry_Int_Tables_number       1
_space_group_crystal_system       triclinic
_cell_length_a                    8.06134
_cell_length_b                    8.529269
_cell_length_c                    10.428801
_cell_angle_alpha                 91.772264
_cell_angle_beta                  87.755158
_cell_angle_gamma                 92.878738
_cell_volume                      715.300749984

loop_
_atom_site_label
_atom_site_type_symbol
_atom_type_description
_atom_site_fract_x
_atom_site_fract_y
_atom_site_fract_z
_atom_type_partial_charge
C1    C     C_R   0.544117 0.793061 0.497277 0.935781
C2    C     C_R   0.937979 0.514849 0.077000 -0.126261
C3    C     C_R   0.068462 0.604131 0.020226 -0.143759
C4    C     C_R   0.931538 0.395869 0.979774 -0.143760
C5    C     C_R   0.211211 0.631089 0.093100 0.187468
C6    C     C_R   0.788789 0.368911 0.906900 0.187468
C7    C     C_R   0.351691 0.545088 0.059674 0.075320
C8    C     C_R   0.648309 0.454912 0.940326 0.075320
C9    C     C_R   0.351948 0.454579 0.945595 0.035965
C10   C     C_R   0.648052 0.545421 0.054405 0.035965
C11   C     C_R   0.499213 0.561091 0.124670 -0.226259
C12   C     C_R   0.455883 0.206939 0.502723 0.935781
C13   C     C_R   0.500787 0.438909 0.875330 -0.226259
C14   C     C_3   0.214129 0.767015 0.190088 -0.876528
C15   C     C_3   0.785871 0.232985 0.809912 -0.876528
C16   C     C_3   0.005655 0.310567 0.414229 -0.545007
C17   C     C_3   0.994345 0.689432 0.585771 -0.545007
C18   C     C_2   0.566825 0.957082 0.495835 -0.386612
C19   C     C_2   0.433175 0.042918 0.504165 -0.386612
C20   C     C_R   0.500771 0.478534 0.738933 0.871513
C21   C     C_R   0.499229 0.521466 0.261067 0.871513
C22   C     C_R   0.202710 0.403312 0.893398 -0.195729
C23   C     C_R   0.797290 0.596688 0.106602 -0.195729
C24   C     C_R   0.062021 0.485151 0.922999 -0.126261
H1    H     H_    0.967197 0.282401 0.012626 0.149144
H2    H     H_    0.126663 0.738969 0.271991 0.249343
H3    H     H_    0.339349 0.795263 0.227337 0.240141
H4    H     H_    0.825302 0.125276 0.854927 0.212881
H5    H     H_    0.660651 0.204736 0.772664 0.240141
H6    H     H_    0.873336 0.261031 0.728008 0.249343
H7    H     H_    0.907156 0.255985 0.353682 0.177761
H8    H     H_    0.117643 0.328086 0.350848 0.220212
H9    H     H_    0.023975 0.229213 0.492905 0.189320
H10   H     H_    0.882357 0.671914 0.649152 0.220212
H11   H     H_    0.092844 0.744015 0.646319 0.177761
H12   H     H_    0.032803 0.717600 0.987374 0.149144
H13   H     H_    0.976025 0.770787 0.507096 0.189320
H14   H     H_    0.199645 0.316697 0.814751 0.164782
H15   H     H_    0.800355 0.683303 0.185249 0.164782
H16   H     H_    0.028547 0.531239 0.831418 0.176637
H17   H     H_    0.971453 0.468761 0.168582 0.176637
H18   H     H_    0.693731 0.006590 0.487974 0.177956
H19   H     H_    0.306269 0.993410 0.512026 0.177956
H20   H     H_    0.174699 0.874724 0.145072 0.212881
N1    N     N_2   0.950330 0.457950 0.466250 -0.010002
N2    N     N_2   0.049670 0.542050 0.533750 -0.010002
O1    O     O_R   0.389250 0.738570 0.508280 -0.605985
O2    O     O_R   0.610750 0.261430 0.491720 -0.605986
O3    O     O_R   0.678390 0.711630 0.486650 -0.644422
O4    O     O_R   0.321610 0.288370 0.513350 -0.644423
O5    O     O_R   0.355430 0.513480 0.694040 -0.608026
O6    O     O_R   0.644570 0.486520 0.305960 -0.608025
O7    O     O_R   0.644570 0.486540 0.672410 -0.612590
O8    O     O_R   0.355430 0.513460 0.327590 -0.612590
Zn1   Zn    Zn3+2 0.306940 0.517990 0.514440 0.916956
Zn2   Zn    Zn3+2 0.693060 0.482010 0.485560 0.916956

loop_
_geom_bond_atom_site_label_1
_geom_bond_atom_site_label_2
_ccdc_geom_bond_type
N2    Zn1   S    
C16   N1    S    
C2    C4    A    
C8    C13   A    
C16   H9    S    
C16   H8    S    
O3    Zn2   S    
C14   H20   S    
C12   O4    A    
O4    Zn1   S    
O2    Zn2   S    
C12   O2    A    
C7    C9    A    
C2    C3    A    
C1    C18   S    
C17   H13   S    
N1    N2    D    
C14   H2    S    
C16   H7    S    
C7    C11   A    
C5    C14   S    
C3    H12   S    
C4    C24   A    
C23   H15   S    
C12   C19   S    
C8    C10   A    
C24   H16   S    
C19   H19   S    
C15   H5    S    
C20   O5    A    
O5    Zn1   S    
C18   H18   S    
C21   O8    A    
C14   H3    S    
C22   C24   A    
C9    C22   A    
C4    C6    A    
C10   C11   A    
C2    H17   S    
C15   H4    S    
C22   H14   S    
C4    H1    S    
C17   N2    S    
C15   H6    S    
O1    Zn1   S    
C18   C19   D    
C17   H10   S    
O7    Zn2   S    
C2    C23   A    
C5    C7    A    
C9    C13   A    
O8    Zn1   S    
C1    O1    A    
C10   C23   A    
C6    C8    A    
C17   H11   S    
C13   C20   S    
C6    C15   S    
C1    O3    A    
C11   C21   S    
C21   O6    A    
O6    Zn2   S    
N1    Zn2   S    
C3    C24   A    
C20   O7    A    
C3    C5    A    
