data_mof_unit_67333.cif
_audit_creation_date              2012-12-11T18:55:15-0500
_audit_creation_method            fapswitch 2.2
_symmetry_space_group_name_H-M    P1
_symmetry_Int_Tables_number       1
_space_group_crystal_system       triclinic
_cell_length_a                    8.381633
_cell_length_b                    15.513218
_cell_length_c                    16.612092
_cell_angle_alpha                 111.885269
_cell_angle_beta                  98.08379
_cell_angle_gamma                 79.084506
_cell_volume                      1962.25225114

loop_
_atom_site_label
_atom_site_type_symbol
_atom_type_description
_atom_site_fract_x
_atom_site_fract_y
_atom_site_fract_z
_atom_type_partial_charge
Ba1   Ba    Ba6+2 0.364200 0.465260 0.540910 1.871378
Ba2   Ba    Ba6+2 0.825640 0.534660 0.459080 1.809484
C1    C     C_3   0.205638 0.217578 0.797891 -0.194217
C2    C     C_R   0.901425 0.550807 0.759356 -0.199446
C3    C     C_2   0.467757 0.377819 0.129850 0.337146
C4    C     C_3   0.715936 0.245302 0.781915 0.930824
C5    C     C_2   0.449012 0.418359 0.216664 -0.020604
C6    C     C_2   0.176540 0.503687 0.191080 -0.000574
C7    C     C_3   0.219085 0.485091 0.099185 -0.195859
C8    C     C_3   0.333734 0.392749 0.063001 0.074238
C9    C     C_2   0.084771 0.502165 0.032504 0.352044
C10   C     C_2   0.120086 0.531159 0.970437 -0.045988
C11   C     C_R   0.842213 0.606840 0.933129 0.134649
C12   C     C_3   0.194987 0.284646 0.749737 0.664433
C13   C     C_R   0.995300 0.555774 0.906115 -0.028060
C14   C     C_R   0.717742 0.624851 0.873052 -0.093885
C15   C     C_R   0.745669 0.592631 0.784810 -0.045490
C16   C     C_3   0.813828 0.156631 0.796762 0.769479
C17   C     C_R   0.024876 0.528545 0.817464 0.015848
C18   C     C_R   0.879474 0.193015 0.564666 0.015653
C19   C     C_R   0.075647 0.204102 0.475157 0.031522
C20   C     C_R   0.225161 0.756312 0.445922 -0.345228
C21   C     C_R   0.311075 0.802370 0.411277 -0.066464
C22   C     C_R   0.254420 0.895875 0.418429 0.332606
C23   C     C_3   0.150979 0.779752 0.729506 0.602023
C24   C     C_R   0.120190 0.949231 0.469660 -0.075939
C25   C     C_R   0.035406 0.900039 0.506603 -0.102901
C26   C     C_R   0.067321 0.049798 0.487650 0.058224
C27   C     C_R   0.939549 0.096340 0.543428 -0.089888
C28   C     C_3   0.753089 0.219358 0.307095 0.631192
C29   C     C_R   0.865467 0.046070 0.576024 -0.148033
C30   C     C_R   0.894868 0.949799 0.551518 0.415749
C31   C     C_R   0.132443 0.107315 0.453691 -0.111185
C32   C     C_R   0.954896 0.246961 0.533964 0.200870
C33   C     C_R   0.093950 0.803655 0.497563 0.021738
C34   C     C_3   0.164606 0.851586 0.822198 0.336631
C35   C     C_3   0.834868 0.128397 0.241913 0.313557
C36   C     C_3   0.596771 0.805304 0.735161 0.917231
C37   C     C_3   0.750227 0.818281 0.796076 0.298398
C38   C     C_3   0.179184 0.295808 0.278147 0.316184
C39   C     C_3   0.195822 0.251985 0.180093 0.262890
C40   C     C_3   0.918499 0.059301 0.103016 0.272660
C41   C     C_3   0.491604 0.762481 0.592009 0.310651
C42   C     C_3   0.342403 0.101284 0.139860 0.350785
C43   C     C_3   0.312529 0.886539 0.955136 0.316453
C44   C     C_3   0.012094 0.108476 0.891539 0.207302
C45   C     C_3   0.477908 0.639766 0.204462 0.394913
C46   C     C_3   0.796938 0.903173 0.297462 0.248242
C47   C     C_3   0.918952 0.394913 0.010818 0.249275
C48   C     C_3   0.743877 0.394471 0.794341 0.117877
C49   C     C_3   0.286366 0.914190 0.292539 0.209140
C50   C     C_3   0.620595 0.949033 0.565649 0.361170
C51   C     C_3   0.503479 0.621409 0.109877 0.255181
C52   C     C_3   0.967641 0.711792 0.204409 0.297804
C53   C     C_3   0.864925 0.781878 0.165061 0.646410
C54   C     C_2   0.294188 0.479917 0.246815 -0.372125
Cl1   Cl    Cl    0.285805 0.219238 0.650807 -0.665452
Cl2   Cl    Cl    0.678914 0.078161 0.791488 -0.609454
Cl3   Cl    Cl    0.672766 0.188293 0.383104 -0.767876
Cl4   Cl    Cl    0.469849 0.918057 0.766835 -0.657662
Cl5   Cl    Cl    0.712885 0.856180 0.908260 -0.665810
Cl6   Cl    Cl    0.111571 0.674935 0.735943 -0.685589
Cl7   Cl    Cl    0.383689 0.710153 0.074154 -0.669044
Cl8   Cl    Cl    0.987961 0.843166 0.131974 -0.757468
Cl9   Cl    Cl    0.586098 0.297855 0.871675 -0.619012
Cl10  Cl    Cl    0.636681 0.292977 0.088511 -0.558300
Cl11  Cl    Cl    0.896927 0.368791 0.568684 -0.691855
H1    H     H_    0.949825 0.102430 0.273742 -0.045616
H2    H     H_    0.066210 0.309069 0.733844 -0.027275
H3    H     H_    0.146217 0.156461 0.756038 0.079990
H4    H     H_    0.262461 0.767142 0.698483 0.023937
H5    H     H_    0.051186 0.862509 0.853986 0.025596
H6    H     H_    0.179795 0.919375 0.818564 0.015188
H7    H     H_    0.147314 0.253538 0.859870 0.083324
H8    H     H_    0.545629 0.579165 0.221155 -0.007869
H9    H     H_    0.345940 0.647110 0.211705 -0.096867
H10   H     H_    0.470725 0.552017 0.067475 -0.009224
H11   H     H_    0.633062 0.619767 0.102068 0.120703
H12   H     H_    0.750988 0.074825 0.222561 0.058879
H13   H     H_    0.060978 0.669117 0.158630 -0.004364
H14   H     H_    0.031648 0.748168 0.267946 -0.071962
H15   H     H_    0.804181 0.739000 0.103114 0.092830
H16   H     H_    0.600621 0.663177 0.895281 0.172086
H17   H     H_    0.270590 0.497508 0.314054 0.068085
H18   H     H_    0.925404 0.532873 0.692570 0.157230
H19   H     H_    0.246226 0.533409 0.964521 0.113072
H20   H     H_    0.772692 0.081217 0.619200 0.069691
H21   H     H_    0.228310 0.082344 0.411110 0.141090
H22   H     H_    0.271896 0.684374 0.439954 0.040147
H23   H     H_    0.808885 0.871726 0.786712 0.103482
H24   H     H_    0.900213 0.121036 0.745949 -0.172514
H25   H     H_    0.842384 0.268059 0.340153 -0.045914
H26   H     H_    0.819633 0.014951 0.079539 0.144540
H27   H     H_    0.030565 0.020990 0.125838 0.041907
H28   H     H_    0.948059 0.073975 0.046987 0.057626
H29   H     H_    0.439700 0.700491 0.587904 -0.028161
H30   H     H_    0.529659 0.746790 0.528197 0.091438
H31   H     H_    0.395403 0.824787 0.605581 -0.053718
H32   H     H_    0.303615 0.087409 0.194585 0.041245
H33   H     H_    0.465664 0.060848 0.125382 0.083573
H34   H     H_    0.830664 0.751110 0.780550 0.002035
H35   H     H_    0.259592 0.075783 0.080505 -0.086846
H36   H     H_    0.199739 0.902203 0.989444 0.026319
H37   H     H_    0.344327 0.951727 0.952359 0.059658
H38   H     H_    0.413212 0.858420 0.993697 0.155464
H39   H     H_    0.948707 0.054107 0.896349 0.096319
H40   H     H_    0.087375 0.135741 0.953511 0.058980
H41   H     H_    0.096337 0.076308 0.838816 0.044412
H42   H     H_    0.890192 0.941996 0.291464 0.020645
H43   H     H_    0.693605 0.956441 0.328019 0.108626
H44   H     H_    0.844107 0.864487 0.342129 0.050833
H45   H     H_    0.291398 0.325755 0.310940 0.018028
H46   H     H_    0.955644 0.356700 0.943763 0.088191
H47   H     H_    0.791295 0.386915 0.012040 0.185126
H48   H     H_    0.994638 0.363349 0.056143 0.044772
H49   H     H_    0.761699 0.442450 0.861916 0.083388
H50   H     H_    0.610970 0.399117 0.775437 0.139354
H51   H     H_    0.795587 0.413161 0.747689 0.033369
H52   H     H_    0.166695 0.957233 0.286394 0.033670
H53   H     H_    0.275759 0.838601 0.257977 0.110140
H54   H     H_    0.373966 0.932212 0.259242 0.122436
H55   H     H_    0.594566 0.976669 0.511343 0.049168
H56   H     H_    0.073631 0.353116 0.289991 0.003575
H57   H     H_    0.585252 0.005119 0.627102 0.122843
H58   H     H_    0.537146 0.898436 0.552232 0.035930
H59   H     H_    0.334281 0.190721 0.812608 0.227280
H60   H     H_    0.184993 0.309376 0.154676 -0.041221
H61   H     H_    0.092198 0.213924 0.145951 0.082463
O1    O     O_2   0.428380 0.595290 0.716080 -0.380222
O2    O     O_2   0.651294 0.800792 0.414026 -0.456479
O3    O     O_3   0.538172 0.722256 0.257903 -0.527728
O4    O     O_3   0.649320 0.571640 0.606850 -0.462645
O5    O     O_3   0.067570 0.379360 0.450830 -0.440389
O6    O     O_2   0.850910 0.734710 0.551660 -0.344097
O7    O     O_3   0.027778 0.813955 0.679076 -0.656890
O8    O     O_2   0.855467 0.483854 0.196933 -0.451818
O9    O     O_3   0.862851 0.656133 0.213805 -0.571277
O10   O     O_3   0.202060 0.415890 0.655600 -0.393363
O11   O     O_2   0.357455 0.513430 0.804855 -0.440566
O12   O     O_3   0.153074 0.227052 0.308705 -0.668992
O13   O     O_3   0.514426 0.740361 0.745121 -0.623894
O14   O     O_3   0.279035 0.359339 0.801469 -0.574773
O15   O     O_2   0.338780 0.265250 0.448290 -0.373086
O16   O     O_3   0.612600 0.359160 0.609560 -0.403813
O17   O     O_2   0.557561 0.188878 0.538068 -0.362319
O18   O     O_3   0.867496 0.145395 0.168630 -0.622091
O19   O     O_3   0.633069 0.778408 0.649003 -0.658404
O20   O     O_3   0.350798 0.197298 0.161874 -0.604187
O21   O     O_3   0.297429 0.818674 0.870935 -0.569646
O22   O     O_3   0.899655 0.184039 0.880169 -0.637490
O23   O     O_3   0.615889 0.223788 0.701441 -0.589776
O24   O     O_3   0.737851 0.842395 0.216238 -0.600895
O25   O     O_3   0.926336 0.491231 0.036063 -0.679835
O26   O     O_3   0.826034 0.305005 0.787669 -0.771973
O27   O     O_3   0.343350 0.935208 0.380976 -0.673168
O28   O     O_3   0.785668 0.905355 0.572607 -0.595715
O29   O     O_2   0.761310 0.404670 0.283870 -0.456775
O30   O     O_3   0.540390 0.428280 0.393140 -0.482946
O31   O     O_3   0.987650 0.584030 0.344390 -0.480250
O32   O     O_3   0.621460 0.257343 0.263223 -0.541023
O33   O     O_3   0.122140 0.620560 0.549160 -0.455749
O34   O     O_3   0.577110 0.640760 0.390430 -0.509507
P1    P     P_3+3 0.592580 0.619730 0.703530 1.049972
P2    P     P_3+3 0.156500 0.273340 0.422460 1.062739
P3    P     P_3+3 0.675549 0.244416 0.610809 1.096476
P4    P     P_3+3 0.597130 0.380190 0.296460 1.105617
P5    P     P_3+3 0.514001 0.742323 0.366631 0.998128
P6    P     P_3+3 0.214072 0.456562 0.769874 1.087722
P7    P     P_3+3 0.037348 0.742455 0.568541 1.043632
P8    P     P_3+3 0.973332 0.557253 0.232941 1.011925

loop_
_geom_bond_atom_site_label_1
_geom_bond_atom_site_label_2
_ccdc_geom_bond_type
C46   H43   S    
C12   O14   S    
O31   P8    S    
C40   H26   S    
C51   Cl7   S    
C39   H60   S    
C47   H46   S    
C41   H31   S    
Ba1   O4    S    
C6    C54   D    
C1    H59   S    
C53   O24   S    
C38   H45   S    
O17   P3    D    
C28   O32   S    
C18   P3    S    
C35   H12   S    
C49   O27   S    
C24   C25   A    
Ba2   O6    S    
C16   H24   S    
C47   O25   S    
C26   C27   A    
C31   H21   S    
C22   C24   A    
C45   H9    S    
Ba1   O1    S    
C36   C37   S    
C42   H32   S    
C34   O21   S    
C52   O9    S    
C19   C31   A    
C48   H50   S    
C35   H1    S    
C44   H39   S    
O1    P1    D    
O10   P6    S    
Ba1   Ba2   S    
C38   H56   S    
C1    H7    S    
C43   H36   S    
C42   O20   S    
C30   O28   S    
C2    C17   A    
C50   H55   S    
O2    P5    D    
C16   Cl2   S    
C4    Cl9   S    
Ba1   P2    S    
C43   H38   S    
C6    C7    S    
O6    P7    D    
C44   H41   S    
Ba2   O4    S    
C21   C22   A    
C54   H17   S    
C49   H53   S    
C23   H4    S    
O32   P4    S    
C35   O18   S    
C15   P1    S    
C7    C8    S    
Ba2   P4    S    
C37   H23   S    
C48   H49   S    
C22   O27   S    
C45   C51   S    
O33   P7    S    
C46   H42   S    
Ba1   O33   S    
C19   P2    S    
C48   H51   S    
C53   Cl8   S    
C39   H61   S    
Ba2   O34   S    
C5    C54   S    
Ba1   O5    S    
Ba2   O33   S    
C6    P8    S    
C37   H34   S    
C52   H13   S    
C18   C27   A    
C37   Cl5   S    
C4    C16   S    
Ba2   O5    S    
C29   H20   S    
C40   H28   S    
C1    H3    S    
C28   H25   S    
C3    C5    D    
C42   H35   S    
Ba2   O31   S    
C19   C32   A    
C25   C33   A    
O23   P3    S    
C42   H33   S    
O14   P6    S    
C14   H16   S    
O34   P5    S    
C28   C35   S    
C45   O3    S    
C32   Cl11  S    
C13   C17   A    
Ba1   O15   S    
C43   H37   S    
C49   H52   S    
C29   C30   A    
C10   C13   S    
Ba2   O30   S    
C44   H40   S    
C41   H29   S    
C53   H15   S    
C7    C9    S    
O9    P8    S    
C4    O26   S    
C1    C12   S    
C21   P5    S    
C4    O23   S    
C38   C39   S    
C44   O22   S    
C5    P4    S    
O8    P8    D    
C26   C31   A    
O13   P1    S    
C11   C13   A    
C51   H10   S    
C33   P7    S    
C36   O13   S    
C36   Cl4   S    
O12   P2    S    
C17   P6    S    
C2    C15   A    
C40   O18   S    
O5    P2    S    
O15   P2    D    
O30   P4    S    
C12   Cl1   S    
C52   C53   S    
Ba1   O30   S    
C47   H48   S    
C25   C30   A    
C40   H27   S    
C41   H30   S    
C3    Cl10  S    
O29   P4    D    
C50   H58   S    
C2    H18   S    
C50   O28   S    
C24   C26   A    
C10   H19   S    
O16   P3    S    
C46   O24   S    
C51   H11   S    
O4    P1    S    
C45   H8    S    
C3    C8    S    
C27   C29   A    
Ba1   O16   S    
C50   H57   S    
C14   C15   A    
C39   O20   S    
C48   O26   S    
Ba2   O29   S    
C49   H54   S    
C38   O12   S    
C12   H2    S    
C20   H22   S    
C47   H47   S    
C43   O21   S    
C23   Cl6   S    
O7    P7    S    
O11   P6    D    
C23   O7    S    
C36   O19   S    
C41   O19   S    
C34   H6    S    
C9    O25   S    
C23   C34   S    
O3    P5    S    
C18   C32   A    
C46   H44   S    
Ba1   P1    S    
C11   C14   A    
C28   Cl3   S    
C20   C21   A    
C16   O22   S    
C20   C33   A    
C52   H14   S    
Ba1   O10   S    
C34   H5    S    
C9    C10   D    
