data_mof_unit_38234.cif
_audit_creation_date              2012-12-10T16:42:35-0500
_audit_creation_method            fapswitch 2.2
_symmetry_space_group_name_H-M    P1
_symmetry_Int_Tables_number       1
_space_group_crystal_system       triclinic
_cell_length_a                    7.560949
_cell_length_b                    8.771231
_cell_length_c                    11.085623
_cell_angle_alpha                 86.912632
_cell_angle_beta                  71.659775
_cell_angle_gamma                 103.231822
_cell_volume                      672.981782837

loop_
_atom_site_label
_atom_site_type_symbol
_atom_type_description
_atom_site_fract_x
_atom_site_fract_y
_atom_site_fract_z
_atom_type_partial_charge
C1    C     C_R   0.451982 0.200256 0.504930 0.862336
C2    C     C_2   0.576814 0.968458 0.481557 -0.031284
C3    C     C_2   0.305282 0.341981 0.140794 0.452362
C4    C     C_2   0.694713 0.658023 0.859208 0.452360
C5    C     C_2   0.891764 0.334324 0.632860 0.636039
C6    C     C_2   0.108237 0.665654 0.367122 0.636030
C7    C     C_R   0.548018 0.799744 0.495070 0.862336
C8    C     C_R   0.422697 0.495866 0.741895 0.885760
C9    C     C_R   0.577303 0.504134 0.258105 0.885765
C10   C     C_2   0.377747 0.481678 0.879973 -0.329946
C11   C     C_2   0.622253 0.518320 0.120026 -0.329953
C12   C     C_2   0.514742 0.533302 0.933264 -0.059675
C13   C     C_2   0.485256 0.466698 0.066737 -0.059671
C14   C     C_2   0.423186 0.031542 0.518442 -0.031290
Cu1   Cu    Cu3+1 0.688910 0.517800 0.485820 1.002049
Cu2   Cu    Cu3+1 0.311090 0.482200 0.514180 1.002047
H1    H     H_    0.764097 0.592055 0.064712 0.125643
H2    H     H_    0.260287 0.692834 0.346224 0.075652
H3    H     H_    0.235904 0.407940 0.935287 0.125632
H4    H     H_    0.165174 0.353073 0.141323 0.059753
H5    H     H_    0.834822 0.646935 0.858679 0.059741
H6    H     H_    0.145763 0.956609 0.523370 0.252713
H7    H     H_    0.171870 0.969198 0.669108 0.247444
H8    H     H_    0.854238 0.043391 0.476626 0.252722
H9    H     H_    0.828127 0.030802 0.330889 0.247426
H10   H     H_    0.739708 0.307185 0.653787 0.075650
N1    N     N_2   0.027170 0.455360 0.535550 -0.205046
N2    N     N_2   0.972830 0.544640 0.464450 -0.205043
N3    N     N_3   0.228699 0.935092 0.578957 -0.554161
N4    N     N_3   0.771301 0.064908 0.421040 -0.554161
O1    O     O_R   0.622710 0.286400 0.490790 -0.606809
O2    O     O_2   0.686504 0.774407 0.797627 -0.530872
O3    O     O_2   0.949740 0.254495 0.697813 -0.559051
O4    O     O_2   0.050264 0.745419 0.302119 -0.559049
O5    O     O_R   0.377290 0.713600 0.509210 -0.606809
O6    O     O_R   0.303660 0.256330 0.514730 -0.548581
O7    O     O_R   0.696340 0.743670 0.485270 -0.548611
O8    O     O_R   0.600900 0.509520 0.671740 -0.620834
O9    O     O_R   0.399100 0.490480 0.328260 -0.620832
O10   O     O_R   0.281840 0.479450 0.695690 -0.553465
O11   O     O_R   0.718160 0.520550 0.304310 -0.553429
O12   O     O_2   0.313488 0.225595 0.202374 -0.530890

loop_
_geom_bond_atom_site_label_1
_geom_bond_atom_site_label_2
_ccdc_geom_bond_type
C3    O12   D    
Cu1   O1    S    
H6    N3    S    
C6    N2    S    
C5    H10   S    
C4    C12   S    
C9    C11   S    
Cu2   O9    S    
C9    O11   A    
C2    C7    S    
C3    C13   S    
C9    O9    A    
C10   H3    S    
C2    N4    S    
Cu2   N1    S    
C7    O7    A    
C3    H4    S    
Cu1   O8    S    
Cu2   O6    S    
C4    H5    S    
C11   C13   D    
Cu1   N2    S    
C4    O2    D    
C8    O8    A    
Cu2   O10   S    
C2    C14   D    
C10   C12   D    
Cu2   O5    S    
C6    H2    S    
H8    N4    S    
C14   N3    S    
Cu1   Cu2   S    
H7    N3    S    
C1    O1    A    
C12   C13   S    
Cu1   O11   S    
C8    C10   S    
N1    N2    D    
H9    N4    S    
C1    C14   S    
C8    O10   A    
C5    N1    S    
C7    O5    A    
C11   H1    S    
Cu1   O7    S    
C6    O4    D    
C1    O6    A    
C5    O3    D    
