data_mof_unit_25111.cif
_audit_creation_date              2012-12-10T18:43:09-0500
_audit_creation_method            fapswitch 2.2
_symmetry_space_group_name_H-M    P1
_symmetry_Int_Tables_number       1
_space_group_crystal_system       triclinic
_cell_length_a                    10.771363
_cell_length_b                    9.841701
_cell_length_c                    10.701176
_cell_angle_alpha                 90.038219
_cell_angle_beta                  91.107466
_cell_angle_gamma                 91.964264
_cell_volume                      1133.53661148

loop_
_atom_site_label
_atom_site_type_symbol
_atom_type_description
_atom_site_fract_x
_atom_site_fract_y
_atom_site_fract_z
_atom_type_partial_charge
C1    C     C_R   0.260504 0.497971 0.505178 0.870938
C2    C     C_R   0.932550 0.395030 0.456153 -0.207901
C3    C     C_R   0.873948 0.506634 0.506863 -0.078731
C4    C     C_R   0.129038 0.495284 0.517163 -0.067194
C5    C     C_R   0.943744 0.613717 0.566199 -0.084121
C6    C     C_R   0.072516 0.603186 0.577509 -0.052258
C7    C     C_R   0.572444 0.075603 0.582415 -0.197482
C8    C     C_R   0.424550 0.069583 0.419122 -0.265759
C9    C     C_R   0.566869 0.931941 0.588277 0.479895
C10   C     C_R   0.425586 0.923475 0.416190 0.485497
C11   C     C_R   0.890648 0.742197 0.609708 0.183484
C12   C     C_R   0.740553 0.502493 0.502142 0.863749
C13   C     C_R   0.881282 0.849414 0.523586 -0.104322
C14   C     C_R   0.879853 0.983991 0.565453 -0.141512
C15   C     C_R   0.887857 0.012538 0.693374 -0.095028
C16   C     C_R   0.892609 0.906230 0.779876 -0.085088
C17   C     C_R   0.891279 0.771314 0.738481 -0.089858
C18   C     C_R   0.146199 0.701908 0.657643 0.136146
C19   C     C_R   0.179790 0.665404 0.780084 -0.163637
C20   C     C_R   0.232426 0.762883 0.861983 -0.152326
C21   C     C_R   0.252255 0.897032 0.822044 -0.168917
C22   C     C_R   0.224786 0.932453 0.698413 -0.163548
C23   C     C_R   0.492657 0.499761 0.262548 0.938866
C24   C     C_R   0.172155 0.835228 0.616220 -0.053796
C25   C     C_3   0.580597 0.865464 0.794169 0.110830
C26   C     C_3   0.593788 0.000564 0.866281 -0.430960
C27   C     C_3   0.573064 0.978408 0.005541 -0.973515
C28   C     C_3   0.300033 0.906596 0.231840 0.061850
C29   C     C_3   0.167868 0.953513 0.253533 -0.370848
C30   C     C_3   0.114271 0.021116 0.137105 -0.975666
C31   C     C_R   0.499418 0.499636 0.737713 0.917940
C32   C     C_2   0.456596 0.388693 0.931270 -0.158156
C33   C     C_2   0.462291 0.385034 0.066197 -0.169152
C34   C     C_2   0.500331 0.498037 0.870132 -0.336206
C35   C     C_2   0.468908 0.500594 0.131525 -0.338475
C36   C     C_R   0.059626 0.390459 0.459364 -0.219472
H1    H     H_    0.421633 0.298172 0.882066 0.162427
H2    H     H_    0.876119 0.066274 0.498628 0.123879
H3    H     H_    0.889258 0.116896 0.725479 0.115700
H4    H     H_    0.898764 0.928378 0.878932 0.118089
H5    H     H_    0.902066 0.690557 0.806121 0.101532
H6    H     H_    0.161078 0.562908 0.813209 0.121960
H7    H     H_    0.256463 0.734510 0.956701 0.124286
H8    H     H_    0.291427 0.972831 0.886101 0.137970
H9    H     H_    0.242569 0.035617 0.666775 0.135562
H10   H     H_    0.148010 0.864495 0.521689 0.127271
H11   H     H_    0.627555 0.786972 0.850271 0.167673
H12   H     H_    0.465390 0.286339 0.111313 0.166138
H13   H     H_    0.481354 0.832969 0.786080 0.161990
H14   H     H_    0.687443 0.048267 0.854186 0.237490
H15   H     H_    0.523321 0.071525 0.830885 0.207817
H16   H     H_    0.481978 0.925234 0.019956 0.249319
H17   H     H_    0.574410 0.077882 0.054505 0.265905
H18   H     H_    0.647781 0.916270 0.046523 0.268077
H19   H     H_    0.294919 0.829054 0.156551 0.156748
H20   H     H_    0.362210 0.989583 0.195852 0.116433
H21   H     H_    0.107250 0.864167 0.278136 0.225688
H22   H     H_    0.167365 0.026441 0.332679 0.203809
H23   H     H_    0.540774 0.586944 0.916521 0.128047
H24   H     H_    0.173582 0.110614 0.110374 0.264732
H25   H     H_    0.019501 0.055788 0.156428 0.263113
H26   H     H_    0.107952 0.947774 0.058142 0.268881
H27   H     H_    0.454213 0.599192 0.089472 0.146686
H28   H     H_    0.103735 0.306861 0.413776 0.155642
H29   H     H_    0.880042 0.312860 0.410005 0.157222
H30   H     H_    0.633425 0.133884 0.645132 0.161262
H31   H     H_    0.363849 0.126138 0.358758 0.158209
H32   H     H_    0.884942 0.829541 0.424170 0.110525
N1    N     N_R   0.500000 0.857200 0.500000 -0.152546
N2    N     N_R   0.500000 0.142810 0.500000 -0.114958
O1    O     O_R   0.316770 0.614620 0.499990 -0.575429
O2    O     O_3   0.347037 0.842211 0.340040 -0.608796
O3    O     O_R   0.683230 0.614620 0.500010 -0.595695
O4    O     O_R   0.316800 0.385290 0.500000 -0.634930
O5    O     O_R   0.683200 0.385290 0.500000 -0.622803
O6    O     O_R   0.500000 0.614630 0.319080 -0.586545
O7    O     O_R   0.500000 0.614630 0.680920 -0.613255
O8    O     O_R   0.500030 0.385300 0.319080 -0.619270
O9    O     O_R   0.499970 0.385300 0.680920 -0.621919
O10   O     O_3   0.638615 0.867485 0.676443 -0.615926
Zn1   Zn    Zn3+2 0.500000 0.653120 0.500000 1.016472
Zn2   Zn    Zn3+2 0.500000 0.346880 0.500000 0.930252

loop_
_geom_bond_atom_site_label_1
_geom_bond_atom_site_label_2
_ccdc_geom_bond_type
C4    C36   A    
C25   O10   S    
C19   C20   A    
C23   O6    A    
C2    H29   S    
C7    N2    A    
C28   H20   S    
C27   H18   S    
C26   C27   S    
C1    O1    A    
C18   C24   A    
C1    O4    A    
C28   C29   S    
C9    N1    A    
C5    C11   S    
C26   H14   S    
C5    C6    A    
C15   C16   A    
C18   C19   A    
C3    C12   S    
C16   C17   A    
C30   H24   S    
C12   O3    A    
C13   C14   A    
C25   H11   S    
C19   H6    S    
C21   C22   A    
C28   O2    S    
O4    Zn2   S    
O3    Zn1   S    
C28   H19   S    
C31   O7    A    
C25   H13   S    
C6    C18   S    
C4    C6    A    
C25   C26   S    
C9    O10   S    
C32   C34   D    
C29   C30   S    
C14   H2    S    
C21   H8    S    
O8    Zn2   S    
O7    Zn1   S    
C31   C34   S    
C32   H1    S    
C20   C21   A    
C15   H3    S    
C16   H4    S    
C29   H21   S    
C23   C35   S    
C30   H26   S    
C34   H23   S    
C22   C24   A    
C30   H25   S    
C20   H7    S    
C27   H16   S    
C2    C36   A    
C7    C9    A    
C11   C17   A    
C3    C5    A    
O6    Zn1   S    
O9    Zn2   S    
C27   H17   S    
O5    Zn2   S    
C31   O9    A    
C8    N2    A    
C1    C4    S    
C24   H10   S    
C32   C33   S    
C2    C3    A    
C26   H15   S    
C7    H30   S    
C11   C13   A    
C33   C35   D    
C23   O8    A    
N2    Zn2   S    
C17   H5    S    
N1    Zn1   S    
C10   N1    A    
C22   H9    S    
C29   H22   S    
C8    H31   S    
C8    C10   A    
C12   O5    A    
C33   H12   S    
C14   C15   A    
C35   H27   S    
C36   H28   S    
O1    Zn1   S    
C13   H32   S    
C10   O2    S    
