data_mof_unit_43570.cif
_audit_creation_date              2012-12-11T16:57:14-0500
_audit_creation_method            fapswitch 2.2
_symmetry_space_group_name_H-M    P1
_symmetry_Int_Tables_number       1
_space_group_crystal_system       monoclinic
_cell_length_a                    14.427046
_cell_length_b                    16.298894
_cell_length_c                    6.954989
_cell_angle_alpha                 90.0
_cell_angle_beta                  99.280041
_cell_angle_gamma                 90.0
_cell_volume                      1614.02555813

loop_
_atom_site_label
_atom_site_type_symbol
_atom_type_description
_atom_site_fract_x
_atom_site_fract_y
_atom_site_fract_z
_atom_type_partial_charge
O1    O     O_R   0.584990 0.413650 0.534420 -0.542038
O2    O     O_R   0.584990 0.586350 0.534420 -0.542041
O3    O     O_R   0.596190 0.585230 0.208380 -0.540600
O4    O     O_R   0.596190 0.414770 0.208380 -0.540602
O5    O     O_R   0.415010 0.586420 0.976930 -0.546636
O6    O     O_R   0.415010 0.413580 0.976930 -0.546636
C1    C     C_R   0.618919 0.614277 0.384694 0.702088
C2    C     C_R   0.618920 0.385724 0.384694 0.702087
O7    O     O_3   0.440560 0.500000 0.319140 -0.365518
V1    V     V_3+5 0.511030 0.500000 0.068070 1.383767
O8    O     O_R   0.403810 0.414840 0.643540 -0.537791
O9    O     O_R   0.403810 0.585160 0.643540 -0.537791
C3    C     C_R   0.380030 0.386928 0.804759 0.645201
C4    C     C_R   0.380030 0.613072 0.804759 0.645199
V2    V     V_3+5 0.488970 0.500000 0.560620 1.406661
O10   O     O_3   0.559440 0.500000 0.859420 -0.386584
H1    H     H_    0.171990 0.794714 0.814475 0.157556
H2    H     H_    0.171990 0.205285 0.814475 0.157555
H3    H     H_    0.334494 0.704234 0.093468 0.155698
H4    H     H_    0.334494 0.295766 0.093468 0.155698
C5    C     C_2   0.305529 0.677714 0.792452 0.147943
C6    C     C_2   0.305529 0.322286 0.792452 0.147943
C7    C     C_2   0.290643 0.717990 0.955109 -0.107687
C8    C     C_2   0.290643 0.282010 0.955109 -0.107687
C9    C     C_2   0.201096 0.821926 0.114996 0.148200
C10   C     C_2   0.201096 0.178074 0.114996 0.148201
C11   C     C_2   0.215897 0.781186 0.952899 -0.105878
C12   C     C_2   0.215897 0.218813 0.952899 -0.105879
C13   C     C_R   0.749962 0.692963 0.594728 0.081106
C14   C     C_R   0.749967 0.307040 0.594722 0.081121
C15   C     C_R   0.689880 0.681881 0.416332 -0.152221
C16   C     C_R   0.689882 0.318120 0.416330 -0.152221
C17   C     C_R   0.699014 0.738377 0.266581 -0.109287
C18   C     C_R   0.699017 0.261625 0.266578 -0.109304
H5    H     H_    0.652765 0.733839 0.128635 0.128342
H6    H     H_    0.652768 0.266164 0.128631 0.128329
C19   C     C_R   0.763294 0.804542 0.297212 -0.175427
C20   C     C_R   0.763296 0.195459 0.297210 -0.175420
H7    H     H_    0.766173 0.847917 0.180782 0.123078
H8    H     H_    0.766174 0.152085 0.180778 0.123077
C21   C     C_R   0.818203 0.818112 0.480938 -0.112004
C22   C     C_R   0.818203 0.181888 0.480937 -0.111997
C23   C     C_R   0.809021 0.761588 0.627034 0.061467
C24   C     C_R   0.809024 0.238415 0.627029 0.061452
C25   C     C_3   0.784102 0.778460 0.822546 -0.400325
C26   C     C_3   0.784113 0.221550 0.822553 -0.400333
C27   C     C_3   0.725432 0.700533 0.795045 0.131688
C28   C     C_3   0.725449 0.299480 0.795050 0.131699
H9    H     H_    0.740246 0.834636 0.821677 0.129128
H10   H     H_    0.740255 0.165377 0.821700 0.129129
H11   H     H_    0.845603 0.777838 0.940769 0.182395
H12   H     H_    0.845619 0.222174 0.940767 0.182406
H13   H     H_    0.649234 0.711335 0.794487 0.085032
H14   H     H_    0.649251 0.288684 0.794513 0.085032
O11   O     O_R   0.921430 0.915960 0.371040 -0.536337
O12   O     O_R   0.921430 0.084040 0.371040 -0.536336
O13   O     O_R   0.910450 0.087500 0.697310 -0.543729
O14   O     O_R   0.910450 0.912500 0.697310 -0.543729
O15   O     O_R   0.091710 0.087460 0.928430 -0.548423
O16   O     O_R   0.091710 0.912540 0.928430 -0.548423
C29   C     C_R   0.886283 0.112795 0.518285 0.699164
C30   C     C_R   0.886283 0.887204 0.518286 0.699164
O17   O     O_3   0.065970 0.000000 0.586140 -0.367835
V3    V     V_3+5 0.995640 1.000000 0.837400 1.404171
O18   O     O_R   0.103020 0.915700 0.261710 -0.536878
O19   O     O_R   0.103020 0.084300 0.261710 -0.536878
C31   C     C_R   0.126737 0.886770 0.101293 0.645854
C32   C     C_R   0.126737 0.113230 0.101293 0.645855
V4    V     V_3+5 0.017940 0.000000 0.344880 1.420309
O20   O     O_3   0.947330 1.000000 0.046180 -0.370489
N1    N     N_2   0.762941 0.634134 0.925586 -0.490673
H15   H     H_    0.716637 0.586072 0.926114 0.274595
C33   C     C_3   0.858940 0.606685 0.928651 -0.508721
H16   H     H_    0.880301 0.568314 0.059508 0.187541
H17   H     H_    0.909415 0.658180 0.939207 0.198140
H18   H     H_    0.864212 0.571010 0.795082 0.180701
N2    N     N_2   0.762972 0.365880 0.925575 -0.490669
H19   H     H_    0.716670 0.413940 0.926137 0.274585
C34   C     C_3   0.858968 0.393328 0.928577 -0.508729
H20   H     H_    0.880357 0.431681 0.059456 0.187544
H21   H     H_    0.864213 0.429023 0.795023 0.180697
H22   H     H_    0.909438 0.341832 0.939044 0.198142
O21   O     O_3   0.257388 0.804020 0.290408 -0.634269
H23   H     H_    0.241598 0.841808 0.391756 0.317455
O22   O     O_3   0.257388 0.195981 0.290408 -0.634269
H24   H     H_    0.241597 0.158193 0.391757 0.317456
O23   O     O_3   0.249179 0.696010 0.617317 -0.633945
H25   H     H_    0.264733 0.658373 0.515452 0.318267
O24   O     O_3   0.249179 0.303990 0.617317 -0.633945
H26   H     H_    0.264733 0.341627 0.515452 0.318267

loop_
_geom_bond_atom_site_label_1
_geom_bond_atom_site_label_2
_ccdc_geom_bond_type
O14   C30   A    
O19   C32   A    
O23   H25   S    
C5    O23   S    
O1    C2    A    
C33   H17   S    
C33   H16   S    
O2    C1    A    
C9    C31   S    
O4    C2    A    
N2    H19   S    
C28   H14   S    
O15   V3    S    
C13   C27   S    
C4    C5    S    
C14   C28   S    
C20   C22   A    
O3    C1    A    
O19   V4    S    
C25   H11   S    
V2    O10   S    
O11   C30   A    
C26   H12   S    
O8    V2    S    
H4    C8    S    
O16   C31   A    
O18   C31   A    
C15   C17   A    
O1    V2    S    
V3    O20   S    
C14   C16   A    
O7    V1    S    
C27   H13   S    
C25   C27   S    
C13   C23   A    
C21   C23   A    
C14   C24   A    
C22   C24   A    
C21   C30   S    
C24   C26   S    
N2    C34   S    
O14   V3    S    
C26   C28   S    
C1    C15   S    
C2    C16   S    
O17   V4    S    
H2    C12   S    
N1    C33   S    
O22   H24   S    
C17   C19   A    
C34   H20   S    
H1    C11   S    
C28   N2    S    
H3    C7    S    
O15   C32   A    
O21   H23   S    
O9    V2    S    
C25   H9    S    
O2    V2    S    
C23   C25   S    
C22   C29   S    
C27   N1    S    
O5    C4    A    
O11   V4    S    
O9    C4    A    
C7    C11   S    
C5    C7    D    
C33   H18   S    
C6    C8    D    
O4    V1    S    
O13   V3    S    
C34   H21   S    
C18   C20   A    
C8    C12   S    
O6    V1    S    
C34   H22   S    
O13   C29   A    
C9    C11   D    
C26   H10   S    
C10   C12   D    
O16   V3    S    
C10   C32   S    
O7    V2    S    
N1    H15   S    
C19   H7    S    
O3    V1    S    
V1    O10   S    
O6    C3    A    
C20   H8    S    
O8    C3    A    
C10   O22   S    
O18   V4    S    
C17   H5    S    
C6    O24   S    
C3    C6    S    
C18   H6    S    
C19   C21   A    
V4    O20   S    
O17   V3    S    
O5    V1    S    
C13   C15   A    
O12   V4    S    
C9    O21   S    
O12   C29   A    
O24   H26   S    
C16   C18   A    
