data_mof_unit_25648.cif
_audit_creation_date              2012-12-10T19:44:42-0500
_audit_creation_method            fapswitch 2.2
_symmetry_space_group_name_H-M    P1
_symmetry_Int_Tables_number       1
_space_group_crystal_system       triclinic
_cell_length_a                    18.411844
_cell_length_b                    18.464178
_cell_length_c                    34.15028
_cell_angle_alpha                 89.883796
_cell_angle_beta                  89.917138
_cell_angle_gamma                 90.335724
_cell_volume                      11609.478811

loop_
_atom_site_label
_atom_site_type_symbol
_atom_type_description
_atom_site_fract_x
_atom_site_fract_y
_atom_site_fract_z
_atom_type_partial_charge
C1    C     C_R   0.999975 0.498611 0.894427 0.818843
C2    C     C_R   0.463784 0.053778 0.291320 0.047383
C3    C     C_R   0.311513 0.796933 0.009760 -0.170260
C4    C     C_R   0.705367 0.185185 0.509583 -0.155998
C5    C     C_R   0.808169 0.700471 0.504852 -0.170613
C6    C     C_R   0.294778 0.814736 0.510703 -0.162828
C7    C     C_R   0.192939 0.300522 0.504380 -0.173098
C8    C     C_R   0.305865 0.197437 0.501333 -0.182804
C9    C     C_R   0.188811 0.702712 0.509920 -0.170763
C10   C     C_R   0.694551 0.802846 0.501181 -0.179809
C11   C     C_R   0.812037 0.297035 0.509719 -0.160639
C12   C     C_R   0.212704 0.729600 0.044228 0.058572
C13   C     C_R   0.934046 0.484847 0.291537 0.051172
C14   C     C_R   0.259657 0.205577 0.037669 0.069322
C15   C     C_R   0.787752 0.269305 0.044403 0.059061
C16   C     C_R   0.739165 0.793266 0.037458 0.067281
C17   C     C_R   0.803112 0.750592 0.032842 0.072544
C18   C     C_R   0.739006 0.207627 0.042127 0.087787
C19   C     C_R   0.195978 0.248453 0.032626 0.073196
C20   C     C_R   0.261179 0.791499 0.042173 0.087137
C21   C     C_R   0.713813 0.229238 0.544419 0.070647
C22   C     C_R   0.750350 0.698458 0.532863 0.055032
C23   C     C_R   0.290003 0.766598 0.544267 0.062993
C24   C     C_R   0.528217 0.937137 0.291238 0.058656
C25   C     C_R   0.251402 0.303466 0.531964 0.049306
C26   C     C_R   0.314662 0.261893 0.523944 0.094142
C27   C     C_R   0.240546 0.705542 0.541788 0.089809
C28   C     C_R   0.686827 0.739397 0.524792 0.086217
C29   C     C_R   0.763996 0.290177 0.542988 0.079626
C30   C     C_3   0.340494 0.728748 0.944023 0.277578
C31   C     C_3   0.274145 0.336406 0.939869 0.281022
C32   C     C_3   0.659717 0.274488 0.944458 0.303827
C33   C     C_3   0.727699 0.664904 0.938408 0.276137
C34   C     C_3   0.673898 0.728882 0.934772 0.245694
C35   C     C_R   0.496817 0.000085 0.770973 -0.030689
C36   C     C_3   0.722445 0.329977 0.941372 0.245033
C37   C     C_3   0.328081 0.272588 0.936651 0.235195
C38   C     C_3   0.276948 0.674357 0.939948 0.248498
C39   C     C_3   0.841455 0.226643 0.443838 0.274901
C40   C     C_3   0.779394 0.842390 0.442817 0.278514
C41   C     C_3   0.156586 0.779010 0.446482 0.299880
C42   C     C_3   0.220245 0.155667 0.444327 0.270811
C43   C     C_3   0.167272 0.219465 0.440032 0.243409
C44   C     C_3   0.220162 0.833420 0.443215 0.246191
C45   C     C_3   0.833448 0.779168 0.439517 0.235217
C46   C     C_R   0.996915 0.495391 0.770734 -0.025926
C47   C     C_3   0.777166 0.172872 0.439584 0.249411
C48   C     C_R   0.430470 0.996015 0.832879 -0.010807
C49   C     C_R   0.017458 0.432617 0.832034 -0.001740
C50   C     C_R   0.565468 0.006212 0.831966 -0.009532
C51   C     C_R   0.977944 0.559568 0.831534 -0.005194
C52   C     C_R   0.932303 0.496108 0.332576 -0.009996
C53   C     C_R   0.515009 0.932138 0.331944 -0.003541
C54   C     C_R   0.067254 0.504923 0.332291 -0.009364
C55   C     C_R   0.479448 0.060298 0.331564 -0.006345
C56   C     C_R   0.498470 0.000635 0.852496 -0.043654
C57   C     C_R   0.999576 0.500099 0.271076 -0.032901
C58   C     C_R   0.999262 0.496908 0.852086 -0.064915
C59   C     C_R   0.999863 0.500393 0.352525 -0.047356
C60   C     C_R   0.499136 0.997005 0.352058 -0.064503
C61   C     C_3   0.164312 0.715018 0.080574 -0.367683
C62   C     C_3   0.201828 0.710812 0.120773 -0.418859
C63   C     C_3   0.146990 0.691734 0.153070 -0.907693
C64   C     C_3   0.276172 0.176581 0.078728 -0.381902
C65   C     C_3   0.302454 0.238177 0.105713 -0.342345
C66   C     C_3   0.283051 0.223805 0.148670 -0.934439
C67   C     C_3   0.836803 0.282364 0.080562 -0.369267
C68   C     C_R   0.496046 0.995670 0.270690 -0.026113
C69   C     C_3   0.799886 0.286027 0.120996 -0.417685
C70   C     C_3   0.855463 0.303602 0.153051 -0.909497
C71   C     C_3   0.719464 0.818543 0.078761 -0.383360
C72   C     C_3   0.690980 0.754489 0.103555 -0.341247
C73   C     C_3   0.708479 0.763362 0.147129 -0.926240
C74   C     C_3   0.871857 0.775170 0.054379 -0.346328
C75   C     C_3   0.887027 0.733157 0.092622 -0.291620
C76   C     C_3   0.916718 0.782345 0.124804 -0.946670
C77   C     C_3   0.747489 0.144828 0.071034 -0.368654
C78   C     C_3   0.683717 0.137737 0.100434 -0.304380
C79   C     C_R   0.623308 0.041351 0.768030 0.097176
C80   C     C_3   0.698571 0.077444 0.130043 -0.858174
C81   C     C_3   0.125705 0.222068 0.052230 -0.347776
C82   C     C_3   0.107715 0.260414 0.091196 -0.290973
C83   C     C_3   0.073061 0.208732 0.120860 -0.948428
C84   C     C_3   0.252230 0.853896 0.071152 -0.370615
C85   C     C_3   0.315945 0.861316 0.100428 -0.304182
C86   C     C_3   0.300706 0.921350 0.130025 -0.860404
C87   C     C_3   0.668496 0.214208 0.581699 -0.392231
C88   C     C_3   0.713305 0.198278 0.618635 -0.403663
C89   C     C_3   0.665580 0.196564 0.655383 -0.905798
C90   C     C_R   0.917866 0.601260 0.770324 0.096853
C91   C     C_3   0.757969 0.660180 0.572345 -0.343403
C92   C     C_3   0.728422 0.705570 0.606939 -0.344440
C93   C     C_3   0.774890 0.700803 0.643656 -0.960686
C94   C     C_3   0.341081 0.776150 0.579987 -0.387734
C95   C     C_3   0.306031 0.779200 0.620954 -0.405948
C96   C     C_3   0.363143 0.795918 0.652372 -0.905347
C97   C     C_3   0.244876 0.346126 0.570152 -0.350585
C98   C     C_3   0.284536 0.311442 0.605238 -0.356461
C99   C     C_3   0.247122 0.325553 0.644329 -0.943921
C100  C     C_3   0.388034 0.301749 0.524938 -0.384333
C101  C     C_R   0.369411 0.961455 0.769617 0.100170
C102  C     C_3   0.441415 0.280456 0.557911 -0.264517
C103  C     C_3   0.481990 0.346165 0.574444 -0.978894
C104  C     C_3   0.248794 0.641878 0.570256 -0.364766
C105  C     C_3   0.185806 0.635784 0.600250 -0.303604
C106  C     C_3   0.200108 0.574798 0.629517 -0.858314
C107  C     C_3   0.613241 0.700860 0.528865 -0.374586
C108  C     C_3   0.564989 0.724167 0.563696 -0.255306
C109  C     C_3   0.531261 0.659257 0.585048 -0.985715
C110  C     C_3   0.759867 0.350043 0.574149 -0.373534
C111  C     C_3   0.827818 0.357045 0.600715 -0.308511
C112  C     C_R   0.499575 0.000129 0.894518 0.816307
C113  C     C_R   0.077494 0.390297 0.770451 0.091772
C114  C     C_3   0.813646 0.411128 0.633679 -0.856991
C115  C     C_3   0.437138 0.654045 0.969941 0.195965
C116  C     C_3   0.479085 0.695653 0.001922 -0.315841
C117  C     C_3   0.498332 0.647150 0.036446 -1.073333
C118  C     C_3   0.352237 0.429804 0.966537 0.177306
C119  C     C_3   0.312906 0.473960 0.998018 -0.292504
C120  C     C_3   0.365934 0.502438 0.028719 -1.072036
C121  C     C_3   0.562597 0.347373 0.971319 0.206577
C122  C     C_3   0.520979 0.304522 0.003085 -0.327255
C123  C     C_3   0.503047 0.351751 0.038266 -1.070549
C124  C     C_R   0.126268 0.540538 0.268755 0.097336
C125  C     C_3   0.649612 0.573805 0.967869 0.178210
C126  C     C_3   0.689546 0.530537 0.999528 -0.290941
C127  C     C_3   0.636847 0.499196 0.029763 -1.055999
C128  C     C_3   0.583489 0.687679 0.892505 0.141114
C129  C     C_3   0.558541 0.752811 0.868266 -0.330330
C130  C     C_3   0.517152 0.729218 0.831733 -0.978396
C131  C     C_3   0.696824 0.416055 0.893910 0.127304
C132  C     C_3   0.768084 0.451925 0.880913 -0.288952
C133  C     C_3   0.771996 0.459502 0.836515 -1.033539
C134  C     C_3   0.417882 0.312356 0.893220 0.134371
C135  C     C_R   0.419995 0.103701 0.270473 0.097841
C136  C     C_3   0.435841 0.246184 0.868112 -0.339112
C137  C     C_3   0.472049 0.268173 0.829649 -0.983344
C138  C     C_3   0.317755 0.596891 0.891030 0.145102
C139  C     C_3   0.251176 0.583638 0.865106 -0.361936
C140  C     C_3   0.272696 0.577277 0.822094 -1.013594
C141  C     C_3   0.933667 0.151178 0.473676 0.207201
C142  C     C_3   0.974596 0.193480 0.505719 -0.312233
C143  C     C_3   0.993733 0.145137 0.540291 -1.077427
C144  C     C_3   0.854970 0.934732 0.472543 0.189192
C145  C     C_3   0.812641 0.976814 0.503714 -0.321611
C146  C     C_R   0.872784 0.459889 0.269435 0.097405
C147  C     C_3   0.861115 0.997237 0.538223 -1.068429
C148  C     C_3   0.062743 0.851767 0.476756 0.215063
C149  C     C_3   0.021988 0.806610 0.507886 -0.324098
C150  C     C_3   0.003917 0.851752 0.543823 -1.071606
C151  C     C_3   0.143399 0.066449 0.476392 0.197443
C152  C     C_3   0.185225 0.026266 0.508625 -0.320492
C153  C     C_3   0.135803 0.008069 0.543241 -1.053494
C154  C     C_3   0.078449 0.177746 0.397055 0.148529
C155  C     C_3   0.054749 0.242932 0.372492 -0.326875
C156  C     C_3   0.016389 0.219292 0.335028 -0.983791
C157  C     C_R   0.572580 0.887518 0.270105 0.092791
C158  C     C_3   0.194731 0.922847 0.397583 0.141216
C159  C     C_3   0.266428 0.957746 0.384485 -0.278567
C160  C     C_3   0.268551 0.969262 0.340299 -1.043243
C161  C     C_3   0.923794 0.820998 0.397108 0.146580
C162  C     C_3   0.944456 0.755520 0.372081 -0.333371
C163  C     C_3   0.981542 0.778783 0.334079 -0.985604
C164  C     C_3   0.819735 0.090639 0.393582 0.150343
C165  C     C_3   0.754840 0.075070 0.366808 -0.354910
C166  C     C_3   0.779107 0.065409 0.324423 -1.014285
C167  C     C_3   0.356603 0.003386 0.854006 -0.456104
C168  C     C_R   0.128426 0.524029 0.228815 -0.262451
C169  C     C_3   0.350122 0.052440 0.890224 -0.298962
C170  C     C_3   0.271217 0.073039 0.898318 -0.963592
C171  C     C_3   0.015782 0.358865 0.852533 -0.431769
C172  C     C_3   0.942421 0.340730 0.871914 -0.354350
C173  C     C_3   0.936729 0.260550 0.882710 -0.930923
C174  C     C_3   0.640192 0.000980 0.852254 -0.454573
C175  C     C_3   0.649255 0.948937 0.887197 -0.298137
C176  C     C_3   0.728799 0.928930 0.893674 -0.961493
C177  C     C_3   0.981779 0.633832 0.851321 -0.441478
C178  C     C_3   0.060601 0.655969 0.860148 -0.342736
C179  C     C_R   0.428111 0.108407 0.229899 -0.250181
C180  C     C_3   0.064654 0.730738 0.879026 -0.916721
C181  C     C_3   0.858230 0.503913 0.353339 -0.455621
C182  C     C_3   0.851506 0.557655 0.387543 -0.294397
C183  C     C_3   0.772813 0.580721 0.394150 -0.964579
C184  C     C_3   0.511273 0.858427 0.352448 -0.432130
C185  C     C_3   0.437716 0.842444 0.372161 -0.352820
C186  C     C_3   0.428871 0.762065 0.381936 -0.933548
C187  C     C_3   0.141425 0.497484 0.352856 -0.456163
C188  C     C_3   0.148491 0.442476 0.386573 -0.294255
C189  C     C_3   0.227217 0.419154 0.392695 -0.962978
C190  C     C_R   0.870546 0.475584 0.229379 -0.263827
C191  C     C_3   0.485200 0.134395 0.351412 -0.441924
C192  C     C_3   0.564556 0.154866 0.359982 -0.340649
C193  C     C_3   0.570318 0.229634 0.378759 -0.917328
C194  C     C_3   0.678485 0.097842 0.782039 -0.431167
C195  C     C_3   0.640724 0.165684 0.798050 -0.317390
C196  C     C_3   0.695820 0.221753 0.812352 -0.911845
C197  C     C_3   0.855424 0.642090 0.789313 -0.452594
C198  C     C_3   0.781854 0.623627 0.770401 -0.317158
C199  C     C_3   0.718990 0.655288 0.793892 -0.917031
C200  C     C_3   0.311122 0.909376 0.785063 -0.427705
C201  C     C_R   0.567076 0.886082 0.229289 -0.266309
C202  C     C_3   0.344508 0.840896 0.803215 -0.320865
C203  C     C_3   0.286866 0.794480 0.823578 -0.919801
C204  C     C_3   0.141863 0.350999 0.788899 -0.435997
C205  C     C_3   0.194514 0.404793 0.807933 -0.308197
C206  C     C_3   0.260410 0.366414 0.824930 -0.908492
C207  C     C_3   0.181901 0.596060 0.283384 -0.430739
C208  C     C_3   0.144757 0.663798 0.299960 -0.318875
C209  C     C_3   0.200345 0.718751 0.314978 -0.910764
C210  C     C_3   0.358740 0.146142 0.289568 -0.453374
C211  C     C_3   0.284490 0.129053 0.271069 -0.320232
C212  C     C_R   0.625240 0.024040 0.728208 -0.259702
C213  C     C_3   0.222916 0.164561 0.293943 -0.910110
C214  C     C_3   0.816317 0.405686 0.284768 -0.427605
C215  C     C_3   0.852224 0.338385 0.302761 -0.320159
C216  C     C_3   0.795918 0.287456 0.320964 -0.915784
C217  C     C_3   0.635510 0.845311 0.288223 -0.433736
C218  C     C_3   0.689877 0.896062 0.308365 -0.309175
C219  C     C_3   0.752772 0.854034 0.326224 -0.914128
C220  C     C_3   0.130450 0.454124 0.149391 -0.416920
C221  C     C_3   0.177572 0.507432 0.126266 -0.356237
C222  C     C_3   0.239785 0.468268 0.106209 -0.919068
C223  C     C_R   0.499958 0.998580 0.394417 0.819640
C224  C     C_R   0.926035 0.606019 0.729772 -0.248914
C225  C     C_3   0.470556 0.134889 0.147133 -0.415613
C226  C     C_3   0.523902 0.192406 0.162756 -0.343073
C227  C     C_3   0.525996 0.259448 0.136532 -0.929172
C228  C     C_3   0.867599 0.542674 0.149265 -0.421745
C229  C     C_3   0.820312 0.487319 0.127873 -0.356338
C230  C     C_3   0.754146 0.523578 0.109986 -0.915960
C231  C     C_3   0.527536 0.863204 0.145895 -0.412442
C232  C     C_3   0.474309 0.804856 0.161026 -0.341453
C233  C     C_3   0.471235 0.739326 0.133866 -0.931441
C234  C     C_3   0.628291 0.956005 0.648544 -0.407077
C235  C     C_R   0.367195 0.976810 0.729481 -0.262503
C236  C     C_3   0.668133 0.011795 0.622972 -0.361672
C237  C     C_3   0.691278 0.980310 0.583813 -0.878886
C238  C     C_3   0.969432 0.633475 0.647297 -0.409948
C239  C     C_3   0.022668 0.690957 0.662997 -0.348220
C240  C     C_3   0.024273 0.758053 0.636877 -0.924995
C241  C     C_3   0.364296 0.042534 0.648892 -0.405278
C242  C     C_3   0.308354 0.988109 0.632746 -0.381766
C243  C     C_3   0.315070 0.977538 0.588609 -0.827949
C244  C     C_3   0.039136 0.365470 0.645764 -0.404891
C245  C     C_3   0.991953 0.301806 0.660458 -0.352492
C246  C     C_R   0.073306 0.389177 0.729598 -0.262036
C247  C     C_3   0.994368 0.238151 0.632127 -0.930125
C248  C     C_R   0.065357 0.502738 0.209186 0.068344
C249  C     C_R   0.468401 0.056801 0.209157 0.064830
C250  C     C_R   0.933569 0.496331 0.209363 0.068944
C251  C     C_R   0.527104 0.938239 0.208798 0.073806
C252  C     C_R   0.562281 0.001378 0.709009 0.065709
C253  C     C_R   0.967761 0.555398 0.709146 0.063772
C254  C     C_R   0.430411 0.995742 0.709193 0.058694
C255  C     C_R   0.000028 0.500095 0.394539 0.817899
C256  C     C_R   0.031167 0.439338 0.708935 0.074105
C257  C     C_R   0.999494 0.499715 0.229891 0.024446
C258  C     C_R   0.496956 0.996756 0.229507 0.008728
C259  C     C_R   0.496467 0.998840 0.729750 0.022757
C260  C     C_R   0.998147 0.496412 0.729561 0.007988
C261  C     C_R   0.065181 0.489361 0.168713 0.000406
C262  C     C_R   0.478877 0.062266 0.168378 0.008773
C263  C     C_R   0.933625 0.509295 0.168778 0.002276
C264  C     C_R   0.518899 0.934955 0.167840 0.007846
C265  C     C_R   0.561950 0.987690 0.668686 0.000086
C266  C     C_R   0.562665 0.016446 0.790842 0.050510
C267  C     C_R   0.978172 0.560986 0.668409 0.013248
C268  C     C_R   0.430349 0.008231 0.668429 0.026933
C269  C     C_R   0.023753 0.435753 0.667913 0.008079
C270  C     C_R   0.999481 0.499616 0.148188 -0.080461
C271  C     C_R   0.499538 0.999168 0.147897 -0.084438
C272  C     C_R   0.496628 0.999033 0.648076 -0.087225
C273  C     C_R   0.000406 0.498599 0.647933 -0.089177
C274  C     C_R   0.999662 0.499899 0.105654 0.823342
C275  C     C_R   0.499922 0.000006 0.105549 0.792369
C276  C     C_R   0.498129 0.999833 0.605614 0.861005
C277  C     C_R   0.962795 0.552548 0.791268 0.045843
C278  C     C_R   0.000049 0.499513 0.605557 0.791860
C279  C     C_R   0.860777 0.640929 0.999905 0.807570
C280  C     C_R   0.360894 0.858665 0.001832 0.781317
C281  C     C_R   0.139381 0.359053 0.999953 0.805209
C282  C     C_R   0.639172 0.141338 0.001741 0.782189
C283  C     C_R   0.142433 0.637718 0.002017 0.804061
C284  C     C_R   0.638437 0.858625 0.001306 0.807266
C285  C     C_R   0.857502 0.362425 0.002244 0.804382
C286  C     C_R   0.361564 0.141544 0.001437 0.808391
C287  C     C_R   0.361661 0.141647 0.499161 0.808262
C288  C     C_R   0.431401 0.985232 0.791687 0.048118
C289  C     C_R   0.861259 0.358572 0.501945 0.784312
C290  C     C_R   0.638404 0.858313 0.499097 0.805681
C291  C     C_R   0.139180 0.641326 0.501751 0.783393
C292  C     C_R   0.642459 0.137514 0.502204 0.808120
C293  C     C_R   0.139382 0.359012 0.500877 0.805725
C294  C     C_R   0.357598 0.862356 0.502379 0.808284
C295  C     C_R   0.860901 0.641301 0.501062 0.805415
C296  C     C_R   0.263591 0.686287 0.983176 -0.021891
C297  C     C_R   0.308741 0.257668 0.978727 -0.030868
C298  C     C_R   0.736166 0.314772 0.984099 -0.020421
C299  C     C_R   0.030861 0.438042 0.791380 0.058145
C300  C     C_R   0.694976 0.746157 0.976368 -0.038707
C301  C     C_R   0.744361 0.691995 0.978550 -0.089505
C302  C     C_R   0.683830 0.262640 0.985580 -0.110508
C303  C     C_R   0.258869 0.311793 0.980824 -0.090281
C304  C     C_R   0.316278 0.738060 0.985236 -0.101040
C305  C     C_R   0.760929 0.188973 0.482044 -0.034239
C306  C     C_R   0.812634 0.762142 0.481195 -0.022172
C307  C     C_R   0.235836 0.815409 0.485363 -0.028924
C308  C     C_R   0.187603 0.237959 0.481611 -0.022753
C309  C     C_R   0.238847 0.184378 0.483977 -0.085720
C310  C     C_R   0.065197 0.515763 0.291214 0.052145
C311  C     C_R   0.183038 0.763815 0.486884 -0.108354
C312  C     C_R   0.761228 0.815646 0.483119 -0.088853
C313  C     C_R   0.814005 0.239753 0.484100 -0.101599
C314  C     C_R   0.205932 0.684727 0.009689 -0.164935
C315  C     C_R   0.310349 0.201330 0.005910 -0.152381
C316  C     C_R   0.794077 0.315398 0.010226 -0.162238
C317  C     C_R   0.690232 0.799432 0.005066 -0.143710
C318  C     C_R   0.803941 0.695663 0.003166 -0.179511
C319  C     C_R   0.688612 0.202977 0.009714 -0.169654
C320  C     C_R   0.196857 0.304916 0.003681 -0.184102
H1    H     H_    0.332169 0.778157 0.925953 0.074202
H2    H     H_    0.732837 0.836251 0.422380 0.069701
H3    H     H_    0.383998 0.734202 0.579155 0.201682
H4    H     H_    0.368004 0.829049 0.579288 0.257090
H5    H     H_    0.230930 0.383243 0.646864 0.270233
H6    H     H_    0.199048 0.289478 0.647159 0.257332
H7    H     H_    0.284780 0.312518 0.668690 0.257182
H8    H     H_    0.288806 0.251781 0.601612 0.229766
H9    H     H_    0.339467 0.335345 0.607298 0.240608
H10   H     H_    0.265035 0.402395 0.565651 0.191363
H11   H     H_    0.186482 0.348464 0.578326 0.228263
H12   H     H_    0.517121 0.370674 0.551433 0.265929
H13   H     H_    0.163151 0.732067 0.426479 0.069231
H14   H     H_    0.443797 0.387937 0.585171 0.263459
H15   H     H_    0.516795 0.328903 0.599246 0.253731
H16   H     H_    0.413794 0.250342 0.581815 0.214744
H17   H     H_    0.484029 0.244479 0.545978 0.264827
H18   H     H_    0.415729 0.293894 0.496308 0.164634
H19   H     H_    0.377618 0.361010 0.526188 0.199804
H20   H     H_    0.207345 0.522613 0.613884 0.274832
H21   H     H_    0.249691 0.586857 0.646857 0.242932
H22   H     H_    0.153519 0.568877 0.649924 0.249023
H23   H     H_    0.177964 0.687282 0.616173 0.191526
H24   H     H_    0.266598 0.159776 0.423516 0.060924
H25   H     H_    0.132733 0.625727 0.586218 0.252593
H26   H     H_    0.255866 0.590657 0.553861 0.213576
H27   H     H_    0.300979 0.644136 0.586122 0.181488
H28   H     H_    0.493720 0.629785 0.565144 0.263968
H29   H     H_    0.573605 0.621181 0.595294 0.265846
H30   H     H_    0.499952 0.678399 0.610802 0.256588
H31   H     H_    0.595097 0.758917 0.584611 0.215068
H32   H     H_    0.518771 0.756711 0.552696 0.257437
H33   H     H_    0.582107 0.708717 0.501311 0.164238
H34   H     H_    0.622677 0.641427 0.530080 0.196634
H35   H     H_    0.185553 0.262043 0.419063 0.048041
H36   H     H_    0.797768 0.464451 0.621335 0.271926
H37   H     H_    0.769624 0.390777 0.653140 0.245146
H38   H     H_    0.863279 0.419141 0.651483 0.250246
H39   H     H_    0.843915 0.304587 0.613424 0.189399
H40   H     H_    0.876801 0.374725 0.584732 0.253387
H41   H     H_    0.747840 0.402554 0.559795 0.215172
H42   H     H_    0.712175 0.343062 0.593430 0.193506
H43   H     H_    0.474497 0.613950 0.956688 0.114139
H44   H     H_    0.392640 0.621804 0.983127 0.178689
H45   H     H_    0.529410 0.719211 0.989677 0.280631
H46   H     H_    0.265191 0.815387 0.423721 0.030327
H47   H     H_    0.447243 0.740903 0.013738 0.224181
H48   H     H_    0.449047 0.635166 0.054117 0.289304
H49   H     H_    0.538706 0.674939 0.055397 0.274714
H50   H     H_    0.521730 0.595766 0.025984 0.275884
H51   H     H_    0.394599 0.464705 0.952831 0.123569
H52   H     H_    0.381514 0.384605 0.980706 0.173715
H53   H     H_    0.284199 0.519807 0.984359 0.289611
H54   H     H_    0.271405 0.440622 0.013183 0.214880
H55   H     H_    0.373951 0.461138 0.051959 0.285929
H56   H     H_    0.344032 0.552499 0.042098 0.274834
H57   H     H_    0.816108 0.735557 0.419103 0.050951
H58   H     H_    0.419475 0.515513 0.015554 0.260806
H59   H     H_    0.525105 0.387916 0.958545 0.114518
H60   H     H_    0.606869 0.379073 0.984911 0.182139
H61   H     H_    0.470140 0.281997 0.991066 0.280965
H62   H     H_    0.552680 0.258473 0.014113 0.225641
H63   H     H_    0.553016 0.363088 0.055414 0.287505
H64   H     H_    0.463258 0.323354 0.057445 0.276430
H65   H     H_    0.479470 0.403586 0.028510 0.276956
H66   H     H_    0.606275 0.539008 0.955146 0.131545
H67   H     H_    0.621612 0.620023 0.981743 0.174450
H68   H     H_    0.732774 0.192705 0.420386 0.038620
H69   H     H_    0.720853 0.486313 0.985980 0.292162
H70   H     H_    0.728923 0.565420 0.015153 0.206145
H71   H     H_    0.627350 0.539142 0.053460 0.283802
H72   H     H_    0.659941 0.449099 0.042553 0.274527
H73   H     H_    0.583782 0.485197 0.016432 0.257736
H74   H     H_    0.538474 0.647495 0.894240 0.167716
H75   H     H_    0.629252 0.659893 0.877465 0.124210
H76   H     H_    0.522852 0.787954 0.886275 0.275329
H77   H     H_    0.607001 0.784398 0.858928 0.188929
H78   H     H_    0.550970 0.692454 0.813705 0.263302
H79   H     H_    0.177167 0.536015 0.212263 0.147760
H80   H     H_    0.503433 0.777612 0.813927 0.264916
H81   H     H_    0.465926 0.701011 0.840062 0.267487
H82   H     H_    0.651723 0.454439 0.888391 0.155910
H83   H     H_    0.684853 0.366894 0.875998 0.119327
H84   H     H_    0.773218 0.506305 0.894439 0.271246
H85   H     H_    0.814458 0.419086 0.891098 0.225573
H86   H     H_    0.725813 0.492338 0.825725 0.274889
H87   H     H_    0.770246 0.405298 0.822479 0.266514
H88   H     H_    0.823701 0.486696 0.828204 0.284376
H89   H     H_    0.466099 0.348732 0.894089 0.174374
H90   H     H_    0.398940 0.150341 0.214547 0.151810
H91   H     H_    0.373739 0.344087 0.879489 0.137853
H92   H     H_    0.472727 0.209550 0.884480 0.270768
H93   H     H_    0.384799 0.216777 0.861117 0.193042
H94   H     H_    0.436697 0.305932 0.813096 0.262493
H95   H     H_    0.481267 0.219225 0.811514 0.265620
H96   H     H_    0.525253 0.294755 0.835380 0.270986
H97   H     H_    0.354558 0.549711 0.888218 0.158464
H98   H     H_    0.348952 0.644739 0.880191 0.138114
H99   H     H_    0.222817 0.533317 0.874667 0.255830
H100  H     H_    0.213168 0.629563 0.867764 0.210260
H101  H     H_    0.821497 0.463782 0.213205 0.148676
H102  H     H_    0.300882 0.627230 0.812029 0.271291
H103  H     H_    0.223158 0.569790 0.804028 0.266756
H104  H     H_    0.309382 0.530543 0.817681 0.271955
H105  H     H_    0.970665 0.109223 0.461898 0.116614
H106  H     H_    0.887508 0.120839 0.486696 0.170954
H107  H     H_    0.024820 0.217741 0.493753 0.280773
H108  H     H_    0.942088 0.238481 0.517284 0.216890
H109  H     H_    0.945030 0.135748 0.558880 0.289355
H110  H     H_    0.036698 0.171439 0.558129 0.281747
H111  H     H_    0.014177 0.092466 0.529913 0.269823
H112  H     H_    0.226087 0.329173 0.920579 0.064785
H113  H     H_    0.598421 0.846520 0.213354 0.147731
H114  H     H_    0.898178 0.970762 0.460576 0.115660
H115  H     H_    0.883445 0.888825 0.486536 0.173791
H116  H     H_    0.789464 0.026462 0.490877 0.280705
H117  H     H_    0.766801 0.943954 0.514914 0.231599
H118  H     H_    0.867163 0.950137 0.558192 0.286309
H119  H     H_    0.837002 0.042723 0.554853 0.279166
H120  H     H_    0.915431 0.014518 0.527801 0.265877
H121  H     H_    0.025166 0.893805 0.465577 0.114445
H122  H     H_    0.108054 0.882068 0.490534 0.170137
H123  H     H_    0.971197 0.784237 0.495691 0.279005
H124  H     H_    0.673351 0.036904 0.711197 0.147701
H125  H     H_    0.054306 0.760116 0.517922 0.220903
H126  H     H_    0.053879 0.862248 0.561143 0.287334
H127  H     H_    0.964059 0.822217 0.562423 0.281831
H128  H     H_    0.980098 0.904047 0.534965 0.272751
H129  H     H_    0.099773 0.030046 0.465373 0.122403
H130  H     H_    0.115473 0.113710 0.489204 0.175734
H131  H     H_    0.208653 0.975736 0.497016 0.278176
H132  H     H_    0.230864 0.059729 0.519463 0.219727
H133  H     H_    0.126049 0.057369 0.560996 0.286294
H134  H     H_    0.161133 0.966705 0.562214 0.277786
H135  H     H_    0.895856 0.647141 0.714352 0.154252
H136  H     H_    0.083205 0.985935 0.532908 0.263769
H137  H     H_    0.033189 0.137775 0.398298 0.167206
H138  H     H_    0.124676 0.149685 0.382533 0.118423
H139  H     H_    0.017485 0.277630 0.389814 0.275450
H140  H     H_    0.103552 0.275046 0.364309 0.189687
H141  H     H_    0.051875 0.182972 0.317683 0.262896
H142  H     H_    0.003615 0.267700 0.317035 0.265706
H143  H     H_    0.964858 0.190546 0.342158 0.265829
H144  H     H_    0.150401 0.962594 0.393198 0.159759
H145  H     H_    0.180944 0.875087 0.378932 0.110643
H146  H     H_    0.317669 0.966236 0.713460 0.145292
H147  H     H_    0.273980 0.010653 0.399338 0.270160
H148  H     H_    0.312174 0.922620 0.393114 0.224252
H149  H     H_    0.223266 0.004851 0.331072 0.274340
H150  H     H_    0.264015 0.916525 0.324870 0.267195
H151  H     H_    0.320899 0.995191 0.331973 0.284815
H152  H     H_    0.970897 0.858734 0.398540 0.174997
H153  H     H_    0.879224 0.851658 0.382930 0.127949
H154  H     H_    0.981561 0.719605 0.388778 0.271818
H155  H     H_    0.894464 0.724902 0.364493 0.192083
H156  H     H_    0.945818 0.815743 0.317226 0.262832
H157  H     H_    0.107397 0.351736 0.713803 0.149537
H158  H     H_    0.992729 0.730279 0.315935 0.265758
H159  H     H_    0.033809 0.806685 0.340464 0.269195
H160  H     H_    0.856637 0.043276 0.392734 0.161960
H161  H     H_    0.851681 0.137488 0.382066 0.132873
H162  H     H_    0.725999 0.025409 0.376972 0.256326
H163  H     H_    0.716572 0.121030 0.367723 0.208827
H164  H     H_    0.808960 0.114172 0.313993 0.269469
H165  H     H_    0.730681 0.057764 0.305536 0.266845
H166  H     H_    0.814969 0.017579 0.321690 0.271469
H167  H     H_    0.250209 0.108225 0.874516 0.257149
H168  H     H_    0.108802 0.737399 0.157439 0.267383
H169  H     H_    0.236733 0.023640 0.900671 0.267166
H170  H     H_    0.267795 0.103058 0.926393 0.248226
H171  H     H_    0.369165 0.023139 0.916662 0.222218
H172  H     H_    0.382064 0.102689 0.885890 0.239151
H173  H     H_    0.319028 0.028356 0.832567 0.222930
H174  H     H_    0.336513 0.948841 0.862542 0.211783
H175  H     H_    0.939184 0.226411 0.856001 0.263982
H176  H     H_    0.981561 0.245330 0.902793 0.262459
H177  H     H_    0.884156 0.249961 0.897697 0.243465
H178  H     H_    0.935623 0.371453 0.899362 0.235618
H179  H     H_    0.114671 0.642843 0.145598 0.272279
H180  H     H_    0.897590 0.354085 0.851435 0.237635
H181  H     H_    0.021935 0.315713 0.830500 0.217804
H182  H     H_    0.060482 0.355390 0.874282 0.200074
H183  H     H_    0.749137 0.895845 0.868882 0.258155
H184  H     H_    0.762683 0.978632 0.896465 0.267338
H185  H     H_    0.733966 0.896936 0.921084 0.248142
H186  H     H_    0.630999 0.975635 0.914554 0.222704
H187  H     H_    0.617731 0.898633 0.882247 0.236455
H188  H     H_    0.678746 0.979862 0.830127 0.223601
H189  H     H_    0.657637 0.055849 0.861771 0.205297
H190  H     H_    0.176069 0.681701 0.181017 0.251229
H191  H     H_    0.040890 0.772206 0.859309 0.263085
H192  H     H_    0.034896 0.730609 0.907350 0.258675
H193  H     H_    0.122296 0.745353 0.884605 0.241766
H194  H     H_    0.086270 0.616826 0.880286 0.240912
H195  H     H_    0.092375 0.656893 0.832424 0.226812
H196  H     H_    0.960766 0.677297 0.832272 0.209183
H197  H     H_    0.948603 0.633652 0.878532 0.202138
H198  H     H_    0.753483 0.613946 0.369135 0.259630
H199  H     H_    0.737156 0.532356 0.397531 0.267177
H200  H     H_    0.769019 0.613488 0.421287 0.247051
H201  H     H_    0.245738 0.669774 0.119968 0.226049
H202  H     H_    0.869180 0.531339 0.415149 0.223720
H203  H     H_    0.884780 0.606574 0.381663 0.237179
H204  H     H_    0.819788 0.525205 0.331229 0.224729
H205  H     H_    0.839489 0.449951 0.363762 0.205437
H206  H     H_    0.428932 0.729118 0.354755 0.264539
H207  H     H_    0.473638 0.743975 0.401349 0.262026
H208  H     H_    0.376409 0.753011 0.397305 0.243654
H209  H     H_    0.433062 0.872058 0.400094 0.236952
H210  H     H_    0.392960 0.858634 0.352243 0.237860
H211  H     H_    0.515646 0.815222 0.330361 0.219607
H212  H     H_    0.224752 0.762919 0.129746 0.248553
H213  H     H_    0.556199 0.853425 0.373969 0.198074
H214  H     H_    0.246436 0.387037 0.367275 0.259667
H215  H     H_    0.262869 0.467378 0.396478 0.266847
H216  H     H_    0.231129 0.385193 0.419461 0.247321
H217  H     H_    0.131006 0.467757 0.414465 0.223497
H218  H     H_    0.115144 0.393767 0.380416 0.236544
H219  H     H_    0.180295 0.477506 0.330603 0.224860
H220  H     H_    0.159378 0.551383 0.363649 0.202720
H221  H     H_    0.546721 0.271443 0.359196 0.262811
H222  H     H_    0.541317 0.230064 0.407309 0.257739
H223  H     H_    0.668704 0.226351 0.925597 0.066088
H224  H     H_    0.119263 0.754796 0.081336 0.200551
H225  H     H_    0.628303 0.243383 0.383859 0.240970
H226  H     H_    0.589582 0.115265 0.380086 0.242003
H227  H     H_    0.596068 0.155032 0.332170 0.225792
H228  H     H_    0.464953 0.178383 0.332475 0.209576
H229  H     H_    0.452352 0.134862 0.378736 0.199976
H230  H     H_    0.728623 0.199145 0.836718 0.255976
H231  H     H_    0.732492 0.238499 0.788073 0.264117
H232  H     H_    0.666797 0.270301 0.823185 0.245648
H233  H     H_    0.607122 0.190290 0.774549 0.226190
H234  H     H_    0.604293 0.151382 0.822842 0.232087
H235  H     H_    0.140507 0.660374 0.078951 0.239765
H236  H     H_    0.717842 0.076276 0.803358 0.190239
H237  H     H_    0.713180 0.115884 0.757113 0.194851
H238  H     H_    0.718336 0.632570 0.824027 0.260674
H239  H     H_    0.724105 0.715186 0.795498 0.265043
H240  H     H_    0.666781 0.641404 0.779436 0.249394
H241  H     H_    0.779417 0.645881 0.740191 0.218466
H242  H     H_    0.774879 0.563900 0.768702 0.232671
H243  H     H_    0.850700 0.627710 0.820791 0.217219
H244  H     H_    0.865622 0.701316 0.786759 0.192137
H245  H     H_    0.258822 0.826162 0.846655 0.253933
H246  H     H_    0.224685 0.234293 0.154025 0.273002
H247  H     H_    0.246311 0.774527 0.802040 0.269524
H248  H     H_    0.313249 0.747414 0.837738 0.247532
H249  H     H_    0.370913 0.808483 0.779835 0.222164
H250  H     H_    0.386786 0.854949 0.825065 0.231955
H251  H     H_    0.272703 0.935683 0.805305 0.191680
H252  H     H_    0.275670 0.890771 0.760664 0.192111
H253  H     H_    0.243238 0.325964 0.847253 0.252297
H254  H     H_    0.291351 0.338748 0.801423 0.258810
H255  H     H_    0.296361 0.407000 0.839049 0.257128
H256  H     H_    0.213276 0.444301 0.785469 0.227666
H257  H     H_    0.293993 0.166741 0.156917 0.253955
H258  H     H_    0.166975 0.434675 0.831852 0.236205
H259  H     H_    0.126436 0.308482 0.810042 0.188290
H260  H     H_    0.172737 0.321214 0.766061 0.198756
H261  H     H_    0.232939 0.694789 0.339044 0.256245
H262  H     H_    0.237183 0.736193 0.290915 0.264250
H263  H     H_    0.171796 0.767092 0.326458 0.246081
H264  H     H_    0.111647 0.689569 0.276624 0.224717
H265  H     H_    0.107965 0.649078 0.324525 0.230625
H266  H     H_    0.220803 0.573483 0.304640 0.190499
H267  H     H_    0.216944 0.614480 0.258679 0.195292
H268  H     H_    0.315373 0.260258 0.167821 0.251296
H269  H     H_    0.221587 0.144228 0.324575 0.256998
H270  H     H_    0.230100 0.224335 0.294207 0.265305
H271  H     H_    0.170186 0.151436 0.279837 0.249399
H272  H     H_    0.282647 0.149306 0.240442 0.219423
H273  H     H_    0.275412 0.069508 0.270594 0.232649
H274  H     H_    0.354020 0.132281 0.321107 0.215211
H275  H     H_    0.370271 0.205094 0.286746 0.193241
H276  H     H_    0.764873 0.315796 0.344204 0.253719
H277  H     H_    0.757770 0.267260 0.298251 0.268444
H278  H     H_    0.823869 0.240578 0.334456 0.247337
H279  H     H_    0.362337 0.243477 0.102755 0.209605
H280  H     H_    0.882500 0.308897 0.279610 0.223163
H281  H     H_    0.891532 0.353941 0.325897 0.231073
H282  H     H_    0.777172 0.430134 0.305290 0.191162
H283  H     H_    0.781573 0.386199 0.260274 0.194219
H284  H     H_    0.732405 0.814598 0.348314 0.250771
H285  H     H_    0.783228 0.824726 0.303122 0.262806
H286  H     H_    0.790210 0.892547 0.340870 0.254472
H287  H     H_    0.711824 0.934862 0.286381 0.226285
H288  H     H_    0.662881 0.927111 0.332018 0.235032
H289  H     H_    0.618287 0.801997 0.308490 0.189037
H290  H     H_    0.279496 0.291320 0.097012 0.225768
H291  H     H_    0.665787 0.815857 0.265027 0.198525
H292  H     H_    0.271855 0.436673 0.127766 0.265076
H293  H     H_    0.218712 0.431367 0.083149 0.258642
H294  H     H_    0.275872 0.509317 0.092747 0.264814
H295  H     H_    0.144914 0.535490 0.103643 0.224139
H296  H     H_    0.201102 0.548285 0.146377 0.230230
H297  H     H_    0.164526 0.427177 0.171937 0.204065
H298  H     H_    0.111538 0.409865 0.129897 0.212367
H299  H     H_    0.542429 0.244629 0.106291 0.260431
H300  H     H_    0.471870 0.285572 0.135850 0.267705
H301  H     H_    0.227825 0.149201 0.091323 0.208729
H302  H     H_    0.566163 0.298940 0.148192 0.254338
H303  H     H_    0.508218 0.209554 0.192694 0.227172
H304  H     H_    0.579286 0.169553 0.164480 0.227719
H305  H     H_    0.479787 0.130088 0.115178 0.195461
H306  H     H_    0.414413 0.154205 0.150162 0.208417
H307  H     H_    0.724110 0.555119 0.132385 0.265284
H308  H     H_    0.770805 0.560150 0.085670 0.259545
H309  H     H_    0.717380 0.480924 0.098710 0.261458
H310  H     H_    0.851814 0.460718 0.104263 0.223865
H311  H     H_    0.800847 0.445520 0.148731 0.231854
H312  H     H_    0.318899 0.135162 0.079700 0.218433
H313  H     H_    0.834167 0.571026 0.171577 0.205177
H314  H     H_    0.885368 0.585528 0.128508 0.209627
H315  H     H_    0.456046 0.756039 0.103716 0.260112
H316  H     H_    0.524626 0.711809 0.133231 0.268510
H317  H     H_    0.429788 0.700251 0.144761 0.253713
H318  H     H_    0.490574 0.785799 0.190542 0.227381
H319  H     H_    0.419103 0.827834 0.163635 0.227566
H320  H     H_    0.518380 0.869302 0.114004 0.194664
H321  H     H_    0.583751 0.844052 0.148708 0.208593
H322  H     H_    0.732344 0.937239 0.588199 0.262742
H323  H     H_    0.893233 0.257416 0.156884 0.267734
H324  H     H_    0.643721 0.957683 0.568057 0.269492
H325  H     H_    0.714291 0.024427 0.565500 0.242288
H326  H     H_    0.632859 0.058544 0.616706 0.239248
H327  H     H_    0.716843 0.031784 0.638860 0.214685
H328  H     H_    0.666976 0.933593 0.670332 0.184022
H329  H     H_    0.610547 0.908187 0.631203 0.221714
H330  H     H_    0.043562 0.743634 0.607075 0.262245
H331  H     H_    0.969217 0.782061 0.634928 0.268714
H332  H     H_    0.062106 0.798948 0.649351 0.253878
H333  H     H_    0.006968 0.707759 0.692999 0.228026
H334  H     H_    0.774905 0.670726 0.918289 0.058127
H335  H     H_    0.888158 0.352405 0.145668 0.272178
H336  H     H_    0.078223 0.668293 0.664488 0.227486
H337  H     H_    0.978423 0.629083 0.615304 0.198510
H338  H     H_    0.913272 0.652150 0.650569 0.195361
H339  H     H_    0.305292 0.029437 0.573133 0.245596
H340  H     H_    0.369189 0.957507 0.580582 0.262660
H341  H     H_    0.275058 0.936494 0.578740 0.232614
H342  H     H_    0.312410 0.935376 0.647853 0.233561
H343  H     H_    0.252868 0.008882 0.638700 0.211856
H344  H     H_    0.336542 0.077048 0.670915 0.173312
H345  H     H_    0.381443 0.081610 0.625849 0.215512
H346  H     H_    0.826960 0.313132 0.181247 0.251567
H347  H     H_    0.972026 0.254489 0.603263 0.261862
H348  H     H_    0.051164 0.219374 0.628367 0.269065
H349  H     H_    0.960973 0.192697 0.643789 0.257187
H350  H     H_    0.010966 0.282517 0.689423 0.226653
H351  H     H_    0.934810 0.319091 0.663917 0.230131
H352  H     H_    0.029541 0.371048 0.613891 0.199452
H353  H     H_    0.097098 0.352136 0.648595 0.194569
H354  H     H_    0.756514 0.327643 0.120637 0.226337
H355  H     H_    0.776289 0.234066 0.129878 0.248761
H356  H     H_    0.881378 0.242039 0.080857 0.199858
H357  H     H_    0.861319 0.336687 0.079165 0.241274
H358  H     H_    0.701360 0.820225 0.156774 0.255706
H359  H     H_    0.672315 0.727638 0.164764 0.249389
H360  H     H_    0.765427 0.747909 0.153149 0.270597
H361  H     H_    0.631218 0.750706 0.099703 0.208952
H362  H     H_    0.691580 0.772106 0.914055 0.049521
H363  H     H_    0.713446 0.701973 0.093499 0.224801
H364  H     H_    0.766766 0.844589 0.093040 0.209421
H365  H     H_    0.676805 0.860099 0.079681 0.214664
H366  H     H_    0.968082 0.808592 0.114998 0.263324
H367  H     H_    0.876636 0.824729 0.132443 0.265648
H368  H     H_    0.928041 0.749650 0.151418 0.254884
H369  H     H_    0.837563 0.705189 0.103307 0.219378
H370  H     H_    0.928404 0.690927 0.087508 0.261739
H371  H     H_    0.919745 0.772645 0.034651 0.192370
H372  H     H_    0.868379 0.834204 0.060274 0.179212
H373  H     H_    0.768927 0.311924 0.922895 0.030857
H374  H     H_    0.708122 0.025402 0.114646 0.273009
H375  H     H_    0.746965 0.091188 0.147988 0.242119
H376  H     H_    0.651310 0.070091 0.149847 0.249330
H377  H     H_    0.674224 0.189213 0.116059 0.193417
H378  H     H_    0.631346 0.126288 0.085970 0.252685
H379  H     H_    0.755860 0.093514 0.054894 0.216203
H380  H     H_    0.799086 0.148839 0.087415 0.181034
H381  H     H_    0.022200 0.185196 0.108732 0.263134
H382  H     H_    0.111074 0.164374 0.128368 0.264488
H383  H     H_    0.059663 0.238776 0.148048 0.255246
H384  H     H_    0.309662 0.228168 0.917042 0.051231
H385  H     H_    0.156703 0.285313 0.104224 0.220176
H386  H     H_    0.068451 0.304693 0.086283 0.262059
H387  H     H_    0.079199 0.226466 0.031727 0.192794
H388  H     H_    0.128834 0.162554 0.056713 0.178761
H389  H     H_    0.291038 0.973459 0.114616 0.272536
H390  H     H_    0.252279 0.907298 0.147982 0.241898
H391  H     H_    0.347847 0.928736 0.149824 0.250054
H392  H     H_    0.325740 0.809839 0.116053 0.194522
H393  H     H_    0.368254 0.873189 0.085897 0.252999
H394  H     H_    0.243576 0.905285 0.055017 0.216172
H395  H     H_    0.230690 0.694847 0.922283 0.037831
H396  H     H_    0.200693 0.849172 0.087645 0.181504
H397  H     H_    0.645849 0.251965 0.661984 0.263572
H398  H     H_    0.617732 0.160515 0.651669 0.266890
H399  H     H_    0.697830 0.177043 0.680710 0.250014
H400  H     H_    0.742064 0.146127 0.615039 0.218754
H401  H     H_    0.754776 0.239211 0.623884 0.248702
H402  H     H_    0.630002 0.259298 0.586607 0.199200
H403  H     H_    0.635102 0.165150 0.579643 0.241810
H404  H     H_    0.785702 0.643329 0.651238 0.265255
H405  H     H_    0.826278 0.731216 0.638852 0.264222
H406  H     H_    0.835658 0.274677 0.424438 0.074862
H407  H     H_    0.745927 0.726330 0.668572 0.257420
H408  H     H_    0.724347 0.763864 0.599016 0.229649
H409  H     H_    0.673923 0.685118 0.615034 0.236012
H410  H     H_    0.729540 0.606966 0.571356 0.181744
H411  H     H_    0.816261 0.650045 0.578322 0.230007
H412  H     H_    0.400730 0.749419 0.655501 0.262107
H413  H     H_    0.395848 0.844676 0.644794 0.278086
H414  H     H_    0.335946 0.805164 0.680970 0.250178
H415  H     H_    0.262795 0.820910 0.621436 0.226362
H416  H     H_    0.282594 0.727179 0.629927 0.246780
O1    O     O_3   1.000000 0.500000 0.999990 -0.469108
O2    O     O_R   1.000000 0.560740 0.412560 -0.665484
O3    O     O_R   0.439260 1.000000 0.412560 -0.669926
O4    O     O_R   1.000000 0.439260 0.412560 -0.663942
O5    O     O_R   0.000000 0.560680 0.087420 -0.672519
O6    O     O_R   0.439320 0.000000 0.087420 -0.654306
O7    O     O_R   0.000000 0.439320 0.087420 -0.670949
O8    O     O_R   0.560680 0.000000 0.087420 -0.653958
O9    O     O_R   0.500000 0.060680 0.587420 -0.665126
O10   O     O_R   0.939320 0.500000 0.587420 -0.652822
O11   O     O_R   0.500000 0.939320 0.587420 -0.668070
O12   O     O_3   0.500000 1.000000 0.999990 -0.477378
O13   O     O_R   0.060680 0.500000 0.587420 -0.652486
O14   O     O_R   0.853840 0.585430 0.977070 -0.629740
O15   O     O_R   0.414570 0.853840 0.977070 -0.621290
O16   O     O_R   0.146160 0.414570 0.977070 -0.622776
O17   O     O_R   0.585430 0.146160 0.977070 -0.621410
O18   O     O_R   0.146160 0.585430 0.977070 -0.614538
O19   O     O_R   0.585430 0.853840 0.977070 -0.619817
O20   O     O_R   0.853840 0.414570 0.977070 -0.632678
O21   O     O_R   0.414570 0.146160 0.977070 -0.618005
O22   O     O_R   0.353840 0.085430 0.477070 -0.630964
O23   O     O_3   0.500000 0.000000 0.499990 -0.468692
O24   O     O_R   0.914570 0.353840 0.477070 -0.621820
O25   O     O_R   0.646160 0.914570 0.477070 -0.624428
O26   O     O_R   0.085430 0.646160 0.477070 -0.622913
O27   O     O_R   0.646160 0.085430 0.477070 -0.608314
O28   O     O_R   0.085430 0.353840 0.477070 -0.620712
O29   O     O_R   0.353840 0.914570 0.477070 -0.623527
O30   O     O_R   0.914570 0.646160 0.477070 -0.618664
O31   O     O_R   0.085450 0.353820 0.022910 -0.663589
O32   O     O_R   0.646180 0.085450 0.022910 -0.654760
O33   O     O_R   0.914550 0.646180 0.022910 -0.663928
O34   O     O_3   1.000000 0.500000 0.499990 -0.475993
O35   O     O_R   0.353820 0.914550 0.022910 -0.655040
O36   O     O_R   0.914550 0.353820 0.022910 -0.669226
O37   O     O_R   0.353820 0.085450 0.022910 -0.663780
O38   O     O_R   0.085450 0.646180 0.022910 -0.670633
O39   O     O_R   0.646180 0.914550 0.022910 -0.663266
O40   O     O_R   0.585450 0.853820 0.522910 -0.665558
O41   O     O_R   0.146180 0.585450 0.522910 -0.656081
O42   O     O_R   0.414550 0.146180 0.522910 -0.660994
O43   O     O_R   0.853820 0.414550 0.522910 -0.657261
O44   O     O_R   0.414550 0.853820 0.522910 -0.685442
O45   O     O_R   0.060740 0.500000 0.912560 -0.654208
O46   O     O_R   0.853820 0.585450 0.522910 -0.661260
O47   O     O_R   0.585450 0.146180 0.522910 -0.681645
O48   O     O_R   0.146180 0.414550 0.522910 -0.664489
O49   O     O_3   0.412645 0.700770 0.939452 -0.612379
O50   O     O_3   0.303990 0.407882 0.936195 -0.615510
O51   O     O_3   0.587383 0.302124 0.940275 -0.602681
O52   O     O_3   0.696983 0.593605 0.936590 -0.635938
O53   O     O_3   0.600118 0.708757 0.931308 -0.629176
O54   O     O_3   0.698825 0.401493 0.934543 -0.630515
O55   O     O_3   0.401934 0.292145 0.932265 -0.627911
O56   O     O_R   0.500000 0.060740 0.912560 -0.664082
O57   O     O_3   0.298123 0.602803 0.931041 -0.623649
O58   O     O_3   0.913174 0.196797 0.441825 -0.614116
O59   O     O_3   0.809425 0.914079 0.440754 -0.613184
O60   O     O_3   0.084923 0.808868 0.444174 -0.605003
O61   O     O_3   0.188905 0.084416 0.443993 -0.627729
O62   O     O_3   0.093745 0.198890 0.436021 -0.628406
O63   O     O_3   0.197763 0.905788 0.437925 -0.624320
O64   O     O_3   0.907109 0.799865 0.435944 -0.626757
O65   O     O_3   0.797404 0.100209 0.432956 -0.619935
O66   O     O_R   0.939260 0.500000 0.912560 -0.667724
O67   O     O_R   0.500000 0.939260 0.912560 -0.662980
O68   O     O_R   0.560740 1.000000 0.412560 -0.654848
Zn1   Zn    Zn3+2 1.000000 0.586730 0.032740 0.913590
Zn2   Zn    Zn3+2 0.500000 0.913250 0.967240 0.954671
Zn3   Zn    Zn3+2 0.086750 0.500000 0.967240 0.974155
Zn4   Zn    Zn3+2 0.500000 0.086750 0.967240 0.956283
Zn5   Zn    Zn3+2 0.413250 1.000000 0.467240 0.944672
Zn6   Zn    Zn3+2 1.000000 0.413250 0.467240 0.951982
Zn7   Zn    Zn3+2 0.586750 1.000000 0.467240 0.969541
Zn8   Zn    Zn3+2 1.000000 0.586750 0.467240 0.953925
Zn9   Zn    Zn3+2 0.413270 0.000000 0.032740 0.912565
Zn10  Zn    Zn3+2 1.000000 0.413270 0.032740 0.913496
Zn11  Zn    Zn3+2 0.586730 0.000000 0.032740 0.912971
Zn12  Zn    Zn3+2 0.500000 0.086730 0.532740 0.906699
Zn13  Zn    Zn3+2 0.913270 0.500000 0.532740 0.914696
Zn14  Zn    Zn3+2 0.500000 0.913270 0.532740 0.898913
Zn15  Zn    Zn3+2 0.086730 0.500000 0.532740 0.911062
Zn16  Zn    Zn3+2 0.913250 0.500000 0.967240 0.948221

loop_
_geom_bond_atom_site_label_1
_geom_bond_atom_site_label_2
_ccdc_geom_bond_type
C231  C264  S    
C75   C76   S    
C126  C127  S    
O40   Zn14  S    
C17   C318  A    
C8    C26   A    
C186  H206  S    
C100  H19   S    
C175  H187  S    
C19   C320  A    
C160  H150  S    
C7    C293  S    
C101  C200  S    
C232  H318  S    
C253  C267  A    
O19   Zn2   S    
C111  H40   S    
C254  C268  A    
C70   H335  S    
C79   C194  S    
C180  H193  S    
C13   C146  A    
C147  H118  S    
C149  H123  S    
C2    C55   A    
O20   Zn16  S    
C164  O65   S    
O46   Zn13  S    
C226  H304  S    
O21   Zn4   S    
C10   C28   A    
C229  H311  S    
C190  C250  A    
C108  C109  S    
C30   C38   S    
C298  C302  A    
C163  H158  S    
C237  H322  S    
C184  H213  S    
C108  H31   S    
C270  C274  S    
C110  C111  S    
C220  C221  S    
C131  O54   S    
C294  O44   A    
C169  H171  S    
C262  C271  A    
C238  H338  S    
C32   C302  S    
C53   C60   A    
C263  C270  A    
C267  C273  A    
C208  H265  S    
C217  H289  S    
C22   C91   S    
C297  C303  A    
C80   H374  S    
C183  H198  S    
C178  H194  S    
O10   Zn13  S    
C118  H51   S    
C61   C62   S    
C122  H61   S    
C37   H384  S    
C225  H306  S    
C11   C289  S    
C63   H179  S    
C278  O10   A    
C185  H210  S    
C170  H167  S    
C231  H320  S    
C156  H141  S    
C16   C71   S    
C234  C236  S    
O47   Zn12  S    
C192  H227  S    
C14   C19   A    
C228  C229  S    
C199  H239  S    
C138  H97   S    
C46   C260  A    
C158  O63   S    
C212  H124  S    
C30   H1    S    
C121  H59   S    
C202  C203  S    
C59   C255  S    
C191  C192  S    
C167  H173  S    
C33   C34   S    
C235  C254  A    
C166  H164  S    
C276  O9    A    
C216  H276  S    
C90   C197  S    
C144  C145  S    
C40   C312  S    
C181  C182  S    
O4    Zn6   S    
O35   Zn9   S    
C95   H415  S    
C31   C37   S    
C142  H107  S    
C55   C191  S    
C140  H104  S    
C215  C216  S    
C162  H154  S    
C229  C230  S    
O43   Zn13  S    
C173  H177  S    
O13   Zn15  S    
C178  C180  S    
C175  C176  S    
C98   H8    S    
C193  H222  S    
C32   H223  S    
C14   C64   S    
C117  H50   S    
C12   C20   A    
C180  H192  S    
C209  H262  S    
C287  O22   A    
C153  H136  S    
O6    Zn9   S    
C45   O64   S    
C280  O35   A    
C36   O54   S    
C154  C155  S    
C146  C214  S    
C242  H343  S    
C289  O43   A    
O23   Zn5   S    
C264  C271  A    
C274  O7    A    
C62   H201  S    
O42   Zn12  S    
C158  C159  S    
C106  H22   S    
C18   C319  A    
C63   H190  S    
C129  H77   S    
C237  H325  S    
C208  H264  S    
C128  O53   S    
C118  O50   S    
C190  H101  S    
C300  C301  A    
C236  H327  S    
C39   C47   S    
C275  O8    A    
C168  H79   S    
C99   H7    S    
C156  H143  S    
C177  H197  S    
C41   C311  S    
C148  O60   S    
C150  H127  S    
C87   H403  S    
C125  H66   S    
C206  H255  S    
C69   H355  S    
C126  H69   S    
C72   C73   S    
O1    Zn16  S    
C283  C314  S    
C224  H135  S    
C139  C140  S    
C104  H27   S    
C9    C311  A    
C97   H10   S    
C33   H334  S    
C10   C312  A    
C256  C269  A    
C273  C278  S    
C103  H14   S    
C247  H349  S    
O2    Zn8   S    
C163  H156  S    
C243  H341  S    
C237  H324  S    
C217  C218  S    
C218  H287  S    
C40   H2    S    
C72   H361  S    
C81   H388  S    
C253  C260  A    
C64   H301  S    
C16   C17   A    
C254  C259  A    
C217  H291  S    
C94   H4    S    
C203  H248  S    
C57   C257  A    
C154  H138  S    
C119  H54   S    
C120  H58   S    
C154  O62   S    
C214  H283  S    
C80   H376  S    
C69   C70   S    
C285  O36   A    
C216  H277  S    
C137  H95   S    
C195  C196  S    
C132  H84   S    
C135  C210  S    
C34   C300  S    
C88   C89   S    
C233  H315  S    
C200  C202  S    
C228  H313  S    
C193  H225  S    
C176  H185  S    
O1    Zn1   S    
C112  O67   A    
C31   C303  S    
C230  H307  S    
C283  O38   A    
C86   H390  S    
C239  H333  S    
C159  H148  S    
C15   C18   A    
C40   O59   S    
C120  H55   S    
O23   Zn12  S    
C94   H3    S    
C220  C261  S    
O48   Zn15  S    
C249  C258  A    
C73   H359  S    
C276  O11   A    
C128  C129  S    
O17   Zn4   S    
C97   C98   S    
C3    C280  S    
C213  H269  S    
C167  C169  S    
C62   H212  S    
C85   C86   S    
C244  C245  S    
C246  H157  S    
O23   Zn14  S    
C90   C277  A    
C46   C299  A    
C196  H232  S    
C44   C307  S    
C194  H236  S    
O34   Zn13  S    
C265  C272  A    
C100  H18   S    
C2    C68   A    
C251  C258  A    
C78   C80   S    
C5    C306  A    
C134  H91   S    
C42   H24   S    
C72   H363  S    
C39   O58   S    
C114  H36   S    
C155  H140  S    
C142  H108  S    
C27   C104  S    
C219  H284  S    
C46   C277  A    
C184  C185  S    
C51   C277  A    
C241  C242  S    
C147  H119  S    
C49   C299  A    
C174  C175  S    
C232  C233  S    
O32   Zn11  S    
C13   C57   A    
C182  C183  S    
C227  H302  S    
C67   H356  S    
C109  H30   S    
C268  C272  A    
O34   Zn8   S    
C82   H385  S    
C274  O5    A    
C187  H220  S    
C194  H237  S    
C247  H348  S    
O3    Zn5   S    
C163  H159  S    
C219  H285  S    
O29   Zn5   S    
C189  H214  S    
C307  C311  A    
C38   O57   S    
C228  C263  S    
C47   H68   S    
C43   O62   S    
C99   H5    S    
C114  H37   S    
C124  C168  A    
C38   C296  S    
O24   Zn6   S    
C206  H253  S    
C88   H400  S    
C183  H199  S    
C145  H116  S    
C220  H298  S    
C165  H162  S    
C285  O20   A    
C4    C292  S    
C65   H279  S    
C290  O25   A    
C54   C59   A    
C215  H281  S    
C121  H60   S    
C296  C314  A    
C13   C52   A    
C93   H405  S    
C102  C103  S    
C243  H339  S    
C191  H229  S    
C294  O29   A    
O28   Zn6   S    
C192  H226  S    
C138  C139  S    
C298  C316  A    
C91   C92   S    
C78   H377  S    
C24   C68   A    
C24   C157  A    
C198  H242  S    
C234  C265  S    
C127  H73   S    
C143  H110  S    
C25   C26   A    
C50   C56   A    
C117  H48   S    
O23   Zn7   S    
C219  H286  S    
C44   H46   S    
C221  C222  S    
C151  H130  S    
C33   C301  S    
C115  O49   S    
C36   C298  S    
C89   H398  S    
C133  H87   S    
C233  H317  S    
C15   C67   S    
C66   H257  S    
C93   H404  S    
C234  H328  S    
C261  C270  A    
C173  H176  S    
C74   H372  S    
C47   C305  S    
C195  H233  S    
O5    Zn1   S    
C170  H170  S    
C240  H331  S    
C232  H319  S    
C97   H11   S    
C25   C97   S    
C139  H100  S    
O25   Zn7   S    
C128  H75   S    
C43   H35   S    
C98   C99   S    
C96   H414  S    
C20   C84   S    
C209  H261  S    
C136  H92   S    
C157  C201  A    
C148  H122  S    
C47   O65   S    
C60   C223  S    
C3    C304  A    
C155  C156  S    
C292  O27   A    
C213  H271  S    
C289  O24   A    
C129  C130  S    
C77   H380  S    
C241  C268  S    
C234  H329  S    
C239  H336  S    
C127  H72   S    
C168  C248  A    
C50   C174  S    
C103  H12   S    
C102  H16   S    
C186  H207  S    
C34   O53   S    
C76   H367  S    
C127  H71   S    
C136  C137  S    
O68   Zn7   S    
C57   C310  A    
C32   C36   S    
C179  H90   S    
C236  H326  S    
C33   O52   S    
O33   Zn1   S    
C6    C307  A    
C156  H142  S    
O26   Zn8   S    
C2    C135  A    
C88   H401  S    
C12   C314  A    
C184  H211  S    
C111  H39   S    
C32   O51   S    
C123  H65   S    
C287  O42   A    
C41   H13   S    
C227  H300  S    
C231  H321  S    
C104  H26   S    
C48   C167  S    
C246  C256  A    
O34   Zn6   S    
C37   O55   S    
C229  H310  S    
C256  C260  A    
C74   H371  S    
O56   Zn4   S    
C103  H15   S    
C176  H183  S    
C191  H228  S    
C108  H32   S    
C189  H216  S    
C188  H218  S    
C141  O58   S    
C82   H386  S    
C86   H389  S    
C49   C171  S    
C107  H34   S    
C153  H133  S    
C204  C205  S    
C293  O28   A    
C226  C227  S    
C26   C100  S    
C42   C309  S    
C279  O14   A    
C10   C290  S    
C281  O16   A    
C45   H57   S    
C19   C81   S    
C31   O50   S    
C291  O26   A    
C125  O52   S    
C39   C313  S    
C122  H62   S    
C87   C88   S    
C204  H259  S    
C185  H209  S    
C93   H407  S    
C164  H160  S    
C174  H189  S    
C239  C240  S    
O41   Zn15  S    
C144  H115  S    
C207  H266  S    
C201  H113  S    
O12   Zn9   S    
C141  H105  S    
C161  C162  S    
C200  H251  S    
O15   Zn2   S    
O36   Zn10  S    
C77   C78   S    
C172  C173  S    
C230  H309  S    
C222  H294  S    
C131  H82   S    
C136  H93   S    
C188  H217  S    
C221  H296  S    
C92   C93   S    
C115  H44   S    
C123  H63   S    
C210  H275  S    
C166  H165  S    
C223  O3    A    
C1    O45   A    
C79   C266  A    
C305  C313  A    
C296  C304  A    
C169  C170  S    
C75   H370  S    
O12   Zn2   S    
C162  H155  S    
C104  C105  S    
C152  H131  S    
C279  C318  S    
C182  H203  S    
C208  C209  S    
C201  C251  A    
O9    Zn12  S    
C117  H49   S    
C209  H263  S    
C83   H382  S    
C151  C152  S    
C124  C310  A    
C249  C262  A    
C212  C252  A    
C250  C257  A    
C149  H125  S    
C34   H362  S    
C222  H292  S    
C286  O37   A    
C284  C317  S    
C67   H357  S    
C194  C195  S    
C113  C299  A    
C22   C28   A    
C55   C60   A    
C37   C297  S    
C123  H64   S    
C79   C212  A    
C129  H76   S    
C45   C306  S    
C160  H149  S    
C151  O61   S    
C145  C147  S    
C224  C253  A    
C40   C45   S    
C177  H196  S    
C225  H305  S    
C207  C208  S    
C29   C110  S    
C84   C85   S    
C126  H70   S    
C193  H221  S    
C178  H195  S    
C41   O60   S    
C71   H364  S    
C226  H303  S    
O22   Zn5   S    
C24   C53   A    
C150  H128  S    
C82   C83   S    
O27   Zn7   S    
C244  C269  S    
C291  O41   A    
C63   H168  S    
C255  O2    A    
C271  C275  S    
C121  O51   S    
C102  H17   S    
C218  H288  S    
C62   C63   S    
C169  H172  S    
C161  H153  S    
C174  H188  S    
C238  H337  S    
C85   H392  S    
C159  C160  S    
C285  C316  S    
C143  H111  S    
C272  C276  S    
C203  H247  S    
C286  C315  S    
C144  O59   S    
C157  C217  S    
C242  C243  S    
C119  H53   S    
C282  O17   A    
C3    C20   A    
C51   C58   A    
C69   H354  S    
C14   C315  A    
C241  H344  S    
C297  C315  A    
C121  C122  S    
C216  H278  S    
C137  H94   S    
C293  O48   A    
C228  H314  S    
C245  C247  S    
C124  C207  S    
C125  C126  S    
C77   H379  S    
C41   C44   S    
C43   C308  S    
C53   C184  S    
C230  H308  S    
C42   C43   S    
C92   H409  S    
O12   Zn11  S    
C240  H330  S    
C244  H353  S    
C159  H147  S    
C199  H240  S    
C9    C27   A    
C9    C291  S    
C162  C163  S    
C84   H394  S    
C44   O63   S    
C128  H74   S    
C238  C239  S    
C200  H252  S    
O1    Zn10  S    
C120  H56   S    
C39   H406  S    
C70   H346  S    
C205  H256  S    
C161  H152  S    
C167  H174  S    
C73   H358  S    
O44   Zn14  S    
C215  H280  S    
C295  O46   A    
C131  H83   S    
C164  H161  S    
C130  H80   S    
C105  C106  S    
O66   Zn16  S    
C95   H416  S    
C7    C25   A    
C269  C273  A    
C302  C319  A    
C106  H20   S    
C64   C65   S    
C158  H145  S    
C76   H366  S    
O12   Zn4   S    
C172  H178  S    
C187  C188  S    
C197  H244  S    
C11   C313  A    
C149  C150  S    
C197  H243  S    
C12   C61   S    
C48   C288  A    
C221  H295  S    
C185  C186  S    
C21   C29   A    
C52   C181  S    
C91   H410  S    
C18   C77   S    
C155  H139  S    
C70   H323  S    
C180  H191  S    
C116  C117  S    
C111  C114  S    
C181  H205  S    
C91   H411  S    
C94   C95   S    
C250  C263  A    
O45   Zn3   S    
O34   Zn15  S    
C242  H342  S    
C71   H365  S    
C71   C72   S    
C223  O68   A    
C177  C178  S    
C106  H21   S    
C187  H219  S    
C142  C143  S    
C175  H186  S    
C247  H347  S    
C1    C58   S    
C160  H151  S    
C140  H103  S    
C115  C116  S    
C252  C259  A    
C196  H230  S    
C202  H250  S    
C114  H38   S    
C171  C172  S    
C50   C266  A    
C165  C166  S    
C4    C21   A    
C21   C87   S    
C150  H126  S    
C181  H204  S    
C113  C246  A    
C125  H67   S    
C95   C96   S    
C206  H254  S    
C205  H258  S    
C112  O56   A    
C81   C82   S    
O18   Zn3   S    
C109  H28   S    
C205  C206  S    
C236  C237  S    
C90   C224  A    
C35   C259  A    
C280  O15   A    
C134  O55   S    
C83   H383  S    
C238  C267  S    
C144  H114  S    
C65   H290  S    
C207  H267  S    
C5    C295  S    
O11   Zn14  S    
C179  C249  A    
C80   H375  S    
C81   H387  S    
C16   C317  A    
C143  H109  S    
C28   C107  S    
C255  O4    A    
C203  H245  S    
C283  O18   A    
C301  C318  A    
C154  H137  S    
C290  O40   A    
C214  H282  S    
C113  C204  S    
C118  C119  S    
C137  H96   S    
C164  C165  S    
C8    C287  S    
C116  H45   S    
C210  C211  S    
C89   H397  S    
C5    C22   A    
C233  H316  S    
C132  C133  S    
C86   H391  S    
C8    C309  A    
C101  C235  A    
C173  H175  S    
C198  C199  S    
C105  H23   S    
O14   Zn16  S    
C284  O39   A    
C240  H332  S    
C199  H238  S    
C85   H393  S    
C251  C264  A    
C158  H144  S    
C84   H396  S    
C139  H99   S    
C195  H234  S    
C282  O32   A    
C182  H202  S    
C225  C262  S    
C73   H360  S    
C186  H208  S    
C138  H98   S    
C292  O47   A    
C213  H270  S    
C244  H352  S    
O8    Zn11  S    
C281  O31   A    
C130  H78   S    
C275  O6    A    
O38   Zn1   S    
C74   C75   S    
C133  H86   S    
C196  H231  S    
C110  H42   S    
C6    C294  S    
C76   H368  S    
O67   Zn2   S    
C148  C149  S    
C172  H180  S    
C35   C288  A    
C214  C215  S    
C134  C136  S    
C171  H182  S    
C96   H412  S    
O16   Zn3   S    
O37   Zn9   S    
C306  C312  A    
C49   C58   A    
C101  C288  A    
O1    Zn3   S    
C188  C189  S    
C67   C69   S    
C281  C320  S    
O39   Zn11  S    
C147  H120  S    
C282  C319  S    
C211  H272  S    
C61   H235  S    
C52   C59   A    
C227  H299  S    
C15   C316  A    
C141  H106  S    
C197  C198  S    
C110  H41   S    
C107  C108  S    
C66   H268  S    
C109  H29   S    
C100  C102  S    
C225  C226  S    
C279  O33   A    
C176  H184  S    
C295  O30   A    
C211  H273  S    
C152  C153  S    
C119  C120  S    
C189  H215  S    
C245  H351  S    
C171  H181  S    
C78   H378  S    
C107  H33   S    
C99   H6    S    
C30   C304  S    
C211  C213  S    
C118  H52   S    
C7    C308  A    
C65   C66   S    
C23   C27   A    
C38   H395  S    
C17   C74   S    
C87   H402  S    
C134  H89   S    
C183  H200  S    
C303  C320  A    
C145  H117  S    
C220  H297  S    
C165  H163  S    
C308  C309  A    
C61   H224  S    
C48   C56   A    
C204  H260  S    
C243  H340  S    
C83   H381  S    
C54   C310  A    
C161  O64   S    
C198  H241  S    
C153  H134  S    
C284  O19   A    
C300  C317  A    
C4    C305  A    
C98   H9    S    
C64   H312  S    
C23   C94   S    
C54   C187  S    
C278  O13   A    
C192  C193  S    
C202  H249  S    
O31   Zn10  S    
C115  H43   S    
C245  H350  S    
C135  C179  A    
C166  H166  S    
C235  H146  S    
C51   C177  S    
C141  C142  S    
C130  H81   S    
C68   C258  A    
C132  H85   S    
C116  H47   S    
C151  H129  S    
C218  C219  S    
C89   H399  S    
C133  H88   S    
C6    C23   A    
C138  O57   S    
C1    O66   A    
C92   H408  S    
C105  H25   S    
C31   H112  S    
O7    Zn10  S    
C35   C266  A    
C140  H102  S    
C75   H369  S    
C170  H169  S    
C286  O21   A    
C66   H246  S    
C42   O61   S    
O30   Zn8   S    
C152  H132  S    
C248  C257  A    
C252  C265  A    
C11   C29   A    
C30   O49   S    
C96   H413  S    
C231  C232  S    
C122  C123  S    
C146  C190  A    
C36   H373  S    
C148  H121  S    
C248  C261  A    
C56   C112  S    
C131  C132  S    
C222  H293  S    
C241  H345  S    
C210  H274  S    
