data_mof_unit_64790.cif
_audit_creation_date              2012-12-11T17:29:41-0500
_audit_creation_method            fapswitch 2.2
_symmetry_space_group_name_H-M    P1
_symmetry_Int_Tables_number       1
_space_group_crystal_system       triclinic
_cell_length_a                    8.218235
_cell_length_b                    16.505206
_cell_length_c                    18.853043
_cell_angle_alpha                 100.012673
_cell_angle_beta                  91.358924
_cell_angle_gamma                 93.543211
_cell_volume                      2511.98719573

loop_
_atom_site_label
_atom_site_type_symbol
_atom_type_description
_atom_site_fract_x
_atom_site_fract_y
_atom_site_fract_z
_atom_type_partial_charge
Ba1   Ba    Ba6+2 0.845660 0.536000 0.465120 1.674938
Ba2   Ba    Ba6+2 0.344160 0.464070 0.534880 1.707562
Br1   Br    Br    0.347611 0.863536 0.696702 -0.536489
Br2   Br    Br    0.017109 0.236586 0.188693 -0.529737
Br3   Br    Br    0.722788 0.115926 0.255968 -0.398204
Br4   Br    Br    0.579723 0.286991 0.167140 -0.535209
Br5   Br    Br    0.285224 0.697145 0.817392 -0.564177
Br6   Br    Br    0.438521 0.100315 0.410228 -0.482918
C1    C     C_3   0.632169 0.829522 0.288866 -0.301337
C2    C     C_R   0.909821 0.421401 0.097504 -0.046268
C3    C     C_R   0.787360 0.422181 0.949862 -0.095483
C4    C     C_3   0.097966 0.698952 0.268984 0.345304
C5    C     C_R   0.943132 0.457532 0.975665 0.029186
C6    C     C_R   0.731037 0.423193 0.880081 -0.088876
C7    C     C_R   0.826599 0.459264 0.831946 -0.025173
C8    C     C_R   0.980894 0.498935 0.856391 -0.025988
C9    C     C_R   0.040116 0.496692 0.928291 0.027225
C10   C     C_R   0.772282 0.456190 0.759911 -0.005723
C11   C     C_R   0.875125 0.487887 0.712119 -0.311156
C12   C     C_3   0.616494 0.745077 0.310800 0.311118
C13   C     C_R   0.020215 0.534533 0.735471 0.035172
C14   C     C_R   0.072502 0.543453 0.810214 -0.054608
C15   C     C_R   0.160365 0.493210 0.070854 0.037404
C16   C     C_3   0.082091 0.719263 0.193611 -0.335367
C17   C     C_R   0.218779 0.494886 0.143472 0.014437
C18   C     C_R   0.119114 0.461113 0.193172 -0.044569
C19   C     C_R   0.967203 0.423043 0.167634 0.037568
C20   C     C_R   0.209131 0.594542 0.842713 0.271710
C21   C     C_R   0.273861 0.585209 0.909557 -0.080509
C22   C     C_R   0.195015 0.534756 0.952672 -0.025004
C23   C     C_3   0.477281 0.331437 0.313924 0.274526
C24   C     C_R   0.259441 0.528839 0.022377 0.031064
C25   C     C_R   0.421021 0.557420 0.045259 -0.094279
C26   C     C_R   0.376496 0.530830 0.166336 -0.021440
C27   C     C_R   0.477438 0.559070 0.115662 -0.075858
C28   C     C_3   0.190904 0.715508 0.614584 0.330540
C29   C     C_R   0.428442 0.537551 0.239261 0.014027
C30   C     C_R   0.325533 0.507685 0.288239 -0.297338
C31   C     C_R   0.174225 0.467062 0.266585 0.005011
C32   C     C_R   0.385141 0.729234 0.468349 -0.306346
C33   C     C_R   0.528355 0.758464 0.508063 0.043027
C34   C     C_3   0.412557 0.294916 0.237777 0.122446
C35   C     C_R   0.580689 0.842218 0.516966 -0.104904
C36   C     C_R   0.485875 0.897519 0.487739 0.274194
C37   C     C_R   0.336009 0.867913 0.451987 -0.147410
C38   C     C_R   0.285264 0.783989 0.442909 -0.032788
C39   C     C_R   0.623362 0.142434 0.475013 0.222222
C40   C     C_3   0.179966 0.808838 0.627829 0.104400
C41   C     C_R   0.670586 0.227247 0.483886 -0.026398
C42   C     C_R   0.720442 0.089998 0.508782 0.235746
C43   C     C_R   0.813924 0.259184 0.522091 -0.318049
C44   C     C_R   0.916323 0.207924 0.550158 0.005868
C45   C     C_3   0.098702 0.300155 0.729476 0.332404
C46   C     C_R   0.869044 0.123651 0.544409 -0.191278
C47   C     C_3   0.932285 0.267125 0.284598 0.445398
C48   C     C_3   0.893150 0.186959 0.312950 0.217800
C49   C     C_3   0.729337 0.661988 0.681374 0.327179
C50   C     C_3   0.704160 0.673706 0.762779 -0.028664
C51   C     C_3   0.875884 0.800121 0.809252 -0.122889
C52   C     C_3   0.106265 0.277620 0.804266 -0.329294
C53   C     C_3   0.579465 0.254784 0.690006 0.325471
C54   C     C_3   0.557357 0.170240 0.711363 -0.314655
C55   C     C_R   0.002578 0.457133 0.047614 -0.003791
H1    H     H_    0.692775 0.747418 0.360609 0.096012
H2    H     H_    0.794271 0.640344 0.789150 0.020268
H3    H     H_    0.582983 0.644957 0.771625 0.148714
H4    H     H_    0.486785 0.731300 0.321941 -0.052069
H5    H     H_    0.591957 0.876865 0.333065 0.109638
H6    H     H_    0.373150 0.356181 0.345095 0.006185
H7    H     H_    0.570511 0.382698 0.312377 0.029805
H8    H     H_    0.352937 0.232544 0.237030 0.182561
H9    H     H_    0.322240 0.334451 0.219927 0.034309
H10   H     H_    0.554724 0.829490 0.239773 0.132774
H11   H     H_    0.127290 0.668718 0.153764 0.065090
H12   H     H_    0.194878 0.832928 0.577143 0.008166
H13   H     H_    0.182520 0.355537 0.729473 0.095344
H14   H     H_    0.972051 0.314860 0.717736 -0.061282
H15   H     H_    0.232148 0.262957 0.817768 0.154087
H16   H     H_    0.071065 0.329995 0.844893 0.077033
H17   H     H_    0.021016 0.223216 0.806219 0.129279
H18   H     H_    0.711733 0.268817 0.684058 -0.065553
H19   H     H_    0.514187 0.252237 0.637346 0.084526
H20   H     H_    0.606625 0.123273 0.669322 0.086788
H21   H     H_    0.425829 0.153684 0.716974 0.165875
H22   H     H_    0.025003 0.640301 0.269923 0.087111
H23   H     H_    0.058161 0.824654 0.648050 0.072325
H24   H     H_    0.623644 0.170451 0.763431 0.125821
H25   H     H_    0.836874 0.479857 0.655909 0.068496
H26   H     H_    0.610707 0.394696 0.864646 0.117426
H27   H     H_    0.887435 0.394332 0.201492 0.135557
H28   H     H_    0.601666 0.582933 0.129603 0.106824
H29   H     H_    0.366181 0.513693 0.344012 0.070072
H30   H     H_    0.704069 0.392585 0.982036 0.096013
H31   H     H_    0.790202 0.391695 0.084614 0.123240
H32   H     H_    0.378013 0.626032 0.930656 0.112082
H33   H     H_    0.228352 0.690586 0.280429 -0.066855
H34   H     H_    0.818982 0.299363 0.282534 0.079177
H35   H     H_    0.508308 0.577823 0.009133 0.076010
H36   H     H_    0.258040 0.910370 0.432368 0.132154
H37   H     H_    0.691332 0.864407 0.548539 0.110517
H38   H     H_    0.947911 0.084087 0.567448 0.115067
H39   H     H_    0.345006 0.664634 0.462246 0.074243
H40   H     H_    0.850368 0.324110 0.526786 0.085974
H41   H     H_    0.952298 0.726573 0.179857 0.152144
H42   H     H_    0.155308 0.777377 0.190727 0.137866
H43   H     H_    0.315776 0.699886 0.600720 0.013507
H44   H     H_    0.105038 0.688995 0.569096 0.015929
H45   H     H_    0.004509 0.152115 0.313388 0.106845
H46   H     H_    0.628468 0.795088 0.778207 0.296909
H47   H     H_    0.933317 0.804376 0.757299 0.130800
H48   H     H_    0.952470 0.765586 0.841302 0.155897
H49   H     H_    0.868198 0.863386 0.840170 0.135122
H50   H     H_    0.853662 0.201510 0.369036 -0.021309
H51   H     H_    0.859194 0.674136 0.671927 0.001953
H52   H     H_    0.689907 0.597074 0.658057 -0.010019
H53   H     H_    0.761157 0.845486 0.277640 0.164477
N1    N     N_2   0.530524 0.983572 0.496725 -0.171455
N2    N     N_2   0.679967 0.003446 0.504464 -0.212916
N3    N     N_2   0.713935 0.759892 0.796751 -0.399180
O1    O     O_2   0.884010 0.444810 0.325060 -0.489512
O2    O     O_2   0.255924 0.215201 0.549924 -0.441761
O3    O     O_3   0.146599 0.233533 0.679132 -0.598030
O4    O     O_3   0.132090 0.451130 0.414310 -0.453575
O5    O     O_3   0.558660 0.599640 0.536520 -0.482698
O6    O     O_2   0.381010 0.300300 0.465220 -0.412934
O7    O     O_3   0.544817 0.268950 0.344416 -0.590192
O8    O     O_2   0.432337 0.465966 0.757584 -0.494758
O9    O     O_3   0.514815 0.313655 0.743039 -0.604113
O10   O     O_3   0.640770 0.594650 0.368950 -0.486985
O11   O     O_2   0.768817 0.537726 0.244681 -0.496956
O12   O     O_3   0.639814 0.717103 0.650434 -0.601784
O13   O     O_3   0.051964 0.313609 0.332103 -0.658134
O14   O     O_3   0.670153 0.685984 0.254948 -0.603692
O15   O     O_2   0.808690 0.699720 0.534830 -0.488221
O16   O     O_3   0.053760 0.638480 0.405010 -0.492396
O17   O     O_2   0.947398 0.786649 0.452338 -0.488060
O18   O     O_3   0.039738 0.763247 0.318902 -0.584863
O19   O     O_2   0.305690 0.555220 0.674980 -0.428986
O20   O     O_3   0.057610 0.548940 0.585700 -0.511818
O21   O     O_3   0.548930 0.405410 0.631060 -0.483289
O22   O     O_3   0.151178 0.686541 0.677746 -0.582892
O23   O     O_3   0.631040 0.400420 0.463490 -0.486481
O24   O     O_3   0.135930 0.361590 0.595000 -0.490893
P1    P     P_3+3 0.056550 0.421630 0.336220 0.984469
P2    P     P_3+3 0.635450 0.689180 0.556380 1.006688
P3    P     P_3+3 0.081330 0.744448 0.405845 0.956475
P4    P     P_3+3 0.133150 0.578440 0.663790 1.024004
P5    P     P_3+3 0.113174 0.254341 0.592231 0.998290
P6    P     P_3+3 0.626964 0.587801 0.275937 0.945843
P7    P     P_3+3 0.560195 0.297624 0.438264 1.035916
P8    P     P_3+3 0.567549 0.411858 0.724008 0.935198

loop_
_geom_bond_atom_site_label_1
_geom_bond_atom_site_label_2
_ccdc_geom_bond_type
C2    C19   A    
O13   P1    S    
C7    C10   A    
C47   C48   S    
C52   H16   S    
C9    C22   A    
C23   C34   S    
C26   C29   A    
O7    P7    S    
C12   H4    S    
Ba1   P2    S    
C2    C55   A    
O1    P1    D    
C54   H20   S    
C49   H52   S    
Ba2   O4    S    
C32   C38   A    
O20   P4    S    
C18   C19   A    
C29   C30   A    
C4    H22   S    
Ba2   O20   S    
C13   P4    S    
C20   C21   A    
C11   C13   A    
C26   C27   A    
Ba1   O10   S    
C53   H19   S    
C30   C31   A    
C3    C6    A    
C18   C31   A    
C2    H31   S    
C43   H40   S    
C7    C8    A    
C30   H29   S    
Br1   C40   S    
C51   H47   S    
C19   H27   S    
Ba1   Ba2   S    
C48   H45   S    
C4    O18   S    
Ba1   O23   S    
C46   H38   S    
O8    P8    D    
C50   H3    S    
C23   H7    S    
C25   H35   S    
C8    C9    A    
C41   C43   A    
O4    P1    S    
C51   H48   S    
C48   H50   S    
C28   C40   S    
O3    P5    S    
C12   O14   S    
Ba1   O20   S    
C17   C26   A    
C3    H30   S    
C15   C55   A    
C44   P5    S    
C14   C20   A    
C13   C14   A    
C28   H44   S    
Ba2   O24   S    
C33   C35   A    
C40   H12   S    
C1    H10   S    
C50   H2    S    
C45   C52   S    
C44   C46   A    
C39   C42   A    
O24   P5    S    
C1    H5    S    
C28   H43   S    
C43   C44   A    
Ba2   O19   S    
O18   P3    S    
O14   P6    S    
C35   H37   S    
C39   C41   A    
C11   H25   S    
C37   H36   S    
C21   H32   S    
C10   C11   A    
Ba2   P4    S    
C37   C38   A    
Br5   C20   S    
C8    C14   A    
C16   H41   S    
Ba1   O1    S    
C12   H1    S    
C45   H14   S    
C28   O22   S    
Ba1   O4    S    
C6    H26   S    
O10   P6    S    
C21   C22   A    
C1    C12   S    
C5    C55   A    
O19   P4    D    
O16   P3    S    
C52   H15   S    
C47   H34   S    
O11   P6    D    
C34   H9    S    
C51   H49   S    
O2    P5    D    
C33   P2    S    
C42   C46   A    
O21   P8    S    
C41   P7    S    
O9    P8    S    
C32   C33   A    
Br3   C48   S    
C35   C36   A    
Ba2   O23   S    
C40   H23   S    
C45   H13   S    
Ba1   O15   S    
C36   C37   A    
H46   N3    S    
O5    P2    S    
O15   P2    D    
C54   H21   S    
C52   H17   S    
C51   N3    S    
C42   N2    S    
C1    H53   S    
C49   O12   S    
C29   P6    S    
C49   H51   S    
Ba2   O5    S    
C54   H24   S    
C4    C16   S    
C5    C9    A    
C45   O3    S    
Ba2   O21   S    
C24   C25   A    
O23   P7    S    
C17   C18   A    
Ba1   O5    S    
Br2   C47   S    
Ba1   P1    S    
C53   H18   S    
N1    N2    D    
C15   C24   A    
C22   C24   A    
C3    C5    A    
C16   H11   S    
C49   C50   S    
C38   P3    S    
C36   N1    S    
C34   H8    S    
C25   C27   A    
O12   P2    S    
C53   O9    S    
C15   C17   A    
C53   C54   S    
Br6   C39   S    
O6    P7    D    
O22   P4    S    
C32   H39   S    
Ba2   O6    S    
C23   H6    S    
C50   N3    S    
C31   P1    S    
C47   O13   S    
Br4   C34   S    
C6    C7    A    
C4    H33   S    
C16   H42   S    
C23   O7    S    
Ba1   O16   S    
O17   P3    D    
C10   P8    S    
C27   H28   S    
