data_mof_unit_6461.cif
_audit_creation_date              2012-12-10T19:16:28-0500
_audit_creation_method            fapswitch 2.2
_symmetry_space_group_name_H-M    P1
_symmetry_Int_Tables_number       1
_space_group_crystal_system       triclinic
_cell_length_a                    10.594753
_cell_length_b                    9.795533
_cell_length_c                    27.489259
_cell_angle_alpha                 88.95906
_cell_angle_beta                  91.180375
_cell_angle_gamma                 89.910997
_cell_volume                      2851.7883357

loop_
_atom_site_label
_atom_site_type_symbol
_atom_type_description
_atom_site_fract_x
_atom_site_fract_y
_atom_site_fract_z
_atom_type_partial_charge
C1    C     C_R   0.258340 0.499789 0.502889 0.842515
C2    C     C_R   0.497742 0.351394 0.977152 0.049330
C3    C     C_R   0.691811 0.489278 0.976464 0.030284
C4    C     C_R   0.501656 0.500734 0.406275 0.886186
C5    C     C_R   0.591330 0.424721 0.951280 0.069848
C6    C     C_R   0.394103 0.296917 0.950964 -0.221448
C7    C     C_R   0.383948 0.312318 0.900888 -0.151549
C8    C     C_R   0.477314 0.381135 0.875082 -0.003821
C9    C     C_R   0.582988 0.435642 0.899892 -0.065967
C10   C     C_R   0.679210 0.501804 0.873374 -0.071366
C11   C     C_R   0.660774 0.520365 0.822633 0.491319
C12   C     C_R   0.442874 0.511178 0.272144 -0.135982
C13   C     C_R   0.466504 0.397453 0.824711 0.487151
C14   C     C_R   0.518064 0.603613 0.725212 -0.110713
C15   C     C_R   0.502961 0.611458 0.674742 -0.236718
C16   C     C_R   0.742061 0.499737 0.502842 0.830948
C17   C     C_R   0.539484 0.366993 0.670593 -0.228900
C18   C     C_R   0.555558 0.359765 0.720686 -0.111864
C19   C     C_R   0.544466 0.477586 0.748105 0.323605
C20   C     C_R   0.507955 0.339417 0.028431 0.043103
C21   C     C_R   0.598573 0.419389 0.053587 0.069862
C22   C     C_R   0.689412 0.496516 0.027826 0.052326
C23   C     C_R   0.561300 0.470061 0.255678 0.311606
C24   C     C_R   0.428739 0.252365 0.055665 -0.223031
C25   C     C_R   0.765122 0.591508 0.104521 -0.142768
C26   C     C_R   0.792170 0.543542 0.949476 -0.267903
C27   C     C_R   0.788857 0.547180 0.898664 0.018027
C28   C     C_R   0.501876 0.498563 0.594095 0.857277
C29   C     C_R   0.771692 0.582689 0.054266 -0.220590
C30   C     C_3   0.073890 0.621578 0.534482 -0.402771
C31   C     C_3   0.073738 0.366062 0.529743 -0.402162
C32   C     C_3   0.929309 0.622147 0.534104 -0.398379
C33   C     C_3   0.929420 0.365185 0.528861 -0.398324
C34   C     C_R   0.596131 0.424804 0.104936 -0.057358
C35   C     C_3   0.069037 0.509514 0.451993 -0.405205
C36   C     C_3   0.121751 0.499244 0.504789 0.189303
C37   C     C_3   0.878579 0.499396 0.504523 0.198028
C38   C     C_3   0.924903 0.510576 0.451751 -0.416687
C39   C     C_3   0.386800 0.083602 0.472059 -0.055406
C40   C     C_3   0.380937 0.921987 0.475743 -0.055485
C41   C     C_3   0.617994 0.082070 0.479154 -0.246653
C42   C     C_3   0.612937 0.921763 0.475215 -0.253436
C43   C     C_3   0.494873 0.078425 0.549331 -0.283183
C44   C     C_3   0.504356 0.916399 0.549433 -0.271110
C45   C     C_R   0.510194 0.343770 0.130982 -0.010885
C46   C     C_R   0.504779 0.355761 0.181469 0.496075
C47   C     C_R   0.665742 0.526008 0.180567 0.502191
C48   C     C_R   0.660782 0.445237 0.288988 -0.111158
C49   C     C_R   0.641626 0.460626 0.338423 -0.246041
C50   C     C_R   0.423207 0.523591 0.321694 -0.252874
C51   C     C_R   0.906187 0.589053 0.874018 0.192740
C52   C     C_R   0.972399 0.494608 0.846274 -0.098839
C53   C     C_R   0.085363 0.532215 0.824363 -0.118673
C54   C     C_R   0.133894 0.663499 0.830482 -0.097544
C55   C     C_R   0.069261 0.757571 0.858458 -0.138131
C56   C     C_R   0.430276 0.254399 0.106115 -0.140991
C57   C     C_R   0.955929 0.720560 0.880312 -0.146284
C58   C     C_R   0.361738 0.143688 0.420335 0.208972
C59   C     C_R   0.240404 0.196614 0.409073 -0.147850
C60   C     C_R   0.206347 0.238927 0.361811 -0.186920
C61   C     C_R   0.291932 0.227472 0.324387 -0.077069
C62   C     C_R   0.411797 0.173926 0.334187 -0.102229
C63   C     C_R   0.446321 0.131350 0.381424 -0.127310
C64   C     C_R   0.321946 0.858986 0.429417 0.183898
C65   C     C_R   0.387849 0.838916 0.385938 -0.074734
C66   C     C_R   0.323523 0.820477 0.341634 -0.171765
C67   C     C_R   0.677447 0.513624 0.130193 -0.018492
C68   C     C_R   0.192256 0.816931 0.339628 -0.112701
C69   C     C_R   0.124627 0.835385 0.381818 -0.145014
C70   C     C_R   0.188320 0.857473 0.425969 -0.218066
C71   C     C_R   0.522902 0.499940 0.354653 -0.002070
C72   C     C_R   0.513252 0.492826 0.647172 -0.038911
H1    H     H_    0.329634 0.546417 0.334418 0.151177
H2    H     H_    0.110806 0.613984 0.572651 0.160963
H3    H     H_    0.109806 0.359146 0.568041 0.164386
H4    H     H_    0.895071 0.615956 0.572099 0.164262
H5    H     H_    0.894407 0.354647 0.566655 0.162582
H6    H     H_    0.365269 0.529475 0.246598 0.146403
H7    H     H_    0.895240 0.720573 0.517696 0.170998
H8    H     H_    0.896209 0.274665 0.508306 0.171490
H9    H     H_    0.103662 0.603160 0.433733 0.188707
H10   H     H_    0.102134 0.422703 0.430461 0.164626
H11   H     H_    0.889399 0.606509 0.433853 0.165657
H12   H     H_    0.751926 0.411741 0.276613 0.146563
H13   H     H_    0.888605 0.423409 0.430128 0.155185
H14   H     H_    0.303976 0.118102 0.493016 0.091107
H15   H     H_    0.306290 0.900505 0.502957 0.091150
H16   H     H_    0.644028 0.134673 0.445056 0.146285
H17   H     H_    0.620174 0.891546 0.437171 0.128688
H18   H     H_    0.573005 0.120114 0.572250 0.156520
H19   H     H_    0.593188 0.883251 0.568545 0.157336
H20   H     H_    0.406367 0.110018 0.567148 0.144641
H21   H     H_    0.426511 0.872368 0.571226 0.149777
H22   H     H_    0.698943 0.108168 0.503753 0.140044
H23   H     H_    0.828127 0.661285 0.123105 0.186697
H24   H     H_    0.699836 0.878611 0.492932 0.149339
H25   H     H_    0.366065 0.187920 0.125479 0.186825
H26   H     H_    0.483100 0.709540 0.657405 0.148967
H27   H     H_    0.508736 0.694806 0.746537 0.138009
H28   H     H_    0.301532 0.270737 0.882494 0.180657
H29   H     H_    0.316119 0.246828 0.968388 0.140903
H30   H     H_    0.365393 0.180184 0.038929 0.142563
H31   H     H_    0.718225 0.438881 0.364119 0.123813
H32   H     H_    0.936405 0.392105 0.841674 0.121663
H33   H     H_    0.135268 0.459456 0.802700 0.182429
H34   H     H_    0.878056 0.577286 0.967321 0.143647
H35   H     H_    0.221649 0.692192 0.813626 0.134608
H36   H     H_    0.107124 0.859097 0.863298 0.134409
H37   H     H_    0.906939 0.794090 0.902069 0.126952
H38   H     H_    0.169015 0.199112 0.436478 0.098991
H39   H     H_    0.112351 0.278075 0.354037 0.130234
H40   H     H_    0.264905 0.258937 0.287701 0.173916
H41   H     H_    0.477390 0.162281 0.304871 0.167916
H42   H     H_    0.535384 0.079934 0.385514 0.090008
H43   H     H_    0.488524 0.844097 0.384348 0.118036
H44   H     H_    0.376098 0.809924 0.308560 0.152047
H45   H     H_    0.549048 0.274009 0.650265 0.150323
H46   H     H_    0.143025 0.801910 0.305262 0.139865
H47   H     H_    0.022451 0.835653 0.380249 0.131308
H48   H     H_    0.131899 0.881258 0.457061 0.101771
H49   H     H_    0.576135 0.262347 0.738396 0.137441
H50   H     H_    0.838092 0.649942 0.036793 0.142971
H51   H     H_    0.107496 0.720039 0.518940 0.172712
H52   H     H_    0.107671 0.273947 0.510997 0.166315
N1    N     N_R   0.578841 0.449155 0.204922 -0.350595
N2    N     N_R   0.556744 0.467009 0.799822 -0.351778
N3    N     N_3   0.499750 0.138610 0.498940 -0.052656
N4    N     N_3   0.499750 0.861390 0.498940 -0.051700
O1    O     O_R   0.314910 0.616040 0.499990 -0.626567
O2    O     O_2   0.366005 0.344986 0.800568 -0.600686
O3    O     O_2   0.738403 0.616275 0.204839 -0.577186
O4    O     O_2   0.744150 0.592495 0.796171 -0.560408
O5    O     O_R   0.314910 0.383960 0.499990 -0.634409
O6    O     O_R   0.500140 0.616020 0.428740 -0.620002
O7    O     O_R   0.500140 0.383980 0.428740 -0.603454
O8    O     O_R   0.685320 0.616040 0.499970 -0.634552
O9    O     O_R   0.685320 0.383960 0.499970 -0.637602
O10   O     O_R   0.500090 0.616050 0.571230 -0.630574
O11   O     O_R   0.500090 0.383950 0.571230 -0.630422
O12   O     O_2   0.425261 0.275722 0.206965 -0.607563
Zn1   Zn    Zn3+2 0.500150 0.654960 0.499980 0.912701
Zn2   Zn    Zn3+2 0.500150 0.345040 0.499980 0.912304

loop_
_geom_bond_atom_site_label_1
_geom_bond_atom_site_label_2
_ccdc_geom_bond_type
C10   C27   A    
C66   C68   A    
O9    Zn2   S    
C8    C13   A    
C22   C29   A    
C38   H11   S    
C41   C42   S    
C41   N3    S    
C46   N1    A    
C16   O9    A    
C25   C67   A    
C50   C71   A    
C11   O4    S    
C26   H34   S    
C35   H9    S    
C14   H27   S    
C28   C72   S    
C53   C54   A    
C15   C72   A    
C12   C23   A    
O5    Zn2   S    
C62   C63   A    
C66   H44   S    
C54   H35   S    
C42   H24   S    
C40   H15   S    
C4    O6    A    
C31   H52   S    
C1    O1    A    
C30   H2    S    
O11   Zn2   S    
O1    Zn1   S    
C40   N4    S    
C59   H38   S    
C18   C19   A    
C6    H29   S    
C44   H21   S    
C68   H46   S    
C63   H42   S    
O7    Zn2   S    
C57   H37   S    
C20   C24   A    
C45   C56   A    
C70   H48   S    
C68   C69   A    
C12   H6    S    
C32   H4    S    
C13   O2    S    
C31   C33   S    
C51   C57   A    
C64   C70   A    
N4    Zn1   S    
C61   C62   A    
C42   N4    S    
C16   C37   S    
C23   N1    S    
C59   C60   A    
C21   C22   A    
C65   H43   S    
C2    C6    A    
C28   O11   A    
C56   H25   S    
C1    O5    A    
C47   C67   A    
C35   H10   S    
C27   C51   S    
C47   N1    A    
C25   C29   A    
C43   H18   S    
C39   N3    S    
C7    H28   S    
C38   H13   S    
C2    C20   A    
C51   C52   A    
C7    C8    A    
C11   N2    A    
C28   O10   A    
C62   H41   S    
C50   H1    S    
C43   N3    S    
C39   C40   S    
C8    C9    A    
C21   C34   A    
C58   C59   A    
C45   C46   A    
C39   C58   S    
C69   H47   S    
C33   C37   S    
C48   H12   S    
C47   O3    S    
C60   C61   A    
C35   C36   S    
C43   C44   S    
C5    C9    A    
C37   C38   S    
C31   H3    S    
C41   H22   S    
C29   H50   S    
C35   C38   S    
C17   C18   A    
C26   C27   A    
C34   C45   A    
C32   C37   S    
C30   H51   S    
C44   H19   S    
C4    O7    A    
C13   N2    A    
C48   C49   A    
C25   H23   S    
C55   C57   A    
C2    C5    A    
C15   H26   S    
C16   O8    A    
C52   C53   A    
C46   O12   S    
C9    C10   A    
C58   C63   A    
C41   H16   S    
C54   C55   A    
C44   N4    S    
C23   C48   A    
C31   C36   S    
C14   C19   A    
C3    C26   A    
C3    C5    A    
O10   Zn1   S    
C34   C67   A    
C49   H31   S    
C12   C50   A    
C33   H8    S    
C6    C7    A    
C17   H45   S    
C24   C56   A    
C19   N2    S    
C43   H20   S    
C40   C64   S    
C30   C36   S    
C55   H36   S    
C42   H17   S    
C64   C65   A    
C60   H39   S    
C32   H7    S    
C30   C32   S    
C33   H5    S    
O8    Zn1   S    
C52   H32   S    
C24   H30   S    
C69   C70   A    
C10   C11   A    
C18   H49   S    
C53   H33   S    
C20   C21   A    
C17   C72   A    
C65   C66   A    
C49   C71   A    
C14   C15   A    
C3    C22   A    
C39   H14   S    
C61   H40   S    
N3    Zn2   S    
C4    C71   S    
C1    C36   S    
O6    Zn1   S    
