data_mof_unit_21476.cif
_audit_creation_date              2012-10-26T20:16:55-0400
_audit_creation_method            fapswitch 2.2
_symmetry_space_group_name_H-M    P1
_symmetry_Int_Tables_number       1
_space_group_crystal_system       triclinic
_cell_length_a                    10.85523
_cell_length_b                    10.82609
_cell_length_c                    10.434257
_cell_angle_alpha                 90.054496
_cell_angle_beta                  89.993029
_cell_angle_gamma                 90.116144
_cell_volume                      1226.22763774

loop_
_atom_site_label
_atom_site_type_symbol
_atom_type_description
_atom_site_fract_x
_atom_site_fract_y
_atom_site_fract_z
_atom_type_partial_charge
Br1   Br    Br    0.275572 0.775710 0.893389 -0.578472
Br2   Br    Br    0.724562 0.222985 0.106013 -0.578614
C1    C     C_R   0.494999 0.261645 0.499866 0.545148
C2    C     C_R   0.749014 0.821449 0.665479 -0.074296
C3    C     C_R   0.360146 0.118195 0.299647 0.044984
C4    C     C_R   0.639701 0.881797 0.700450 0.044848
C5    C     C_R   0.390278 0.106070 0.169320 -0.068041
C6    C     C_R   0.609325 0.893732 0.830735 -0.067756
C7    C     C_R   0.312666 0.155287 0.075493 -0.094011
C8    C     C_R   0.686794 0.844408 0.924650 -0.093706
C9    C     C_R   0.203681 0.214741 0.111124 -0.093628
C10   C     C_R   0.795879 0.785043 0.889151 -0.093693
C11   C     C_R   0.448020 0.932771 0.399720 -0.146251
C12   C     C_R   0.504990 0.738357 0.500135 0.545183
C13   C     C_R   0.551931 0.067233 0.600296 -0.146374
C14   C     C_R   0.507516 0.871990 0.500074 0.011042
C15   C     C_R   0.492452 0.128015 0.499932 0.010986
C16   C     C_R   0.261593 0.504799 0.499506 0.544836
C17   C     C_R   0.738408 0.495231 0.500494 0.544861
C18   C     C_R   0.562042 0.939568 0.600753 -0.017194
C19   C     C_R   0.437900 0.060438 0.399267 -0.017070
C20   C     C_1   0.499989 0.500000 0.071961 0.142146
C21   C     C_1   0.500018 0.499994 0.928039 0.142411
C22   C     C_R   0.220152 0.767784 0.163074 -0.081606
C23   C     C_R   0.871985 0.493006 0.501654 -0.001533
C24   C     C_R   0.780358 0.231478 0.836396 -0.081784
C25   C     C_R   0.174404 0.714859 0.275944 -0.098144
C26   C     C_R   0.826029 0.284741 0.723653 -0.098549
C27   C     C_R   0.117221 0.598399 0.272400 0.048046
C28   C     C_R   0.882777 0.401402 0.727447 0.048054
C29   C     C_R   0.106303 0.536440 0.154588 -0.129218
C30   C     C_R   0.893305 0.463249 0.845371 -0.129075
C31   C     C_R   0.155537 0.587804 0.042945 -0.099180
C32   C     C_R   0.844115 0.411546 0.956886 -0.099229
C33   C     C_R   0.211981 0.703789 0.046927 0.178328
C34   C     C_R   0.128014 0.507100 0.498352 -0.001492
C35   C     C_R   0.788118 0.295349 0.952658 0.178485
C36   C     C_R   0.932993 0.536411 0.392477 -0.149960
C37   C     C_R   0.066998 0.463727 0.607543 -0.149830
C38   C     C_R   0.939610 0.454857 0.610553 -0.029535
C39   C     C_R   0.060387 0.545233 0.389438 -0.029526
C40   C     C_R   0.172619 0.225732 0.240706 -0.093710
C41   C     C_R   0.827188 0.774262 0.759612 -0.093834
C42   C     C_R   0.250934 0.178645 0.334745 -0.074151
Cu1   Cu    Cu3+1 0.500000 0.500000 0.625300 1.024716
Cu2   Cu    Cu3+1 0.500000 0.500000 0.374700 1.024425
H1    H     H_    0.473336 0.058185 0.140603 0.144864
H2    H     H_    0.819645 0.234200 0.634245 0.109697
H3    H     H_    0.058843 0.448866 0.148944 0.106256
H4    H     H_    0.940430 0.550988 0.851208 0.106271
H5    H     H_    0.148437 0.538132 0.953187 0.127749
H6    H     H_    0.850909 0.461116 0.046743 0.127764
H7    H     H_    0.880985 0.567573 0.309843 0.137938
H8    H     H_    0.118998 0.432543 0.690175 0.138021
H9    H     H_    0.142931 0.251452 0.038330 0.118523
H10   H     H_    0.856510 0.748236 0.962017 0.118411
H11   H     H_    0.087291 0.269523 0.268719 0.125951
H12   H     H_    0.526175 0.941527 0.859350 0.144871
H13   H     H_    0.912594 0.730544 0.731705 0.126039
H14   H     H_    0.225296 0.186978 0.434717 0.099941
H15   H     H_    0.774827 0.813255 0.565542 0.100049
H16   H     H_    0.336349 0.146138 0.975165 0.130752
H17   H     H_    0.662917 0.853393 0.024944 0.130821
H18   H     H_    0.404941 0.880023 0.323996 0.120411
H19   H     H_    0.594975 0.119978 0.676047 0.120673
H20   H     H_    0.260676 0.859020 0.165177 0.129095
H21   H     H_    0.740217 0.140074 0.834101 0.129313
H22   H     H_    0.181099 0.765494 0.365261 0.109646
N1    N     N_1   0.500010 0.499990 0.186410 -0.172434
N2    N     N_1   0.499990 0.500010 0.813590 -0.172171
O1    O     O_R   0.499990 0.319650 0.605810 -0.516766
O2    O     O_R   0.500010 0.680350 0.394190 -0.516833
O3    O     O_R   0.499990 0.319640 0.394190 -0.460692
O4    O     O_R   0.500010 0.680360 0.605810 -0.460557
O5    O     O_R   0.319640 0.500010 0.605810 -0.493727
O6    O     O_R   0.680360 0.499990 0.394190 -0.493973
O7    O     O_R   0.319650 0.500010 0.394190 -0.492498
O8    O     O_R   0.680350 0.499990 0.605810 -0.492446

loop_
_geom_bond_atom_site_label_1
_geom_bond_atom_site_label_2
_ccdc_geom_bond_type
C16   O5    A    
Cu1   O1    S    
C32   C35   A    
C8    H17   S    
C22   C25   A    
Cu2   O6    S    
Cu1   Cu2   S    
C36   H7    S    
C24   H21   S    
C12   O4    A    
C17   O6    A    
C10   C41   A    
C23   C38   A    
C37   H8    S    
C25   C27   A    
C13   H19   S    
C9    C40   A    
C5    C7    A    
Cu2   N1    S    
C25   H22   S    
C6    H12   S    
C29   C31   A    
Cu1   O8    S    
C20   N1    T    
Cu2   O2    S    
C22   H20   S    
C21   N2    T    
C34   C39   A    
C40   C42   A    
C29   H3    S    
C17   C23   S    
C40   H11   S    
C24   C26   A    
C13   C18   A    
C22   C33   A    
C28   C38   S    
C7    H16   S    
C36   C39   A    
C2    C4    A    
C37   C38   A    
C3    C5    A    
C4    C6    A    
C2    H15   S    
C15   C19   A    
Cu1   O4    S    
C30   C32   A    
C17   O8    A    
C1    O1    A    
C23   C36   A    
C14   C18   A    
C11   C19   A    
C7    C9    A    
C30   H4    S    
C10   H10   S    
C8    C10   A    
C3    C42   A    
C12   C14   S    
C9    H9    S    
Br1   C33   S    
C13   C15   A    
C26   H2    S    
C27   C39   S    
Cu1   N2    S    
C12   O2    A    
C34   C37   A    
Cu2   O7    S    
C24   C35   A    
C2    C41   A    
C41   H13   S    
C31   H5    S    
C4    C18   S    
C32   H6    S    
Cu1   O5    S    
C26   C28   A    
C27   C29   A    
C28   C30   A    
Br2   C35   S    
C11   H18   S    
C42   H14   S    
C16   O7    A    
C31   C33   A    
C1    C15   S    
C1    O3    A    
C3    C19   S    
C6    C8    A    
C11   C14   A    
C20   C21   S    
C16   C34   S    
Cu2   O3    S    
C5    H1    S    
