data_mof_unit_52819.cif
_audit_creation_date              2012-12-10T17:11:54-0500
_audit_creation_method            fapswitch 2.2
_symmetry_space_group_name_H-M    P1
_symmetry_Int_Tables_number       1
_space_group_crystal_system       triclinic
_cell_length_a                    19.168855
_cell_length_b                    10.69262
_cell_length_c                    10.088961
_cell_angle_alpha                 91.3852
_cell_angle_beta                  89.783782
_cell_angle_gamma                 90.274617
_cell_volume                      2067.24485265

loop_
_atom_site_label
_atom_site_type_symbol
_atom_type_description
_atom_site_fract_x
_atom_site_fract_y
_atom_site_fract_z
_atom_type_partial_charge
C1    C     C_R   0.501002 0.262601 0.498165 0.964668
C2    C     C_R   0.854234 0.514259 0.487100 -0.152833
C3    C     C_2   0.521085 0.929993 0.390576 -0.308813
C4    C     C_R   0.365590 0.498869 0.500215 0.865412
C5    C     C_2   0.517697 0.868180 0.503907 -0.398634
C6    C     C_2   0.531057 0.065426 0.392387 0.522757
C7    C     C_2   0.500502 0.129713 0.492710 -0.406506
C8    C     C_2   0.501968 0.599391 0.931827 0.104790
C9    C     C_2   0.525511 0.589837 0.074919 0.199196
C10   C     C_R   0.503348 0.737313 0.501328 0.950107
C11   C     C_R   0.634015 0.503206 0.499767 0.863795
C12   C     C_R   0.289628 0.494573 0.500415 -0.074628
C13   C     C_R   0.252954 0.502328 0.620381 -0.147854
C14   C     C_R   0.180223 0.499902 0.621959 -0.040980
C15   C     C_R   0.144395 0.488081 0.499972 -0.020642
C16   C     C_R   0.181260 0.476510 0.378353 0.007068
C17   C     C_R   0.253751 0.481161 0.380495 -0.279498
C18   C     C_3   0.605347 0.051200 0.206549 0.055643
C19   C     C_3   0.650233 0.131858 0.117823 -0.660855
C20   C     C_2   0.465555 0.714304 0.892896 0.445422
C21   C     C_2   0.543798 0.397550 0.884839 0.606153
C22   C     C_2   0.581242 0.674107 0.125749 0.401397
C23   C     C_R   0.929588 0.508695 0.492800 0.334811
C24   C     C_3   0.435060 0.326581 0.131360 0.221373
C25   C     C_3   0.387492 0.259105 0.032249 -0.905902
C26   C     C_2   0.142623 0.513328 0.751062 0.418903
C27   C     C_2   0.147273 0.458351 0.246657 0.431720
C28   C     C_3   0.859943 0.802902 0.578325 0.108735
C29   C     C_3   0.911287 0.890334 0.648763 -0.696176
C30   C     C_2   0.708384 0.685246 0.671465 0.489311
C31   C     C_2   0.853220 0.341029 0.311193 0.460278
C32   C     C_R   0.069185 0.495526 0.499286 0.320844
C33   C     C_R   0.819335 0.602437 0.569017 0.512072
C34   C     C_R   0.746144 0.597906 0.579294 -0.158387
C35   C     C_R   0.709454 0.510895 0.497981 -0.204036
C36   C     C_R   0.744644 0.429720 0.410590 -0.130985
C37   C     C_R   0.817122 0.428964 0.405024 -0.067373
H1    H     H_    0.281128 0.512323 0.712970 0.199352
H2    H     H_    0.682470 0.071365 0.051087 0.236917
H3    H     H_    0.616505 0.191544 0.056674 0.249649
H4    H     H_    0.430531 0.712032 0.808913 0.097909
H5    H     H_    0.525177 0.303068 0.865804 0.034284
H6    H     H_    0.599284 0.668788 0.226665 0.095173
H7    H     H_    0.409422 0.319071 0.229214 0.191129
H8    H     H_    0.486612 0.278808 0.130015 0.171792
H9    H     H_    0.408261 0.266857 0.930026 0.251643
H10   H     H_    0.383540 0.158600 0.056712 0.240239
H11   H     H_    0.334514 0.300749 0.036393 0.271267
H12   H     H_    0.528280 0.912946 0.599592 0.173269
H13   H     H_    0.086171 0.517988 0.754827 0.094500
H14   H     H_    0.178148 0.467405 0.156902 0.107537
H15   H     H_    0.807830 0.848201 0.579683 0.147517
H16   H     H_    0.877289 0.790636 0.473267 0.139560
H17   H     H_    0.964207 0.848427 0.647133 0.253603
H18   H     H_    0.913281 0.981341 0.598083 0.207762
H19   H     H_    0.894664 0.906805 0.753289 0.272385
H20   H     H_    0.655254 0.712929 0.650738 0.051530
H21   H     H_    0.909190 0.346664 0.296321 0.111059
H22   H     H_    0.471773 0.085039 0.571675 0.124092
H23   H     H_    0.282363 0.472927 0.287780 0.171497
H24   H     H_    0.715000 0.364926 0.348288 0.199151
H25   H     H_    0.513732 0.882152 0.295538 0.193945
H26   H     H_    0.570490 0.993823 0.141306 0.202373
H27   H     H_    0.640520 0.990005 0.263799 0.166450
H28   H     H_    0.685170 0.192506 0.179121 0.276408
N1    N     N_R   0.030099 0.398166 0.540715 -0.158340
N2    N     N_R   0.961032 0.404745 0.537529 -0.161578
N3    N     N_R   0.968780 0.606081 0.451852 -0.148203
N4    N     N_R   0.037821 0.599618 0.455073 -0.138043
N5    N     N_2   0.500750 0.501330 0.852150 -0.218738
N6    N     N_2   0.500770 0.501360 0.147810 -0.009664
O1    O     O_R   0.499990 0.319060 0.613040 -0.648846
O2    O     O_2   0.471712 0.811556 0.957788 -0.584175
O3    O     O_2   0.603511 0.413221 0.924343 -0.595182
O4    O     O_2   0.609136 0.749401 0.053263 -0.547296
O5    O     O_3   0.440653 0.452993 0.097497 -0.574252
O6    O     O_2   0.174434 0.519637 0.855712 -0.571960
O7    O     O_2   0.085773 0.429990 0.235706 -0.544549
O8    O     O_3   0.857743 0.687806 0.644500 -0.563620
O9    O     O_2   0.735892 0.726266 0.772564 -0.476852
O10   O     O_2   0.820722 0.261191 0.248283 -0.573768
O11   O     O_R   0.500010 0.319100 0.386900 -0.597950
O12   O     O_R   0.398130 0.499970 0.613110 -0.638729
O13   O     O_R   0.398150 0.500010 0.386970 -0.602963
O14   O     O_R   0.499990 0.680900 0.613100 -0.652463
O15   O     O_R   0.500010 0.680940 0.386960 -0.636068
O16   O     O_R   0.601850 0.499990 0.613030 -0.596784
O17   O     O_R   0.601870 0.500030 0.386890 -0.637986
O18   O     O_3   0.565475 0.129695 0.291720 -0.617886
Zn1   Zn    Zn3+2 0.499990 0.499970 0.650990 0.953387
Zn2   Zn    Zn3+2 0.500010 0.500030 0.349010 0.980163

loop_
_geom_bond_atom_site_label_1
_geom_bond_atom_site_label_2
_ccdc_geom_bond_type
C8    C9    S    
C10   O14   A    
C35   C36   A    
C3    C6    S    
C20   H4    S    
C15   C32   S    
C28   C29   S    
C8    C20   S    
C24   H8    S    
C31   H21   S    
C36   C37   A    
C18   C19   S    
O15   Zn2   S    
C26   H13   S    
N6    O5    S    
C9    C22   S    
C29   H17   S    
C15   C16   A    
C30   H20   S    
C34   C35   A    
C23   N2    A    
C28   O8    S    
N3    N4    A    
C11   O16   A    
C16   C17   A    
C12   C17   A    
O13   Zn2   S    
C4    C12   S    
C25   H10   S    
C30   O9    D    
C27   O7    D    
C16   C27   S    
N1    N2    A    
C13   C14   A    
C5    H12   S    
N5    Zn1   S    
C22   O4    D    
C7    H22   S    
C27   H14   S    
C1    O1    A    
C30   C34   S    
C26   O6    D    
C24   C25   S    
C33   O8    S    
C29   H18   S    
C1    O11   A    
C21   O3    D    
O11   Zn2   S    
C31   C37   S    
C23   N3    A    
O1    Zn1   S    
C22   H6    S    
C4    O13   A    
O17   Zn2   S    
C11   O17   A    
C28   H16   S    
C33   C34   A    
C14   C26   S    
C25   H11   S    
C13   H1    S    
C6    C7    D    
C19   H2    S    
C2    C33   A    
C24   H7    S    
C36   H24   S    
C32   N1    A    
C3    H25   S    
O12   Zn1   S    
C10   O15   A    
C1    C7    S    
C18   O18   S    
C24   O5    S    
C9    N6    D    
C3    C5    D    
O14   Zn1   S    
C32   N4    A    
C29   H19   S    
C6    O18   S    
C8    N5    D    
C31   O10   D    
C21   N5    S    
C11   C35   S    
C5    C10   S    
C28   H15   S    
C2    C37   A    
C18   H27   S    
C4    O12   A    
C20   O2    D    
C19   H28   S    
C18   H26   S    
C19   H3    S    
C17   H23   S    
C21   H5    S    
N6    Zn2   S    
C12   C13   A    
O16   Zn1   S    
C2    C23   S    
C14   C15   A    
C25   H9    S    
