data_mof_unit_13779.cif
_audit_creation_date              2012-12-10T18:13:26-0500
_audit_creation_method            fapswitch 2.2
_symmetry_space_group_name_H-M    P1
_symmetry_Int_Tables_number       1
_space_group_crystal_system       triclinic
_cell_length_a                    12.683838
_cell_length_b                    13.200335
_cell_length_c                    16.648886
_cell_angle_alpha                 89.357117
_cell_angle_beta                  97.561046
_cell_angle_gamma                 98.078246
_cell_volume                      2735.80606642

loop_
_atom_site_label
_atom_site_type_symbol
_atom_type_description
_atom_site_fract_x
_atom_site_fract_y
_atom_site_fract_z
_atom_type_partial_charge
C1    C     C_R   0.561050 0.691579 0.510129 0.844515
C2    C     C_R   0.425118 0.384150 0.238919 -0.237777
C3    C     C_R   0.536442 0.420169 0.865439 -0.164168
C4    C     C_R   0.551547 0.447198 0.787157 -0.164950
C5    C     C_R   0.391317 0.531309 0.773022 -0.025592
C6    C     C_R   0.374527 0.499225 0.851514 -0.131552
C7    C     C_R   0.444836 0.441069 0.896792 0.120440
C8    C     C_2   0.473479 0.348488 0.027898 0.113928
C9    C     C_2   0.433460 0.422799 0.982327 -0.282823
C10   C     C_R   0.477346 0.498041 0.738407 -0.163397
C11   C     C_R   0.279934 0.049040 0.493595 -0.202948
C12   C     C_R   0.512374 0.494966 0.349422 0.841943
C13   C     C_R   0.405898 0.198384 0.473492 -0.148616
C14   C     C_R   0.706794 0.839835 0.491930 0.161124
C15   C     C_R   0.726575 0.942310 0.468709 -0.124711
C16   C     C_R   0.648647 0.005687 0.467824 -0.242803
C17   C     C_R   0.550859 0.972584 0.498194 0.102343
C18   C     C_R   0.531084 0.871734 0.525863 0.026403
C19   C     C_R   0.469270 0.035089 0.497467 0.059822
C20   C     C_R   0.366943 0.994955 0.517762 0.057444
C21   C     C_R   0.355552 0.901706 0.559563 0.139353
C22   C     C_R   0.439292 0.842452 0.564920 -0.199880
C23   C     C_R   0.440285 0.308936 0.485432 0.872245
C24   C     C_R   0.488314 0.138360 0.480794 -0.286902
C25   C     C_R   0.298256 0.149431 0.463475 0.235433
C26   C     C_R   0.602720 0.802122 0.513516 -0.183821
C27   C     C_R   0.909269 0.426879 0.651887 -0.232928
C28   C     C_R   0.208821 0.613660 0.393127 -0.090319
C29   C     C_R   0.107544 0.642005 0.369358 -0.039828
C30   C     C_R   0.023918 0.605093 0.413362 -0.226098
C31   C     C_R   0.041582 0.540475 0.480112 -0.030451
C32   C     C_R   0.146929 0.518723 0.505019 0.195946
C33   C     C_R   0.958268 0.498057 0.524500 -0.025602
C34   C     C_R   0.487304 0.505089 0.651365 0.822081
C35   C     C_R   0.986936 0.469937 0.605679 0.087018
C36   C     C_R   0.093655 0.465863 0.635194 -0.211672
C37   C     C_R   0.167092 0.468097 0.580240 -0.045676
C38   C     C_R   0.849371 0.473687 0.490454 0.206381
C39   C     C_R   0.802569 0.410500 0.617600 0.106411
C40   C     C_R   0.508133 0.462211 0.266165 -0.076591
C41   C     C_R   0.589286 0.497350 0.217750 0.130105
C42   C     C_R   0.588120 0.446650 0.142784 -0.014435
C43   C     C_R   0.498676 0.372932 0.114443 0.042833
C44   C     C_R   0.418834 0.341906 0.162904 -0.171145
H1    H     H_    0.309001 0.522919 0.879072 0.177184
H2    H     H_    0.198948 0.010610 0.493636 0.160917
H3    H     H_    0.569485 0.174864 0.480156 0.169376
H4    H     H_    0.667372 0.079817 0.441280 0.139401
H5    H     H_    0.800718 0.974081 0.446935 0.159974
H6    H     H_    0.431998 0.772572 0.599454 0.151982
H7    H     H_    0.621730 0.427090 0.764874 0.202980
H8    H     H_    0.113019 0.434123 0.695007 0.155953
H9    H     H_    0.932791 0.399148 0.712281 0.197439
H10   H     H_    0.274865 0.640818 0.359839 0.143239
H11   H     H_    0.945586 0.628405 0.396446 0.182864
H12   H     H_    0.405660 0.484665 0.012904 0.154536
H13   H     H_    0.349472 0.287230 0.140658 0.161613
H14   H     H_    0.598111 0.384391 0.901332 0.143044
H15   H     H_    0.363648 0.356530 0.276535 0.152921
N1    N     N_R   0.774070 0.445420 0.541180 -0.153873
N2    N     N_R   0.226730 0.554050 0.459240 -0.135479
O1    O     O_R   0.631480 0.627510 0.519670 -0.623086
O2    O     O_R   0.455770 0.662400 0.493360 -0.603042
O3    O     O_R   0.598240 0.480510 0.398910 -0.618984
O4    O     O_R   0.422540 0.515400 0.372600 -0.614899
O5    O     O_R   0.544230 0.337600 0.506640 -0.655203
O6    O     O_R   0.368520 0.372490 0.480330 -0.596564
O7    O     O_R   0.577460 0.484600 0.627400 -0.621216
O8    O     O_R   0.401760 0.519490 0.601090 -0.659289
Zn1   Zn    Zn3+2 0.617320 0.476700 0.517570 0.907989
Zn2   Zn    Zn3+2 0.382680 0.523300 0.482430 0.932427
C45   C     C_3   0.666691 0.595022 0.241255 -0.385426
C46   C     C_3   0.642052 0.683257 0.184920 -0.804246
H16   H     H_    0.654042 0.666904 0.121825 0.267292
H17   H     H_    0.557787 0.697045 0.185769 0.241592
H18   H     H_    0.696562 0.753962 0.205890 0.262316
H19   H     H_    0.661190 0.621411 0.303318 0.176709
H20   H     H_    0.751286 0.582534 0.241753 0.267619
C47   C     C_3   0.212879 0.191248 0.403967 -0.336586
C48   C     C_3   0.096828 0.143489 0.409777 -0.829658
H21   H     H_    0.082388 0.063208 0.387234 0.241971
H22   H     H_    0.078722 0.145478 0.473136 0.290486
H23   H     H_    0.040794 0.187165 0.371368 0.248699
H24   H     H_    0.216836 0.274969 0.409457 0.258128
H25   H     H_    0.230472 0.177295 0.341711 0.172900
C49   C     C_3   0.261159 0.867573 0.605127 -0.423920
C50   C     C_3   0.187962 0.777783 0.562478 -0.815795
H26   H     H_    0.158372 0.799240 0.499737 0.255508
H27   H     H_    0.232755 0.711867 0.560666 0.266544
H28   H     H_    0.118537 0.754954 0.596168 0.265960
H29   H     H_    0.291382 0.844244 0.667346 0.225004
H30   H     H_    0.213745 0.930460 0.612897 0.211503
C51   C     C_3   0.794406 0.771387 0.491157 -0.359959
C52   C     C_3   0.906532 0.825597 0.480526 -0.919761
H31   H     H_    0.908209 0.855787 0.418100 0.278683
H32   H     H_    0.932862 0.888211 0.525851 0.267244
H33   H     H_    0.964310 0.769867 0.490449 0.262327
H34   H     H_    0.803702 0.731792 0.550407 0.235428
H35   H     H_    0.769923 0.713465 0.441837 0.213934
C53   C     C_2   0.725015 0.343105 0.660370 0.372577
H36   H     H_    0.644675 0.317735 0.631924 0.134578
O9    O     O_2   0.751584 0.310815 0.728013 -0.607555
C54   C     C_3   0.820574 0.448883 0.400713 -0.370704
C55   C     C_3   0.762423 0.339730 0.385536 -0.802134
H37   H     H_    0.689298 0.325192 0.415799 0.285104
H38   H     H_    0.816731 0.283741 0.408555 0.234309
H39   H     H_    0.738686 0.326859 0.319422 0.250087
H40   H     H_    0.774281 0.506477 0.371123 0.211193
H41   H     H_    0.892519 0.451020 0.369329 0.211526
C56   C     C_2   0.090790 0.710295 0.299279 0.407361
H42   H     H_    0.157319 0.738200 0.266337 0.055242
O10   O     O_2   0.002876 0.736338 0.277485 -0.566558
C57   C     C_2   0.225919 0.380011 0.591396 0.516493
H43   H     H_    0.285548 0.375512 0.643778 0.054128
O11   O     O_2   0.194400 0.303384 0.550520 -0.608741
C58   C     C_2   0.324311 0.605420 0.732220 0.358542
H44   H     H_    0.348053 0.647769 0.680106 0.084682
O12   O     O_2   0.242833 0.622726 0.758107 -0.579329
C59   C     C_3   0.499777 0.249560 0.994926 -0.378330
C60   C     C_3   0.446264 0.155847 0.036165 -0.843689
H45   H     H_    0.478214 0.155277 0.101534 0.259601
H46   H     H_    0.357864 0.155259 0.029242 0.259952
H47   H     H_    0.463346 0.085289 0.007674 0.254333
H48   H     H_    0.471548 0.241025 0.929039 0.225623
H49   H     H_    0.588194 0.250006 0.004739 0.203059
C61   C     C_2   0.676942 0.470492 0.092244 0.377350
H50   H     H_    0.660733 0.465781 0.026897 0.070623
O13   O     O_2   0.770162 0.491221 0.123013 -0.557101

loop_
_geom_bond_atom_site_label_1
_geom_bond_atom_site_label_2
_ccdc_geom_bond_type
C50   H26   S    
C51   C52   S    
C6    H1    S    
C48   H21   S    
C38   C54   S    
C41   C42   A    
C35   C36   A    
C18   C26   A    
C8    C43   S    
C1    O1    A    
C16   H4    S    
C55   H38   S    
C59   H48   S    
C13   C23   S    
C29   C30   A    
C5    C6    A    
C23   O5    A    
C36   C37   A    
C32   N2    A    
C3    C7    A    
C49   H29   S    
C47   H24   S    
C12   O3    A    
C37   C57   S    
C11   C25   A    
C15   C16   A    
C58   H44   S    
O1    Zn1   S    
C46   H16   S    
C23   O6    A    
O8    Zn2   S    
C56   H42   S    
C45   H20   S    
C17   C19   A    
C19   C20   A    
C2    C44   A    
C16   C17   A    
C31   C33   A    
C54   H40   S    
O3    Zn1   S    
C51   H35   S    
C14   C51   S    
C36   H8    S    
C60   H47   S    
C22   H6    S    
C28   N2    A    
N2    Zn2   S    
C25   C47   S    
C21   C22   A    
C46   H17   S    
C13   C25   A    
C48   H23   S    
C1    O2    A    
C55   H37   S    
C60   H46   S    
C11   C20   A    
C4    H7    S    
C27   C39   A    
C29   C56   S    
C48   H22   S    
C34   O7    A    
C28   H10   S    
C49   C50   S    
C8    C9    D    
C52   H33   S    
C27   C35   A    
O4    Zn2   S    
C13   C24   A    
C12   C40   S    
C43   C44   A    
C45   H19   S    
C31   C32   A    
N1    Zn1   S    
C44   H13   S    
C53   O9    D    
C17   C18   A    
C10   C34   S    
C9    H12   S    
C32   C37   A    
C14   C26   A    
C52   H32   S    
C34   O8    A    
C41   C45   S    
C38   N1    A    
C59   H49   S    
C40   C41   A    
C2    H15   S    
O2    Zn2   S    
C50   H27   S    
C5    C58   S    
C1    C26   S    
C46   H18   S    
C42   C43   A    
C4    C10   A    
C3    C4    A    
C47   H25   S    
C60   H45   S    
C57   H43   S    
C12   O4    A    
C7    C9    S    
C21   C49   S    
C28   C29   A    
C61   O13   D    
C18   C22   A    
C24   H3    S    
C45   C46   S    
C59   C60   S    
C27   H9    S    
C6    C7    A    
C30   H11   S    
C33   C38   A    
C54   H41   S    
C19   C24   A    
C5    C10   A    
C49   H30   S    
C30   C31   A    
C39   C53   S    
O5    Zn1   S    
C61   H50   S    
C39   N1    A    
C53   H36   S    
C33   C35   A    
C58   O12   D    
O6    Zn2   S    
C15   H5    S    
C52   H31   S    
C56   O10   D    
C42   C61   S    
C47   C48   S    
C3    H14   S    
C2    C40   A    
C20   C21   A    
O7    Zn1   S    
C50   H28   S    
C54   C55   S    
C14   C15   A    
C11   H2    S    
C51   H34   S    
C55   H39   S    
C8    C59   S    
C57   O11   D    
