data_mof_unit_50873.cif
_audit_creation_date              2012-12-11T16:26:15-0500
_audit_creation_method            fapswitch 2.2
_symmetry_space_group_name_H-M    P1
_symmetry_Int_Tables_number       1
_space_group_crystal_system       triclinic
_cell_length_a                    13.954426
_cell_length_b                    13.954703
_cell_length_c                    31.746423
_cell_angle_alpha                 90.001633
_cell_angle_beta                  90.002697
_cell_angle_gamma                 120.003797
_cell_volume                      5353.5441174

loop_
_atom_site_label
_atom_site_type_symbol
_atom_type_description
_atom_site_fract_x
_atom_site_fract_y
_atom_site_fract_z
_atom_type_partial_charge
C1    C     C_R   0.564958 0.445663 0.809720 0.554572
C2    C     C_R   0.880695 0.435042 0.690281 0.554617
C3    C     C_R   0.554334 0.119302 0.809721 0.554547
C4    C     C_R   0.564958 0.445647 0.690276 0.554623
C5    C     C_R   0.880701 0.435036 0.809719 0.554570
C6    C     C_R   0.554337 0.119303 0.690280 0.554618
C7    C     C_R   0.445664 0.564972 0.309721 0.554623
C8    C     C_R   0.435054 0.880713 0.190286 0.554604
C9    C     C_R   0.119310 0.554338 0.309722 0.554594
C10   C     C_R   0.445645 0.564949 0.190281 0.554623
C11   C     C_R   0.435030 0.880690 0.309724 0.554584
C12   C     C_R   0.119305 0.554341 0.190277 0.554585
C13   C     C_1   0.002050 0.497976 0.018910 0.048669
C14   C     C_1   0.495381 0.997284 0.481139 0.048543
C15   C     C_1   0.501450 0.503340 0.018920 0.048637
C16   C     C_1   0.002811 0.498318 0.481146 0.048532
C17   C     C_1   0.496368 0.998398 0.018958 0.048671
C18   C     C_1   0.501666 0.504383 0.481137 0.048523
C19   C     C_1   0.497731 0.002014 0.518917 0.048675
C20   C     C_1   0.997337 0.495612 0.981134 0.048563
C21   C     C_1   0.503999 0.502005 0.518916 0.048649
C22   C     C_1   0.498714 0.003109 0.981179 0.048453
C23   C     C_1   0.998090 0.495984 0.518928 0.048678
C24   C     C_1   0.503787 0.501005 0.981141 0.048485
C25   C     C_R   0.945562 0.478851 0.849346 -0.019121
C26   C     C_R   0.533287 0.054404 0.650664 -0.019082
C27   C     C_R   0.521096 0.466666 0.849340 -0.019199
C28   C     C_R   0.945615 0.478943 0.650671 -0.019100
C29   C     C_R   0.533311 0.054501 0.849357 -0.019129
C30   C     C_R   0.521067 0.466645 0.650661 -0.019099
C31   C     C_R   0.478815 0.945522 0.349358 -0.019092
C32   C     C_R   0.054405 0.533319 0.150662 -0.019125
C33   C     C_R   0.466705 0.521185 0.349352 -0.019098
C34   C     C_R   0.479008 0.945701 0.150693 -0.019136
C35   C     C_R   0.054492 0.533301 0.349356 -0.019098
C36   C     C_R   0.466603 0.520982 0.150676 -0.019164
C37   C     C_R   0.937778 0.560446 0.873338 0.046769
C38   C     C_R   0.622692 0.062448 0.626613 0.046778
C39   C     C_R   0.439109 0.377286 0.873218 0.046860
C40   C     C_R   0.937636 0.560380 0.626642 0.046803
C41   C     C_R   0.622689 0.062131 0.873306 0.046781
C42   C     C_R   0.439613 0.377222 0.626637 0.046786
C43   C     C_R   0.560334 0.937670 0.373374 0.046759
C44   C     C_R   0.062380 0.622744 0.126640 0.046799
C45   C     C_R   0.377338 0.439531 0.373330 0.046769
C46   C     C_R   0.560562 0.937853 0.126693 0.046839
C47   C     C_R   0.062271 0.622679 0.373350 0.046771
C48   C     C_R   0.377154 0.439264 0.126730 0.046852
C49   C     C_R   0.955099 0.565532 0.916988 -0.034959
C50   C     C_R   0.610259 0.044924 0.582979 -0.034770
C51   C     C_R   0.433709 0.389316 0.916868 -0.034970
C52   C     C_R   0.955209 0.565562 0.583008 -0.034776
C53   C     C_R   0.610581 0.044879 0.916956 -0.034968
C54   C     C_R   0.434397 0.389598 0.583003 -0.034787
C55   C     C_R   0.565400 0.955051 0.417019 -0.034925
C56   C     C_R   0.044866 0.610389 0.083007 -0.034783
C57   C     C_R   0.389590 0.434349 0.416983 -0.034955
C58   C     C_R   0.565850 0.955497 0.083061 -0.034735
C59   C     C_R   0.044919 0.610434 0.416998 -0.034925
C60   C     C_R   0.389350 0.433838 0.083089 -0.034791
C61   C     C_R   0.990005 0.497201 0.935971 -0.026860
C62   C     C_R   0.506832 0.009522 0.564074 -0.026681
C63   C     C_R   0.502344 0.492332 0.935967 -0.026921
C64   C     C_R   0.990585 0.497547 0.564088 -0.026657
C65   C     C_R   0.507488 0.010344 0.936008 -0.026956
C66   C     C_R   0.502457 0.492972 0.564075 -0.026674
C67   C     C_R   0.497032 0.989950 0.435974 -0.026879
C68   C     C_R   0.009518 0.507011 0.064071 -0.026664
C69   C     C_R   0.492788 0.502828 0.435974 -0.026904
C70   C     C_R   0.497841 0.990849 0.064117 -0.026612
C71   C     C_R   0.010130 0.507222 0.435981 -0.026916
C72   C     C_R   0.492604 0.501955 0.064084 -0.026660
C73   C     C_R   0.020210 0.433461 0.910980 0.106744
C74   C     C_R   0.412954 0.979126 0.589131 0.107004
C75   C     C_R   0.566576 0.586360 0.911072 0.106648
C76   C     C_R   0.020945 0.434011 0.589128 0.107044
C77   C     C_R   0.413502 0.980372 0.911069 0.106509
C78   C     C_R   0.566045 0.586875 0.589111 0.107007
C79   C     C_R   0.433326 0.020155 0.410960 0.106755
C80   C     C_R   0.979142 0.413094 0.089100 0.106963
C81   C     C_R   0.586719 0.566713 0.410998 0.106739
C82   C     C_R   0.434154 0.021062 0.089136 0.107010
C83   C     C_R   0.979995 0.413283 0.410998 0.106707
C84   C     C_R   0.586584 0.565826 0.089050 0.106950
C85   C     C_R   0.001031 0.426788 0.867218 0.092759
C86   C     C_R   0.425657 0.998558 0.632876 0.092848
C87   C     C_R   0.573366 0.574092 0.867304 0.092675
C88   C     C_R   0.001465 0.427187 0.632869 0.092859
C89   C     C_R   0.425847 0.999313 0.867291 0.092620
C90   C     C_R   0.572847 0.574244 0.632854 0.092818
C91   C     C_R   0.426760 0.001028 0.367204 0.092781
C92   C     C_R   0.998599 0.425721 0.132847 0.092790
C93   C     C_R   0.574233 0.573316 0.367234 0.092762
C94   C     C_R   0.427231 0.001512 0.132879 0.092856
C95   C     C_R   0.999078 0.425773 0.367230 0.092743
C96   C     C_R   0.574123 0.572842 0.132799 0.092732
Cr1   Cr    Cr6+3 0.504240 0.249200 0.750000 1.130047
Cr2   Cr    Cr6+3 0.744960 0.495760 0.750000 1.130071
Cr3   Cr    Cr6+3 0.750800 0.255040 0.750000 1.130067
Cr4   Cr    Cr6+3 0.249200 0.504240 0.250000 1.130052
Cr5   Cr    Cr6+3 0.495760 0.744960 0.250000 1.130073
Cr6   Cr    Cr6+3 0.255040 0.750800 0.250000 1.130075
O1    O     O_R   0.480350 0.140770 0.796330 -0.465835
O2    O     O_R   0.660420 0.519650 0.703670 -0.465733
O3    O     O_R   0.859230 0.339580 0.796330 -0.465794
O4    O     O_R   0.480350 0.140770 0.703670 -0.465751
O5    O     O_R   0.660420 0.519650 0.796330 -0.465751
O6    O     O_R   0.859230 0.339580 0.703670 -0.465714
O7    O     O_R   0.140770 0.480350 0.296330 -0.465787
O8    O     O_R   0.519650 0.660420 0.203670 -0.465714
O9    O     O_R   0.339580 0.859230 0.296330 -0.465786
O10   O     O_R   0.140770 0.480350 0.203670 -0.465759
O11   O     O_R   0.519650 0.660420 0.296330 -0.465788
O12   O     O_R   0.339580 0.859230 0.203670 -0.465708
O13   O     O_R   0.514930 0.348530 0.793250 -0.476391
O14   O     O_R   0.833600 0.485070 0.706750 -0.476355
O15   O     O_R   0.651470 0.166400 0.793250 -0.476349
O16   O     O_R   0.514930 0.348530 0.706750 -0.476325
O17   O     O_R   0.833600 0.485070 0.793250 -0.476348
O18   O     O_R   0.651470 0.166400 0.706750 -0.476313
O19   O     O_R   0.348530 0.514930 0.293250 -0.476340
O20   O     O_R   0.485070 0.833600 0.206750 -0.476367
O21   O     O_R   0.166400 0.651470 0.293250 -0.476340
O22   O     O_R   0.348530 0.514930 0.206750 -0.476394
O23   O     O_R   0.485070 0.833600 0.293250 -0.476330
O24   O     O_R   0.166400 0.651470 0.206750 -0.476322
O25   O     O_3   0.666667 0.333333 0.750000 -0.282328
O26   O     O_3   0.333333 0.666667 0.250000 -0.282334
I1    I     I_    0.913896 0.686830 0.845138 -0.130298
I2    I     I_    0.773433 0.087154 0.654671 -0.130469
I3    I     I_    0.312614 0.227324 0.844835 -0.130060
I4    I     I_    0.912969 0.686397 0.654738 -0.130440
I5    I     I_    0.772850 0.085867 0.845039 -0.130305
I6    I     I_    0.313599 0.226542 0.654737 -0.130444
I7    I     I_    0.686599 0.913488 0.345233 -0.130451
I8    I     I_    0.086949 0.773374 0.154750 -0.130394
I9    I     I_    0.227010 0.313207 0.345123 -0.130364
I10   I     I_    0.686602 0.913304 0.154836 -0.130288
I11   I     I_    0.086299 0.773021 0.345164 -0.130418
I12   I     I_    0.226725 0.313162 0.154963 -0.130240
C97   C     C_1   0.066487 0.705306 0.057529 0.266078
N1    N     N_1   0.084150 0.781423 0.037316 -0.165769
C98   C     C_1   0.639023 0.933850 0.442477 0.266167
N2    N     N_1   0.697761 0.916547 0.462673 -0.165382
C99   C     C_1   0.294415 0.360134 0.057701 0.266245
N3    N     N_1   0.218289 0.301352 0.037560 -0.165362
C100  C     C_1   0.066065 0.705274 0.442431 0.266170
N4    N     N_1   0.083336 0.781320 0.462613 -0.165395
C101  C     C_1   0.639212 0.933942 0.057598 0.266164
N5    N     N_1   0.697720 0.916326 0.037399 -0.165592
C102  C     C_1   0.294807 0.360437 0.442383 0.266294
N6    N     N_1   0.218824 0.301478 0.462545 -0.165185
C103  C     C_1   0.705152 0.066626 0.557473 0.266038
N7    N     N_1   0.781250 0.084362 0.537234 -0.165896
C104  C     C_1   0.933778 0.639096 0.942422 0.266145
N8    N     N_1   0.916366 0.697775 0.962604 -0.165329
C105  C     C_1   0.360966 0.294724 0.557535 0.266140
N9    N     N_1   0.302397 0.218648 0.537326 -0.165654
C106  C     C_1   0.705498 0.065917 0.942335 0.266193
N10   N     N_1   0.781627 0.083107 0.962458 -0.165145
C107  C     C_1   0.933629 0.638874 0.557527 0.266099
N11   N     N_1   0.916006 0.697352 0.537309 -0.165724
C108  C     C_1   0.359401 0.294450 0.942175 0.266427
N12   N     N_1   0.300082 0.218356 0.962231 -0.164637
I13   I     I_    0.928896 0.282129 0.172540 -0.135517
I14   I     I_    0.352884 0.070809 0.327543 -0.135408
I15   I     I_    0.717884 0.647003 0.172416 -0.135365
I16   I     I_    0.929281 0.282042 0.327599 -0.135395
I17   I     I_    0.353284 0.071148 0.172572 -0.135449
I18   I     I_    0.717968 0.647254 0.327606 -0.135408
I19   I     I_    0.282153 0.928753 0.672619 -0.135541
I20   I     I_    0.070710 0.352752 0.827593 -0.135436
I21   I     I_    0.646614 0.717810 0.672573 -0.135500
I22   I     I_    0.281935 0.929631 0.827754 -0.135380
I23   I     I_    0.071225 0.353405 0.672591 -0.135426
I24   I     I_    0.647718 0.718052 0.827804 -0.135269
I25   I     I_    0.906817 0.253572 0.059997 -0.180426
I26   I     I_    0.345433 0.091657 0.440108 -0.179386
I27   I     I_    0.745955 0.653271 0.059857 -0.179828
I28   I     I_    0.908606 0.253938 0.440172 -0.179120
I29   I     I_    0.346771 0.093171 0.060018 -0.180580
I30   I     I_    0.746041 0.654777 0.440193 -0.179049
I31   I     I_    0.253388 0.906895 0.560068 -0.179966
I32   I     I_    0.091840 0.345722 0.940161 -0.180013
I33   I     I_    0.653398 0.746381 0.560021 -0.179802
I34   I     I_    0.254261 0.909532 0.940332 -0.178928
I35   I     I_    0.093267 0.346804 0.560046 -0.180157
I36   I     I_    0.654841 0.745539 0.940395 -0.178954

loop_
_geom_bond_atom_site_label_1
_geom_bond_atom_site_label_2
_ccdc_geom_bond_type
C44   I8    S    
C39   C51   A    
C68   C80   A    
C105  N9    T    
C82   C94   A    
C21   C66   S    
C18   C21   T    
C33   C45   A    
C91   I14   S    
C108  N12   T    
C30   C90   A    
C35   C47   A    
C95   I16   S    
C29   C89   A    
C99   N3    T    
Cr2   O17   S    
C5    O3    A    
C78   C90   A    
Cr3   O6    S    
C82   I29   S    
C45   C57   A    
C88   I23   S    
C31   C43   A    
C83   I28   S    
C5    O17   A    
C38   I2    S    
C11   O23   A    
Cr6   O26   S    
C94   I17   S    
C12   O24   A    
C60   C72   A    
C50   C103  S    
C3    O1    A    
C98   N2    T    
C4    O2    A    
Cr1   O16   S    
Cr5   O26   S    
C37   C49   A    
Cr4   O19   S    
C84   C96   A    
C20   C61   S    
C3    C29   S    
C44   C56   A    
C3    O15   A    
C100  N4    T    
C25   C37   A    
Cr3   O18   S    
C2    O14   A    
C92   I13   S    
C75   I36   S    
C27   C39   A    
C28   C88   A    
Cr5   O23   S    
C102  N6    T    
C51   C108  S    
C34   C46   A    
Cr1   O13   S    
C53   C65   A    
C76   C88   A    
C79   C91   A    
C58   C101  S    
C8    O12   A    
C52   C107  S    
C46   I10   S    
C18   C69   S    
C40   I4    S    
C11   C31   S    
Cr4   O7    S    
C12   C32   S    
Cr5   O20   S    
C9    O7    A    
C77   I34   S    
C7    C33   S    
C4    O16   A    
Cr6   O9    S    
C16   C71   S    
C89   I22   S    
C7    O19   A    
C10   O8    A    
Cr3   O3    S    
C6    O18   A    
C48   C60   A    
C71   C83   A    
C32   C44   A    
C66   C78   A    
C93   I18   S    
C53   C106  S    
C85   I20   S    
C55   C98   S    
C38   C50   A    
C48   I12   S    
C11   O9    A    
C86   I19   S    
Cr2   O25   S    
C49   C61   A    
C52   C64   A    
C73   I32   S    
C26   C38   A    
Cr3   O25   S    
C74   I31   S    
C61   C73   A    
Cr5   O8    S    
C40   C52   A    
Cr2   O5    S    
Cr4   O22   S    
C80   C92   A    
C84   I27   S    
C27   C87   A    
C22   C65   S    
Cr6   O12   S    
Cr3   O15   S    
C65   C77   A    
C81   C93   A    
C36   C96   A    
Cr2   O14   S    
C106  N10   T    
C90   I21   S    
C26   C86   A    
C62   C74   A    
C77   C89   A    
C25   C85   A    
C64   C76   A    
C96   I15   S    
C67   C79   A    
C78   I33   S    
C8    C34   S    
C83   C95   A    
C74   C86   A    
C43   I7    S    
C6    O4    A    
C41   C53   A    
C72   C84   A    
C76   I35   S    
C1    O5    A    
C5    C25   S    
C56   C97   S    
C43   C55   A    
C23   C64   S    
Cr4   O10   S    
C24   C63   S    
C31   C91   A    
C50   C62   A    
C60   C99   S    
Cr1   O4    S    
Cr6   O21   S    
C12   O10   A    
C63   C75   A    
C1    C27   S    
C45   I9    S    
C73   C85   A    
C70   C82   A    
C75   C87   A    
Cr1   O25   S    
C51   C63   A    
C15   C24   T    
C13   C20   T    
C29   C41   A    
Cr4   O26   S    
C14   C19   T    
C49   C104  S    
C58   C70   A    
C34   C94   A    
C79   I26   S    
Cr6   O24   S    
C33   C93   A    
C55   C67   A    
C41   I5    S    
C54   C66   A    
C35   C95   A    
C16   C23   T    
C1    O13   A    
C10   O22   A    
C17   C22   T    
C42   I6    S    
C56   C68   A    
C80   I25   S    
C7    O11   A    
C107  N11   T    
C97   N1    T    
C42   C54   A    
C87   I24   S    
C8    O20   A    
C6    C26   S    
C39   I3    S    
C14   C67   S    
Cr2   O2    S    
C57   C102  S    
C2    O6    A    
C9    O21   A    
C15   C72   S    
C36   C48   A    
Cr5   O11   S    
Cr1   O1    S    
C4    C30   S    
C69   C81   A    
C32   C92   A    
C47   C59   A    
C17   C70   S    
C47   I11   S    
C104  N8    T    
C9    C35   S    
C28   C40   A    
C30   C42   A    
C2    C28   S    
C19   C62   S    
C10   C36   S    
C57   C69   A    
C103  N7    T    
C101  N5    T    
C81   I30   S    
C37   I1    S    
C46   C58   A    
C59   C71   A    
C54   C105  S    
C13   C68   S    
C59   C100  S    
