data_mof_unit_13875.cif
_audit_creation_date              2012-12-10T17:17:30-0500
_audit_creation_method            fapswitch 2.2
_symmetry_space_group_name_H-M    P1
_symmetry_Int_Tables_number       1
_space_group_crystal_system       triclinic
_cell_length_a                    10.18993
_cell_length_b                    10.86292
_cell_length_c                    12.245249
_cell_angle_alpha                 90.789406
_cell_angle_beta                  109.130658
_cell_angle_gamma                 96.058714
_cell_volume                      1271.75727627

loop_
_atom_site_label
_atom_site_type_symbol
_atom_type_description
_atom_site_fract_x
_atom_site_fract_y
_atom_site_fract_z
_atom_type_partial_charge
C1    C     C_R   0.050758 0.732118 0.490507 0.941899
C2    C     C_R   0.202570 0.510303 0.838910 -0.114479
C3    C     C_2   0.076220 0.863441 0.478823 -0.368046
C4    C     C_R   0.132632 0.507493 0.714326 0.846454
C5    C     C_2   0.975424 0.932558 0.478492 -0.149578
C6    C     C_2   0.912824 0.135114 0.501871 -0.369227
C7    C     C_2   0.999209 0.064185 0.476609 -0.093529
C8    C     C_2   0.432546 0.511708 0.509302 -0.137422
C9    C     C_2   0.567343 0.488533 0.490377 -0.133373
C10   C     C_R   0.946961 0.267563 0.505503 0.954886
C11   C     C_R   0.865136 0.483699 0.285587 0.921176
C12   C     C_R   0.416961 0.488122 0.994540 0.098456
C13   C     C_R   0.714793 0.317088 0.990892 -0.279737
C14   C     C_R   0.786116 0.453591 0.163474 -0.197781
C15   C     C_R   0.162272 0.589071 0.910782 -0.155419
C16   C     C_R   0.245706 0.613469 0.025501 -0.068225
C17   C     C_R   0.373618 0.566074 0.066943 -0.207728
C18   C     C_R   0.321859 0.448552 0.884493 0.089424
C19   C     C_R   0.551774 0.448912 0.026833 0.090201
C20   C     C_R   0.581768 0.356844 0.958330 0.089049
C21   C     C_R   0.478287 0.305148 0.858260 -0.207581
C22   C     C_R   0.349631 0.350400 0.821550 -0.178102
C23   C     C_R   0.658686 0.501630 0.123842 -0.322607
C24   C     C_R   0.818110 0.363192 0.094174 0.467188
H1    H     H_    0.875736 0.892781 0.484817 0.189097
H2    H     H_    0.643602 0.578649 0.173307 0.174214
H3    H     H_    0.068916 0.635093 0.877237 0.156206
H4    H     H_    0.434616 0.589399 0.156418 0.139285
H5    H     H_    0.213883 0.673303 0.081312 0.160203
H6    H     H_    0.271888 0.307484 0.743545 0.163775
H7    H     H_    0.092484 0.103066 0.458697 0.205714
H8    H     H_    0.197156 0.376899 0.173385 0.368031
H9    H     H_    0.820004 0.095790 0.520066 0.148378
H10   H     H_    0.175571 0.903626 0.472314 0.153230
H11   H     H_    0.564935 0.415008 0.428609 0.167841
H12   H     H_    0.434827 0.585602 0.570664 0.167618
H13   H     H_    0.684408 0.622412 0.603046 0.165025
H14   H     H_    0.315799 0.376829 0.397748 0.184027
H15   H     H_    0.497844 0.231741 0.806777 0.150268
H16   H     H_    0.736206 0.247216 0.937065 0.188799
N1    N     N_2   0.313640 0.446500 0.454900 -0.175168
N2    N     N_2   0.686360 0.553430 0.545150 -0.189670
O1    O     O_R   0.936910 0.692950 0.509080 -0.614058
O2    O     O_2   0.986489 0.216454 0.037762 -0.317365
O3    O     O_3   0.111354 0.418067 0.159739 -0.556159
O4    O     O_R   0.138320 0.658600 0.480130 -0.609619
O5    O     O_R   0.002900 0.525670 0.675280 -0.602768
O6    O     O_R   0.204310 0.491320 0.646330 -0.617637
O7    O     O_R   0.861680 0.341400 0.519870 -0.613021
O8    O     O_R   0.063090 0.307050 0.490920 -0.595177
O9    O     O_R   0.795690 0.508680 0.353670 -0.624860
O10   O     O_R   0.997100 0.474330 0.324720 -0.519719
O11   O     O_2   0.999067 0.230122 0.240670 -0.316996
S1    S     S_3+6 0.980803 0.301623 0.133558 0.012945
Zn1   Zn    Zn3+2 0.865520 0.522940 0.519330 0.944757
Zn2   Zn    Zn3+2 0.134480 0.477060 0.480670 0.996903

loop_
_geom_bond_atom_site_label_1
_geom_bond_atom_site_label_2
_ccdc_geom_bond_type
C14   C23   A    
C6    C10   S    
C2    C4    S    
N1    Zn2   S    
O11   S1    D    
C6    C7    D    
N2    Zn1   S    
C2    C18   A    
H8    O3    S    
C19   C23   A    
C19   C20   A    
C21   H15   S    
C6    H9    S    
O6    Zn2   S    
O5    Zn1   S    
C18   C22   A    
C21   C22   A    
C20   C21   A    
C12   C17   A    
C2    C15   A    
C17   H4    S    
C9    N2    D    
C14   C24   A    
C5    H1    S    
C12   C19   A    
O1    Zn1   S    
C1    O1    A    
O3    S1    S    
O9    Zn1   S    
C4    O6    A    
C11   C14   S    
C1    O4    A    
C11   O9    A    
C24   S1    S    
C15   C16   A    
C10   O8    A    
O2    S1    D    
C7    H7    S    
C8    N1    D    
H14   N1    S    
C9    H11   S    
C8    H12   S    
C23   H2    S    
C12   C18   A    
H13   N2    S    
C5    C7    S    
C16   C17   A    
C13   H16   S    
C11   O10   A    
C22   H6    S    
C3    H10   S    
C3    C5    D    
C16   H5    S    
O7    Zn1   S    
C10   O7    A    
C15   H3    S    
C13   C20   A    
O8    Zn2   S    
O10   Zn2   S    
C13   C24   A    
C8    C9    S    
C1    C3    S    
C4    O5    A    
O4    Zn2   S    
