data_mof_unit_43804.cif
_audit_creation_date              2013-03-05T16:08:07-0500
_audit_creation_method            fapswitch 2.2
_symmetry_space_group_name_H-M    P1
_symmetry_Int_Tables_number       1
_space_group_crystal_system       triclinic
_cell_length_a                    6.952963
_cell_length_b                    14.701879
_cell_length_c                    15.852514
_cell_angle_alpha                 90.666557
_cell_angle_beta                  89.371134
_cell_angle_gamma                 90.546648
_cell_volume                      1620.19061619

loop_
_atom_site_label
_atom_site_type_symbol
_atom_site_description
_atom_site_fract_x
_atom_site_fract_y
_atom_site_fract_z
_atom_type_partial_charge
O1    O     O_R   0.494400 0.415450 0.412630 -0.601312
O2    O     O_R   0.823940 0.405730 0.586760 -0.553229
O3    O     O_R   0.994240 0.584550 0.587370 -0.598280
C1    C     C_R   0.652915 0.383724 0.615765 0.996064
O4    O     O_R   0.824110 0.404430 0.413240 -0.600274
O5    O     O_R   0.994420 0.583240 0.412620 -0.572639
C2    C     C_R   0.655465 0.382269 0.384475 0.960465
O6    O     O_R   0.494230 0.416760 0.587380 -0.611464
O7    O     O_3   0.660800 0.558670 0.500000 -0.248791
V1    V     V_3+5 0.935650 0.489120 0.500000 1.206496
O8    O     O_R   0.324140 0.594270 0.413240 -0.594763
C3    C     C_R   0.155964 0.615010 0.383342 0.952712
O9    O     O_R   0.323960 0.595570 0.586760 -0.607140
C4    C     C_R   0.154297 0.622159 0.611694 0.906955
V2    V     V_3+5 0.435660 0.510880 0.500000 1.184371
O10   O     O_3   0.160640 0.441330 0.500000 -0.273324
C5    C     C_3   0.000461 0.686399 0.756725 -0.068234
C6    C     C_3   0.166571 0.710690 0.817885 -0.209836
H1    H     H_    0.193757 0.676524 0.878620 0.137777
H2    H     H_    0.889560 0.632577 0.766347 0.113737
C7    C     C_3   0.120842 0.812173 0.807777 -0.182783
C8    C     C_3   0.954897 0.788690 0.747164 -0.170724
C9    C     C_3   0.096232 0.794438 0.670741 -0.277993
C10   C     C_3   0.260267 0.817303 0.732507 0.694029
C11   C     C_3   0.309750 0.716141 0.742240 -0.244023
C12   C     C_3   0.143064 0.692541 0.681532 -0.126545
H3    H     H_    0.808717 0.818237 0.750510 0.159761
H4    H     H_    0.067455 0.828331 0.610022 0.153927
H5    H     H_    0.456621 0.687165 0.739567 0.129639
C13   C     C_R   0.256252 0.822591 0.248017 -0.055968
C14   C     C_R   0.114609 0.817515 0.185308 -0.194875
C15   C     C_R   0.970075 0.750244 0.196296 -0.123842
H6    H     H_    0.851461 0.745410 0.152754 0.104150
C16   C     C_R   0.983242 0.684690 0.260733 -0.074453
H7    H     H_    0.873068 0.632383 0.265145 0.113101
C17   C     C_R   0.142349 0.683609 0.315587 -0.209596
C18   C     C_R   0.272460 0.755917 0.308486 0.039996
C19   C     C_3   0.486337 0.762834 0.310223 0.153061
C20   C     C_3   0.470417 0.841574 0.247334 0.304908
H8    H     H_    0.557937 0.701561 0.283382 0.001272
H9    H     H_    0.540510 0.827105 0.185357 0.047255
C21   C     C_R   0.500535 0.316630 0.748943 -0.171102
C22   C     C_R   0.639200 0.313382 0.682884 -0.350773
C23   C     C_R   0.764947 0.238295 0.680611 0.709895
C24   C     C_R   0.767789 0.175698 0.747947 -0.283977
H10   H     H_    0.867299 0.119502 0.745236 0.130164
C25   C     C_R   0.628979 0.179946 0.813131 -0.211554
C26   C     C_R   0.495744 0.249335 0.811069 0.006574
C27   C     C_3   0.283860 0.235646 0.812299 0.044305
C28   C     C_3   0.281865 0.308149 0.744121 0.944576
H11   H     H_    0.237124 0.165941 0.793726 0.036280
C29   C     C_R   0.520029 0.322506 0.248461 0.158559
C30   C     C_R   0.648577 0.314646 0.314997 -0.246489
C31   C     C_R   0.777531 0.241659 0.312020 -0.296709
H12   H     H_    0.880881 0.234459 0.362107 0.165236
C32   C     C_R   0.765773 0.173354 0.248678 0.373956
C33   C     C_R   0.627002 0.180307 0.183157 -0.419742
C34   C     C_R   0.510534 0.257747 0.183923 0.183773
C35   C     C_3   0.296543 0.265206 0.180020 -0.388760
C36   C     C_3   0.307968 0.336104 0.250217 -0.508764
H13   H     H_    0.222284 0.201933 0.199830 0.224667
H14   H     H_    0.247273 0.293607 0.119517 0.244073
H15   H     H_    0.239117 0.313500 0.310177 0.213052
H16   H     H_    0.268072 0.405380 0.229653 0.190375
O11   O     O_R   0.771650 0.079500 0.908680 -0.582935
O12   O     O_R   0.441690 0.091800 0.082800 -0.592122
O13   O     O_R   0.271460 0.912980 0.083410 -0.625022
C37   C     C_R   0.610908 0.111863 0.113702 1.020821
O14   O     O_R   0.441930 0.090510 0.909280 -0.595326
O15   O     O_R   0.271690 0.911670 0.908660 -0.579004
C38   C     C_R   0.612630 0.110360 0.879253 1.030335
O16   O     O_R   0.771410 0.080810 0.083440 -0.534882
O17   O     O_3   0.605100 0.937580 0.996050 -0.301566
V3    V     V_3+5 0.330220 0.007110 0.996030 1.230095
O18   O     O_R   0.941980 0.900620 0.909250 -0.611943
C39   C     C_R   0.110799 0.879964 0.879344 0.930089
O19   O     O_R   0.941740 0.901920 0.082770 -0.580579
C40   C     C_R   0.109401 0.881386 0.113012 0.985069
V4    V     V_3+5 0.830220 0.985300 0.996000 1.234200
O20   O     O_3   0.105210 0.054870 0.996020 -0.231529
N1    N     N_R   0.557497 0.789691 0.393636 0.292086
O21   O     O_R   0.713360 0.753311 0.422026 -0.375837
O22   O     O_R   0.462861 0.846755 0.441397 -0.408785
O23   O     O_3   0.536505 0.924858 0.284537 -0.551347
C41   C     C_3   0.398694 0.994560 0.283426 0.042388
H17   H     H_    0.275726 0.978875 0.326381 0.173144
H18   H     H_    0.348825 0.006672 0.218571 0.123992
H19   H     H_    0.465468 0.058264 0.307505 0.124669
O24   O     O_3   0.874052 0.221715 0.608977 -0.595339
C42   C     C_3   0.768750 0.164669 0.553864 -0.281198
H20   H     H_    0.643287 0.201094 0.527950 0.122050
H21   H     H_    0.721323 0.100518 0.584916 0.133105
H22   H     H_    0.863575 0.145421 0.499985 0.211138
N2    N     N_R   0.196490 0.264255 0.892962 0.287600
O25   O     O_R   0.010413 0.262155 0.902001 -0.360019
O26   O     O_R   0.302151 0.288636 0.956822 -0.401535
O27   O     O_3   0.181964 0.384305 0.777042 -0.618125
C43   C     C_3   0.215455 0.461529 0.728708 -0.064526
H23   H     H_    0.170114 0.449375 0.662842 0.197515
H24   H     H_    0.367576 0.484856 0.732661 0.098975
H25   H     H_    0.125405 0.515977 0.755784 0.117874
O28   O     O_3   0.212141 0.280885 0.663002 -0.598790
C44   C     C_3   0.269621 0.193101 0.634485 -0.176406
H26   H     H_    0.164766 0.140631 0.655599 0.164138
H27   H     H_    0.413222 0.172253 0.655081 0.059926
H28   H     H_    0.271148 0.192312 0.564510 0.183109
N3    N     N_R   0.876098 0.092337 0.259722 0.224157
O29   O     O_R   0.877045 0.053689 0.333143 -0.407153
O30   O     O_R   0.004832 0.068477 0.204030 -0.453983
O31   O     O_3   0.397019 0.888522 0.726170 -0.660579
C45   C     C_3   0.483225 0.886642 0.645457 -0.221710
H29   H     H_    0.379809 0.909279 0.597275 0.184468
H30   H     H_    0.540698 0.818223 0.628820 0.170956
H31   H     H_    0.606217 0.935272 0.645057 0.161140

loop_
_geom_bond_atom_site_label_1
_geom_bond_atom_site_label_2
_geom_bond_distance
_ccdc_geom_bond_type
O12   C37   1.309183 A    
O11   V4    2.016854 S    
C6    C7    1.539010 S    
O17   V3    2.176014 S    
C45   H29   1.110744 S    
C1    O6    1.296890 A    
N1    O21   1.300161 A    
C42   H20   1.112846 S    
C20   H9    1.111142 S    
O19   C40   1.304715 A    
C23   C24   1.417904 A    
C6    C11   1.552411 S    
C7    C39   1.502870 S    
C14   C40   1.491035 S    
C36   H15   1.112395 S    
C5    C12   1.544978 S    
C17   C18   1.394054 A    
C20   O23   1.427103 S    
C6    H1    1.109990 S    
O16   V4    2.003381 S    
O5    C3    1.295670 A    
C13   C14   1.407854 A    
C43   H23   1.106066 S    
V2    O10   2.159804 S    
O12   V3    2.002043 S    
C5    H2    1.110205 S    
C32   C33   1.430603 A    
C16   H7    1.082549 S    
C9    C12   1.547901 S    
O14   C38   1.305615 A    
O31   C45   1.407056 S    
C29   C36   1.489748 S    
O8    V2    2.019083 S    
C25   C26   1.385430 A    
C27   H11   1.109596 S    
O15   V3    2.002253 S    
N3    O29   1.301225 A    
O1    V2    2.001711 S    
C27   N2    1.468447 S    
C3    C17   1.486285 S    
O7    V1    2.175966 S    
C41   H18   1.105547 S    
C35   C36   1.518046 S    
V3    O20   1.720935 S    
O9    C4    1.302161 A    
N3    O30   1.298119 A    
C45   H31   1.109415 S    
N2    O25   1.300249 A    
O13   C40   1.299648 A    
N1    O22   1.301875 A    
O27   C43   1.393412 S    
O19   V4    2.019103 S    
C11   H5    1.110419 S    
C31   C32   1.414268 A    
C35   H13   1.106627 S    
C10   O31   1.411322 S    
C10   C11   1.539614 S    
C44   H27   1.101263 S    
O4    C2    1.300010 A    
C11   C12   1.548805 S    
O11   C38   1.292958 A    
C4    C12   1.508476 S    
C13   C18   1.385199 A    
C15   C16   1.416795 A    
O2    C1    1.309287 A    
O18   C39   1.298457 A    
C32   N3    1.436337 S    
C18   C19   1.490122 S    
C42   H21   1.114389 S    
C14   C15   1.414063 A    
C37   O16   1.294917 A    
C5    C6    1.552455 S    
O17   V4    1.709166 S    
O14   V3    1.998875 S    
C45   H30   1.113666 S    
O13   V3    2.005544 S    
C21   C26   1.403987 A    
C9    H4    1.110001 S    
O23   C41   1.409993 S    
N2    O26   1.302263 A    
C25   C38   1.475946 S    
C41   H17   1.111294 S    
O3    C4    1.298306 A    
C29   C34   1.391099 A    
C21   C28   1.527003 S    
C26   C27   1.484950 S    
C28   O28   1.430838 S    
O6    V2    2.016699 S    
C43   H24   1.110984 S    
C8    H3    1.109617 S    
O9    V2    2.000060 S    
C19   N1    1.465496 S    
O15   C39   1.296574 A    
C21   C22   1.416339 A    
C2    C30   1.475993 S    
C33   C37   1.487324 S    
O2    V1    1.998894 S    
C29   C30   1.396514 A    
C42   H22   1.108991 S    
C41   H19   1.107118 S    
C31   H12   1.083495 S    
C35   H14   1.109440 S    
C28   O27   1.414818 S    
O1    C2    1.298339 A    
O5    V1    2.005457 S    
O8    C3    1.306615 A    
C30   C31   1.404924 A    
C1    C22   1.494055 S    
C43   H25   1.101223 S    
C5    C8    1.549335 S    
C36   H16   1.111587 S    
C15   H6    1.082535 S    
C34   C35   1.494962 S    
O4    V1    2.002127 S    
O3    V1    2.002236 S    
V1    O10   1.720990 S    
C19   H8    1.111473 S    
C33   C34   1.403275 A    
C19   C20   1.542068 S    
C22   C23   1.414618 A    
C13   C20   1.512328 S    
C44   H28   1.109141 S    
C16   C17   1.414924 A    
O7    V2    1.709711 S    
O28   C44   1.421974 S    
C9    C10   1.543407 S    
V4    O20   2.159758 S    
C24   H10   1.082859 S    
C24   C25   1.407449 A    
C27   C28   1.527073 S    
C7    C10   1.531182 S    
C44   H26   1.108387 S    
C8    C9    1.554099 S    
O24   C42   1.409975 S    
C7    C8    1.543613 S    
O18   V4    2.000026 S    
C23   O24   1.379354 S    
