data_mof_unit_41047.cif
_audit_creation_date              2012-10-26T21:13:57-0400
_audit_creation_method            fapswitch 2.2
_symmetry_space_group_name_H-M    P1
_symmetry_Int_Tables_number       1
_space_group_crystal_system       triclinic
_cell_length_a                    15.787165
_cell_length_b                    15.949081
_cell_length_c                    17.110143
_cell_angle_alpha                 84.586483
_cell_angle_beta                  87.898369
_cell_angle_gamma                 111.899118
_cell_volume                      3967.4173525

loop_
_atom_site_label
_atom_site_type_symbol
_atom_type_description
_atom_site_fract_x
_atom_site_fract_y
_atom_site_fract_z
_atom_type_partial_charge
C1    C     C_R   0.500233 0.510056 0.348794 0.553743
C2    C     C_R   0.512709 0.562583 0.774900 -0.148260
C3    C     C_R   0.477759 0.440895 0.144066 -0.075340
C4    C     C_R   0.511158 0.557457 0.856515 -0.082636
C5    C     C_R   0.501895 0.525992 0.098258 0.226026
C6    C     C_R   0.497147 0.474072 0.901899 0.227411
C7    C     C_R   0.522944 0.604621 0.135670 -0.115829
C8    C     C_R   0.485814 0.397204 0.864027 -0.120788
C9    C     C_R   0.521838 0.599497 0.217329 -0.153610
C10   C     C_R   0.487540 0.402420 0.782323 -0.161107
C11   C     C_R   0.532836 0.259315 0.449607 0.076188
C12   C     C_R   0.499720 0.489955 0.651233 0.543852
C13   C     C_R   0.469119 0.742314 0.550558 0.102291
C14   C     C_R   0.528091 0.168272 0.449434 0.249372
C15   C     C_R   0.478280 0.834579 0.550323 0.284151
C16   C     C_R   0.674879 0.555035 0.499440 0.538940
C17   C     C_R   0.324801 0.444809 0.504123 0.540049
C18   C     C_R   0.479071 0.102129 0.512442 0.146923
C19   C     C_R   0.519466 0.897325 0.483125 0.136463
C20   C     C_R   0.434861 0.129172 0.571977 -0.195150
C21   C     C_R   0.561389 0.868361 0.423505 -0.179312
C22   C     C_R   0.438017 0.220061 0.569699 0.376829
C23   C     C_R   0.094343 0.603438 0.549722 0.000610
C24   C     C_R   0.560838 0.778829 0.429190 0.377348
C25   C     C_R   0.774700 0.587616 0.503263 -0.038069
C26   C     C_R   0.224231 0.411644 0.514079 -0.054117
C27   C     C_R   0.925256 0.709385 0.493988 0.261846
C28   C     C_R   0.075191 0.288005 0.539933 0.287582
C29   C     C_R   0.830212 0.679937 0.488571 -0.147876
C30   C     C_R   0.170859 0.318745 0.528824 -0.135586
C31   C     C_R   0.814546 0.524860 0.522712 -0.100315
C32   C     C_R   0.181722 0.474218 0.512147 -0.157069
C33   C     C_R   0.909873 0.550250 0.518061 -0.033215
C34   C     C_R   0.901090 0.391189 0.510757 0.015907
C35   C     C_R   0.087061 0.446775 0.530072 -0.066705
C36   C     C_R   0.964891 0.644181 0.513887 0.028666
C37   C     C_R   0.032345 0.352232 0.536434 0.059993
C38   C     C_R   0.950768 0.484125 0.521463 -0.015131
C39   C     C_R   0.045111 0.511804 0.534454 -0.072852
C40   C     C_3   0.090325 0.779246 0.618825 0.051820
C41   C     C_3   0.151337 0.876990 0.627569 -0.335903
C42   C     C_3   0.829623 0.204696 0.607639 -0.006909
C43   C     C_3   0.768849 0.104461 0.610876 -0.370551
C44   C     C_2   0.410708 0.675268 0.615924 0.329392
C45   C     C_R   0.056032 0.669992 0.534727 0.293151
C46   C     C_2   0.585920 0.326297 0.382665 0.289376
C47   C     C_3   0.514093 0.900957 0.662714 0.022431
C48   C     C_3   0.475154 0.926656 0.735182 -0.346851
C49   C     C_3   0.655366 0.164442 0.382473 0.026140
C50   C     C_3   0.688118 0.133610 0.309829 -0.334433
C51   C     C_3   0.315700 0.180100 0.666333 -0.032651
C52   C     C_3   0.264282 0.224112 0.714367 -0.372050
C53   C     C_3   0.695550 0.809480 0.353537 -0.025315
C54   C     C_3   0.744130 0.762140 0.306184 -0.365054
C55   C     C_3   0.975723 0.841808 0.409106 -0.002556
C56   C     C_R   0.937056 0.324964 0.532795 0.246931
C57   C     C_3   0.057833 0.931184 0.392054 -0.346447
C58   C     C_3   0.036146 0.149173 0.615302 -0.009193
C59   C     C_3   0.060296 0.069102 0.596356 -0.384863
C60   C     C_2   0.180526 0.628244 0.590581 0.208349
C61   C     C_2   0.819445 0.361575 0.464779 0.223943
C62   C     C_R   0.499691 0.515144 0.262888 0.004585
C63   C     C_R   0.500004 0.484960 0.737189 0.002348
C64   C     C_R   0.476549 0.435823 0.225693 -0.129869
Cu1   Cu    Cu3+1 0.504410 0.586150 0.496120 0.983353
Cu2   Cu    Cu3+1 0.495590 0.413850 0.503880 0.990982
H1    H     H_    0.398283 0.078103 0.620252 0.101977
H2    H     H_    0.459564 0.378303 0.117241 0.145934
H3    H     H_    0.540865 0.670251 0.101232 0.119543
H4    H     H_    0.475422 0.332909 0.898120 0.119002
H5    H     H_    0.538905 0.661672 0.244571 0.175992
H6    H     H_    0.478665 0.341677 0.754697 0.165233
H7    H     H_    0.105395 0.733642 0.664812 0.127970
H8    H     H_    0.017677 0.771518 0.629399 0.136071
H9    H     H_    0.138302 0.924195 0.582019 0.163279
H10   H     H_    0.136754 0.893948 0.686762 0.069640
H11   H     H_    0.224525 0.885847 0.620487 0.203950
H12   H     H_    0.593992 0.915571 0.371938 0.112248
H13   H     H_    0.784684 0.243425 0.615929 0.094693
H14   H     H_    0.875004 0.213148 0.657095 0.122880
H15   H     H_    0.729308 0.080300 0.669100 0.080503
H16   H     H_    0.720137 0.094489 0.564232 0.142047
H17   H     H_    0.811283 0.063598 0.602068 0.168475
H18   H     H_    0.369833 0.606684 0.606430 0.141297
H19   H     H_    0.633992 0.392574 0.392010 0.167039
H20   H     H_    0.567413 0.963770 0.631202 0.118707
H21   H     H_    0.546969 0.852588 0.682605 0.134957
H22   H     H_    0.422786 0.865012 0.768831 0.188459
H23   H     H_    0.223120 0.544777 0.493216 0.163696
H24   H     H_    0.530866 0.958241 0.773572 0.082103
H25   H     H_    0.443094 0.976030 0.717377 0.145113
H26   H     H_    0.673547 0.131336 0.435833 0.127743
H27   H     H_    0.692964 0.238795 0.378569 0.164082
H28   H     H_    0.677120 0.171567 0.255866 0.183591
H29   H     H_    0.762286 0.146929 0.310941 0.109442
H30   H     H_    0.649832 0.059947 0.307935 0.148771
H31   H     H_    0.332893 0.132103 0.708058 0.118577
H32   H     H_    0.270101 0.142832 0.622433 0.118892
H33   H     H_    0.249382 0.276228 0.675967 0.155910
H34   H     H_    0.769850 0.455846 0.543491 0.130181
H35   H     H_    0.199046 0.171465 0.741919 0.087790
H36   H     H_    0.306115 0.257366 0.761684 0.153559
H37   H     H_    0.730598 0.826106 0.408677 0.112344
H38   H     H_    0.701682 0.873373 0.317325 0.117679
H39   H     H_    0.712679 0.747779 0.249475 0.152535
H40   H     H_    0.817543 0.806472 0.293481 0.082772
H41   H     H_    0.738612 0.696981 0.339684 0.169148
H42   H     H_    0.912632 0.856896 0.405472 0.114511
H43   H     H_    0.978618 0.797622 0.363042 0.136271
H44   H     H_    0.122271 0.918520 0.395264 0.190248
H45   H     H_    0.202928 0.269353 0.529413 0.143864
H46   H     H_    0.056338 0.963934 0.332175 0.099305
H47   H     H_    0.056190 0.977888 0.435765 0.155922
H48   H     H_    0.970695 0.122239 0.652735 0.138925
H49   H     H_    0.089146 0.192093 0.651413 0.093456
H50   H     H_    0.123835 0.093414 0.556463 0.141892
H51   H     H_    0.071261 0.033173 0.651514 0.089509
H52   H     H_    0.003669 0.020709 0.567243 0.170632
H53   H     H_    0.192259 0.577331 0.630539 0.093095
H54   H     H_    0.763005 0.297916 0.483755 0.082417
H55   H     H_    0.799524 0.729555 0.476175 0.123287
H56   H     H_    0.524279 0.627450 0.741460 0.161789
H57   H     H_    0.456597 0.369731 0.259616 0.179461
H58   H     H_    0.520808 0.618679 0.883651 0.140169
N1    N     N_2   0.505320 0.535758 0.014918 -0.250618
N2    N     N_2   0.493865 0.464266 0.985263 -0.247997
N3    N     N_R   0.488960 0.284450 0.509710 -0.264290
N4    N     N_R   0.511040 0.715550 0.490290 -0.275129
N5    N     N_2   0.470846 0.008314 0.519044 -0.156230
N6    N     N_2   0.524696 0.990103 0.474179 -0.193917
O1    O     O_R   0.504130 0.580750 0.382440 -0.437206
O2    O     O_3   0.881944 0.233817 0.534398 -0.519883
O3    O     O_2   0.405736 0.696090 0.682289 -0.521112
O4    O     O_2   0.577219 0.307454 0.315115 -0.498192
O5    O     O_3   0.442493 0.861153 0.614257 -0.474040
O6    O     O_3   0.559751 0.141692 0.382939 -0.493165
O7    O     O_3   0.396305 0.248684 0.629113 -0.519632
O8    O     O_3   0.602622 0.751308 0.369598 -0.521134
O9    O     O_3   0.978607 0.801674 0.485631 -0.537018
O10   O     O_3   0.023748 0.195506 0.544539 -0.503031
O11   O     O_2   0.239629 0.704762 0.579189 -0.440669
O12   O     O_R   0.495870 0.419250 0.617560 -0.444796
O13   O     O_2   0.816087 0.407085 0.404298 -0.517708
O14   O     O_R   0.496670 0.435250 0.388990 -0.520719
O15   O     O_R   0.503330 0.564750 0.611010 -0.541597
O16   O     O_R   0.635650 0.613550 0.494890 -0.483520
O17   O     O_R   0.364350 0.386450 0.505110 -0.470100
O18   O     O_R   0.628200 0.468050 0.501440 -0.537790
O19   O     O_R   0.371800 0.531950 0.498560 -0.534767
O20   O     O_3   0.108035 0.760239 0.542139 -0.465703

loop_
_geom_bond_atom_site_label_1
_geom_bond_atom_site_label_2
_ccdc_geom_bond_type
Cu1   N4    S    
C25   C31   A    
C51   H31   S    
C23   C45   A    
C27   C29   A    
C43   H17   S    
C14   C18   A    
C20   H1    S    
C2    C4    A    
C3    H2    S    
C28   O10   S    
C1    C62   S    
C3    C64   A    
Cu2   N3    S    
C9    C62   A    
C34   C56   A    
C22   O7    S    
C52   H36   S    
C54   H41   S    
C17   C26   S    
C17   O17   A    
C11   C46   S    
C41   H11   S    
C42   H14   S    
C11   C14   A    
C23   C39   A    
C50   H29   S    
C57   H46   S    
Cu2   O14   S    
C53   H38   S    
C16   C25   S    
C33   C36   A    
C55   O9    S    
C40   H7    S    
C4    H58   S    
C60   H53   S    
C16   O16   A    
C45   O20   S    
C49   C50   S    
C62   C64   A    
C15   C19   A    
C37   C56   A    
C61   O13   D    
C10   C63   A    
C40   H8    S    
C59   H50   S    
C48   H25   S    
C29   H55   S    
C21   H12   S    
C31   C33   A    
Cu2   O18   S    
C46   H19   S    
C19   N6    S    
C42   H13   S    
C59   H51   S    
C48   H24   S    
C55   H43   S    
C61   H54   S    
C13   N4    A    
C51   H32   S    
Cu1   O1    S    
C2    H56   S    
C25   C29   A    
C23   C60   S    
C52   H35   S    
C54   H40   S    
C53   O8    S    
C32   C35   A    
C38   C39   A    
C6    N2    S    
C4    C6    A    
C5    C7    A    
C12   C63   S    
C26   C32   A    
C50   H28   S    
C57   H47   S    
C24   O8    S    
C58   C59   S    
C53   C54   S    
C34   C61   S    
C27   O9    S    
C51   C52   S    
C47   H21   S    
C12   O15   A    
C35   C39   A    
C47   H20   S    
C60   O11   D    
C46   O4    D    
C47   C48   S    
C48   H22   S    
C40   O20   S    
C36   C45   A    
C31   H34   S    
Cu2   O17   S    
C56   O2    S    
C41   H9    S    
C11   N3    A    
C51   O7    S    
C40   C41   S    
C49   O6    S    
C20   C22   A    
C26   C30   A    
C59   H52   S    
C55   C57   S    
C32   H23   S    
N1    N2    D    
C43   H15   S    
C42   C43   S    
C49   H26   S    
Cu1   O15   S    
C2    C63   A    
C35   C37   A    
C58   H48   S    
N5    N6    D    
C58   O10   S    
C44   O3    D    
C7    C9    A    
C54   H39   S    
C47   O5    S    
C34   C38   A    
C17   O19   A    
C9    H5    S    
C3    C5    A    
C7    H3    S    
C6    C8    A    
C57   H44   S    
Cu2   O12   S    
C27   C36   A    
C64   H57   S    
C55   H42   S    
C52   H33   S    
C8    H4    S    
C33   C38   A    
C44   H18   S    
C30   H45   S    
C16   O18   A    
C13   C15   A    
C1    O14   A    
C41   H10   S    
C50   H30   S    
C22   N3    A    
C58   H49   S    
C14   O6    S    
C28   C37   A    
C53   H37   S    
C1    O1    A    
C28   C30   A    
C12   O12   A    
C18   C20   A    
Cu1   O19   S    
C15   O5    S    
C8    C10   A    
Cu1   Cu2   S    
C21   C24   A    
C5    N1    S    
C24   N4    A    
C43   H16   S    
C18   N5    S    
C42   O2    S    
C49   H27   S    
Cu1   O16   S    
C13   C44   S    
C19   C21   A    
C10   H6    S    
