data_mof_unit_45446.cif
_audit_creation_date              2013-03-05T16:10:35-0500
_audit_creation_method            fapswitch 2.2
_symmetry_space_group_name_H-M    P1
_symmetry_Int_Tables_number       1
_space_group_crystal_system       triclinic
_cell_length_a                    15.682913
_cell_length_b                    15.022814
_cell_length_c                    9.433383
_cell_angle_alpha                 90.023778
_cell_angle_beta                  89.869442
_cell_angle_gamma                 90.129903
_cell_volume                      2222.50737424

loop_
_atom_site_label
_atom_site_type_symbol
_atom_site_description
_atom_site_fract_x
_atom_site_fract_y
_atom_site_fract_z
_atom_type_partial_charge
O1    O     O_R   0.091250 0.408820 0.620260 -0.559775
O2    O     O_R   0.091250 0.408820 0.379740 -0.583044
O3    O     O_R   0.091250 0.591180 0.620260 -0.555994
O4    O     O_R   0.091250 0.591180 0.379740 -0.551003
O5    O     O_R   0.591250 0.908820 0.620260 -0.568763
O6    O     O_R   0.591250 0.908820 0.379740 -0.558816
O7    O     O_R   0.591250 0.091180 0.620260 -0.551009
O8    O     O_R   0.591250 0.091180 0.379740 -0.571680
C1    C     C_R   0.121557 0.380848 0.499678 0.856265
C2    C     C_R   0.122345 0.618428 0.499685 0.857057
C3    C     C_R   0.623110 0.882324 0.499975 0.853070
C4    C     C_R   0.622119 0.118269 0.499682 0.852578
O9    O     O_R   0.908940 0.408800 0.620260 -0.594764
O10   O     O_R   0.908940 0.408800 0.379740 -0.589552
O11   O     O_R   0.908940 0.591200 0.620260 -0.592671
O12   O     O_R   0.908940 0.591200 0.379740 -0.591445
O13   O     O_R   0.408940 0.908800 0.620260 -0.601943
O14   O     O_R   0.408940 0.908800 0.379740 -0.594224
O15   O     O_R   0.408940 0.091200 0.620260 -0.596272
O16   O     O_R   0.408940 0.091200 0.379740 -0.590217
C5    C     C_R   0.883533 0.376828 0.499826 0.898745
C6    C     C_R   0.886814 0.625815 0.500348 0.903249
C7    C     C_R   0.384050 0.876673 0.500064 0.903668
C8    C     C_R   0.383808 0.123326 0.499801 0.894882
Cu1   Cu    Cu3+1 0.000100 0.500000 0.642410 0.998356
Cu2   Cu    Cu3+1 0.000100 0.500000 0.357590 0.996113
Cu3   Cu    Cu3+1 0.500100 0.000000 0.642410 0.993226
Cu4   Cu    Cu3+1 0.500100 0.000000 0.357590 0.993466
C9    C     C_3   0.835960 0.230822 0.612055 0.164789
C10   C     C_3   0.808009 0.263350 0.345523 0.092441
C11   C     C_3   0.824338 0.753154 0.643177 0.112005
C12   C     C_3   0.835279 0.764867 0.375018 0.149733
C13   C     C_3   0.325317 0.744773 0.635096 0.105605
C14   C     C_3   0.324211 0.746649 0.360794 0.145414
C15   C     C_3   0.337951 0.270996 0.607122 0.168544
C16   C     C_3   0.306931 0.234674 0.344739 0.102357
H1    H     H_    0.823366 0.262366 0.717054 0.174136
H2    H     H_    0.791818 0.319147 0.272657 0.157489
H3    H     H_    0.815932 0.704755 0.731688 0.167371
H4    H     H_    0.824225 0.725321 0.276845 0.175906
H5    H     H_    0.318977 0.790120 0.728098 0.166739
H6    H     H_    0.304945 0.791583 0.272723 0.160872
H7    H     H_    0.327652 0.240516 0.713472 0.180195
H8    H     H_    0.292693 0.177593 0.272971 0.161340
C17   C     C_3   0.249395 0.678063 0.638615 0.089916
C18   C     C_3   0.259333 0.668786 0.372326 0.071963
C19   C     C_3   0.272206 0.347916 0.588151 0.049257
C20   C     C_3   0.229106 0.298469 0.343257 0.096409
C21   C     C_3   0.771001 0.152998 0.593665 0.046364
C22   C     C_3   0.732774 0.196026 0.344897 0.101304
C23   C     C_3   0.746923 0.818513 0.645853 0.088043
C24   C     C_3   0.766364 0.839808 0.384287 0.068108
H9    H     H_    0.274448 0.609144 0.640553 0.178770
H10   H     H_    0.294898 0.606730 0.398285 0.153132
H11   H     H_    0.301047 0.402996 0.525392 0.152217
H12   H     H_    0.250034 0.365236 0.304922 0.152073
H13   H     H_    0.801396 0.097037 0.535365 0.151788
H14   H     H_    0.757501 0.129215 0.313818 0.157616
H15   H     H_    0.768667 0.888357 0.656684 0.174932
H16   H     H_    0.795353 0.903439 0.420503 0.152956
H17   H     H_    0.736652 0.385497 0.639093 0.207173
H18   H     H_    0.712715 0.396988 0.455082 0.227676
H19   H     H_    0.722020 0.610277 0.581048 0.225601
H20   H     H_    0.733724 0.608241 0.392463 0.206565
H21   H     H_    0.222045 0.887916 0.601918 0.231638
H22   H     H_    0.226080 0.899895 0.413717 0.202805
H23   H     H_    0.239105 0.115117 0.644462 0.208259
H24   H     H_    0.211570 0.102776 0.462039 0.230374
H25   H     H_    0.107862 0.794361 0.563793 0.275362
H26   H     H_    0.128692 0.790644 0.380637 0.266805
H27   H     H_    0.147719 0.231162 0.675859 0.250243
H28   H     H_    0.102182 0.201360 0.513105 0.280465
H29   H     H_    0.642426 0.271856 0.665438 0.257046
H30   H     H_    0.603548 0.297335 0.495096 0.278819
H31   H     H_    0.609017 0.703870 0.543630 0.274664
H32   H     H_    0.635360 0.716263 0.364368 0.261575
C25   C     C_3   0.731589 0.347921 0.537620 -0.532833
C26   C     C_3   0.734583 0.652942 0.486733 -0.521430
C27   C     C_3   0.230889 0.850352 0.501198 -0.532555
C28   C     C_3   0.232224 0.152220 0.542950 -0.523970
C29   C     C_3   0.818463 0.304505 0.498119 -0.193259
C30   C     C_3   0.823115 0.699108 0.501521 -0.202467
C31   C     C_3   0.319715 0.804257 0.499322 -0.187688
C32   C     C_3   0.318743 0.195387 0.497896 -0.200950
C33   C     C_3   0.194475 0.685419 0.498785 -0.241826
C34   C     C_3   0.193292 0.313863 0.498780 -0.234619
C35   C     C_3   0.693989 0.184752 0.498628 -0.236712
C36   C     C_3   0.696461 0.816428 0.500263 -0.236111
C37   C     C_3   0.158794 0.781258 0.485260 -0.229553
C38   C     C_3   0.162652 0.223837 0.561633 -0.228541
C39   C     C_3   0.661590 0.276326 0.552674 -0.230070
C40   C     C_3   0.662559 0.721325 0.472041 -0.217406
C41   C     C_3   0.006093 0.591217 0.083289 -0.143852
C42   C     C_3   0.001950 0.591470 0.916555 -0.149812
C43   C     C_3   0.921962 0.459653 0.083813 -0.209071
C44   C     C_3   0.923593 0.456460 0.916312 -0.207136
C45   C     C_3   0.483975 0.089877 0.083796 -0.145473
C46   C     C_3   0.490166 0.091034 0.916700 -0.149169
C47   C     C_3   0.433759 0.940924 0.084013 -0.204087
C48   C     C_3   0.430959 0.944636 0.916835 -0.205008
H33   H     H_    0.065631 0.623484 0.117253 0.252679
H34   H     H_    0.056112 0.629834 0.873675 0.251540
H35   H     H_    0.913901 0.390505 0.123368 0.198957
H36   H     H_    0.920766 0.385669 0.881977 0.199965
H37   H     H_    0.527915 0.139418 0.129935 0.247837
H38   H     H_    0.544029 0.134483 0.883583 0.235287
H39   H     H_    0.444880 0.871019 0.118251 0.204249
H40   H     H_    0.435198 0.875643 0.875535 0.210531
H41   H     H_    0.952900 0.632221 0.125150 0.191755
H42   H     H_    0.943554 0.627577 0.883259 0.183338
H43   H     H_    0.865152 0.497487 0.120703 0.163245
H44   H     H_    0.865330 0.488948 0.873742 0.164859
H45   H     H_    0.419019 0.112109 0.115096 0.170718
H46   H     H_    0.431362 0.121996 0.874041 0.182482
H47   H     H_    0.370331 0.960323 0.126982 0.165570
H48   H     H_    0.368241 0.971200 0.881860 0.163133
H49   H     H_    0.133892 0.470386 0.128246 0.221363
H50   H     H_    0.134997 0.484722 0.882232 0.244053
H51   H     H_    0.063745 0.377666 0.115686 0.225224
H52   H     H_    0.075556 0.382653 0.876070 0.224569
H53   H     H_    0.635183 0.014533 0.117662 0.226896
H54   H     H_    0.636599 0.000040 0.870853 0.236018
H55   H     H_    0.595782 0.902304 0.122246 0.238663
H56   H     H_    0.585833 0.893786 0.885556 0.230236
C49   C     C_3   0.072520 0.447907 0.083343 -0.140951
C50   C     C_3   0.075227 0.451964 0.916856 -0.111500
C51   C     C_3   0.583055 0.969709 0.082548 -0.122761
C52   C     C_3   0.581130 0.964479 0.916227 -0.128442
N1    N     N_3   0.001260 0.500000 0.143650 -0.191885
N2    N     N_3   0.001260 0.500000 0.856350 -0.196224
N3    N     N_3   0.501260 0.000000 0.143650 -0.199230
N4    N     N_3   0.501260 0.000000 0.856350 -0.195102
N5    N     N_R   0.924958 0.200194 0.616111 0.148248
O17   O     O_R   0.977369 0.238294 0.704076 -0.369143
O18   O     O_R   0.947820 0.125327 0.557855 -0.263169
N6    N     N_R   0.885409 0.221950 0.286311 0.132050
O19   O     O_R   0.880976 0.183294 0.163015 -0.245981
O20   O     O_R   0.960525 0.240749 0.335848 -0.288898
N7    N     N_R   0.906891 0.798346 0.667465 0.143079
O21   O     O_R   0.973875 0.751253 0.697101 -0.355685
O22   O     O_R   0.913678 0.884661 0.673572 -0.244599
N8    N     N_R   0.922834 0.800480 0.363618 0.141273
O23   O     O_R   0.982753 0.749299 0.314988 -0.384235
O24   O     O_R   0.939146 0.885205 0.374945 -0.253415
N9    N     N_R   0.407745 0.699051 0.649699 0.152929
O25   O     O_R   0.461865 0.726694 0.744277 -0.291889
O26   O     O_R   0.422858 0.624082 0.585101 -0.281178
N10   N     N_R   0.408933 0.712712 0.320868 0.143461
O27   O     O_R   0.416524 0.664961 0.206433 -0.236617
O28   O     O_R   0.477960 0.740623 0.382334 -0.369222
N11   N     N_R   0.426783 0.302465 0.606044 0.148599
O29   O     O_R   0.480450 0.266069 0.693294 -0.380916
O30   O     O_R   0.448160 0.377341 0.546042 -0.266313
N12   N     N_R   0.383017 0.279031 0.284907 0.128792
O31   O     O_R   0.459211 0.258385 0.327500 -0.303815
O32   O     O_R   0.376228 0.320227 0.164099 -0.251316
N13   N     N_R   0.201141 0.690487 0.770768 0.136073
O33   O     O_R   0.162835 0.765299 0.798201 -0.322502
O34   O     O_R   0.214535 0.635521 0.874679 -0.270096
N14   N     N_R   0.219871 0.655353 0.233200 0.145245
O35   O     O_R   0.182196 0.720797 0.168305 -0.331767
O36   O     O_R   0.239967 0.584731 0.160943 -0.291685
N15   N     N_R   0.250728 0.384435 0.727879 0.129570
O37   O     O_R   0.223211 0.332652 0.828520 -0.340681
O38   O     O_R   0.278650 0.463125 0.761649 -0.292212
N16   N     N_R   0.167344 0.264684 0.239087 0.129865
O39   O     O_R   0.122222 0.194117 0.266611 -0.285978
O40   O     O_R   0.183556 0.281125 0.106414 -0.309477
N17   N     N_R   0.746900 0.118254 0.733429 0.134181
O41   O     O_R   0.707921 0.168356 0.825246 -0.328840
O42   O     O_R   0.779533 0.043412 0.776061 -0.290166
N18   N     N_R   0.671150 0.222345 0.235675 0.140832
O43   O     O_R   0.630670 0.297635 0.244380 -0.303038
O44   O     O_R   0.675884 0.183716 0.112652 -0.312957
N19   N     N_R   0.696962 0.800251 0.773922 0.112169
O45   O     O_R   0.645671 0.732297 0.780419 -0.305558
O46   O     O_R   0.727378 0.830965 0.892419 -0.274178
N20   N     N_R   0.733677 0.855517 0.241532 0.119778
O47   O     O_R   0.698160 0.790837 0.171098 -0.337970
O48   O     O_R   0.762986 0.923692 0.171539 -0.290491

loop_
_geom_bond_atom_site_label_1
_geom_bond_atom_site_label_2
_geom_bond_distance
_ccdc_geom_bond_type
H24   C28   1.113007 S    
C9    N5    1.471205 S    
C2    C33   1.512384 S    
C41   C42   1.574359 S    
H21   C27   1.113446 S    
C35   C39   1.553079 S    
C13   C17   1.554861 S    
N17   O41   1.299828 A    
C21   C35   1.580488 S    
H18   C25   1.113427 S    
C43   C44   1.580961 S    
C48   H48   1.113072 S    
C28   C38   1.543822 S    
C28   C32   1.560739 S    
C15   C19   1.561044 S    
C45   C46   1.579147 S    
C16   N12   1.476505 S    
N19   O46   1.300378 A    
C9    C21   1.558859 S    
H22   C27   1.114309 S    
C44   H44   1.112754 S    
C42   N2    1.486683 S    
C11   C30   1.563467 S    
C7    C31   1.482090 S    
C6    C30   1.488410 S    
O10   C5    1.292381 A    
C19   H11   1.112315 S    
N15   O38   1.299479 A    
N10   O28   1.297890 A    
H53   C51   1.109082 S    
C41   H41   1.109929 S    
C47   H47   1.112716 S    
C41   N1    1.485855 S    
N20   O48   1.301232 A    
C46   H46   1.110195 S    
C50   N2    1.483016 S    
C21   N17   1.466623 S    
O7    Cu3   1.988319 S    
C10   H2    1.114368 S    
C12   C24   1.564672 S    
C24   H16   1.111597 S    
O5    Cu3   1.992662 S    
C14   N10   1.472364 S    
O11   C6    1.293630 A    
O6    Cu4   1.993464 S    
O1    C1    1.301709 A    
O16   C8    1.292051 A    
H17   C25   1.113973 S    
C14   H6    1.113436 S    
N11   O29   1.300145 A    
C14   C18   1.552259 S    
C15   H7    1.114252 S    
N12   O32   1.301743 A    
H56   C52   1.103196 S    
C18   C33   1.586052 S    
C19   N15   1.466313 S    
N11   O30   1.302315 A    
C10   C22   1.552336 S    
C17   H9    1.108395 S    
N13   O34   1.299694 A    
O1    Cu1   1.992662 S    
Cu3   N4    2.018301 S    
N17   O42   1.300657 A    
O9    Cu1   1.989205 S    
C15   N11   1.470168 S    
C47   H39   1.113075 S    
H25   C37   1.106129 S    
Cu1   N2    2.018301 S    
C52   N4    1.476246 S    
O14   Cu4   1.988640 S    
N9    O26   1.302281 A    
C43   H35   1.110774 S    
N9    O25   1.300150 A    
C51   N3    1.477800 S    
O12   Cu2   1.992981 S    
O7    C4    1.300296 A    
C48   H40   1.109200 S    
O14   C7    1.292770 A    
C22   H14   1.115681 S    
C19   C34   1.582921 S    
C36   C40   1.546500 S    
C24   C36   1.585963 S    
N16   O40   1.300211 A    
C17   N13   1.468949 S    
N10   O27   1.301255 A    
H29   C39   1.106752 S    
N6    O20   1.298771 A    
C34   C38   1.551762 S    
C41   H33   1.099388 S    
O6    C3    1.303233 A    
C33   C37   1.551274 S    
O16   Cu4   1.992981 S    
C26   C40   1.535101 S    
Cu1   Cu2   2.686815 S    
C42   H42   1.111453 S    
N13   O33   1.301205 A    
O13   Cu3   1.989205 S    
H30   C39   1.107667 S    
C17   C33   1.581057 S    
H20   C26   1.114225 S    
C9    C29   1.568279 S    
C15   C32   1.562530 S    
C1    C34   1.511106 S    
N5    O17   1.300923 A    
H28   C38   1.106052 S    
C26   C30   1.557128 S    
H55   C51   1.098647 S    
N19   O45   1.299642 A    
C25   C29   1.556278 S    
C3    C36   1.519370 S    
O8    C4    1.296683 A    
C18   N14   1.465982 S    
C18   H10   1.115051 S    
O9    C5    1.296506 A    
O2    Cu2   1.993464 S    
O13   C7    1.292923 A    
O10   Cu2   1.988640 S    
C23   N19   1.464147 S    
C13   C31   1.564791 S    
C45   N3    1.489414 S    
N12   O31   1.299806 A    
Cu2   N1    2.018218 S    
C13   N9    1.472004 S    
C22   C35   1.580340 S    
H32   C40   1.105078 S    
H51   C49   1.106762 S    
C5    C29   1.489028 S    
C10   N6    1.473875 S    
C46   N4    1.491528 S    
C44   H36   1.112386 S    
N16   O39   1.299245 A    
O8    Cu4   1.988884 S    
C20   C34   1.586792 S    
C16   H8    1.114849 S    
H26   C37   1.104248 S    
C23   H15   1.107310 S    
C14   C31   1.568622 S    
C45   H45   1.112015 S    
C51   C52   1.571261 S    
H31   C40   1.107476 S    
N8    O24   1.302093 A    
O15   Cu3   1.993784 S    
N18   O43   1.300776 A    
C44   N2    1.491641 S    
C20   H12   1.114833 S    
C25   C39   1.541500 S    
O12   C6    1.297616 A    
C4    C35   1.504302 S    
C12   N8    1.476241 S    
H23   C28   1.113783 S    
O4    C2    1.298791 A    
C11   C23   1.563331 S    
N6    O19   1.301728 A    
C23   C36   1.586926 S    
C21   H13   1.112058 S    
O4    Cu2   1.988884 S    
N7    O21   1.298879 A    
C48   N4    1.492070 S    
O5    C3    1.301373 A    
C12   C30   1.560607 S    
C46   H38   1.110713 S    
C47   C48   1.578779 S    
C47   N3    1.490913 S    
Cu4   N3    2.018218 S    
C13   H5    1.114942 S    
N14   O35   1.302015 A    
C10   C29   1.575163 S    
O15   C8    1.297264 A    
C8    C32   1.489491 S    
C45   H37   1.103166 S    
O3    C2    1.302340 A    
C43   H43   1.112944 S    
C27   C31   1.557144 S    
N7    O22   1.302076 A    
C49   C50   1.572213 S    
H27   C38   1.107659 S    
H49   C49   1.104596 S    
C16   C32   1.572408 S    
N18   O44   1.299368 A    
C11   H3    1.114788 S    
C16   C20   1.553625 S    
H52   C50   1.109932 S    
C12   H4    1.113768 S    
H54   C52   1.105323 S    
C24   N20   1.461487 S    
C27   C37   1.540691 S    
N15   O37   1.299989 A    
O11   Cu1   1.993784 S    
C49   N1    1.478420 S    
O3    Cu1   1.988319 S    
C20   N16   1.470755 S    
C42   H34   1.101672 S    
C9    H1    1.115260 S    
Cu3   Cu4   2.686815 S    
C43   N1    1.494026 S    
N5    O18   1.302292 A    
N8    O23   1.298346 A    
C22   N18   1.469200 S    
H50   C50   1.106424 S    
O2    C1    1.298605 A    
C11   N7    1.478794 S    
N14   O36   1.299800 A    
N20   O47   1.301770 A    
H19   C26   1.113686 S    
