data_mof_unit_26490.cif
_audit_creation_date              2012-12-10T20:28:44-0500
_audit_creation_method            fapswitch 2.2
_symmetry_space_group_name_H-M    P1
_symmetry_Int_Tables_number       1
_space_group_crystal_system       triclinic
_cell_length_a                    10.635189
_cell_length_b                    10.611557
_cell_length_c                    9.882573
_cell_angle_alpha                 89.732509
_cell_angle_beta                  89.216002
_cell_angle_gamma                 91.158293
_cell_volume                      1114.96088287

loop_
_atom_site_label
_atom_site_type_symbol
_atom_type_description
_atom_site_fract_x
_atom_site_fract_y
_atom_site_fract_z
_atom_type_partial_charge
C1    C     C_R   0.494460 0.259558 0.500498 0.922218
C2    C     C_R   0.427456 0.934986 0.379515 0.204063
C3    C     C_R   0.453972 0.869008 0.500335 -0.171986
C4    C     C_R   0.260645 0.499762 0.501278 0.862569
C5    C     C_R   0.452571 0.933609 0.623009 0.074659
C6    C     C_3   0.532630 0.923396 0.745857 -0.451275
C7    C     C_3   0.539129 0.066134 0.746319 -0.497661
C8    C     C_R   0.391029 0.515685 0.072576 0.101310
C9    C     C_R   0.609485 0.494430 0.070295 -0.128748
C10   C     C_R   0.609499 0.494624 0.926629 -0.131188
C11   C     C_R   0.390900 0.514264 0.930515 0.070578
C12   C     C_R   0.069748 0.618357 0.543207 0.055403
C13   C     C_3   0.272217 0.434948 0.926609 -0.051678
C14   C     C_3   0.272350 0.437350 0.082016 -0.015545
C15   C     C_R   0.486409 0.738913 0.499809 0.892457
C16   C     C_R   0.739542 0.507621 0.498513 0.987757
C17   C     C_R   0.137768 0.723261 0.594308 -0.209389
C18   C     C_R   0.078182 0.835980 0.620708 -0.171991
C19   C     C_R   0.952500 0.848673 0.588468 -0.194814
C20   C     C_R   0.883811 0.746987 0.534157 0.205403
C21   C     C_R   0.939723 0.626277 0.524507 0.013936
C22   C     C_3   0.184728 0.255060 0.799514 -0.784933
C23   C     C_R   0.128820 0.506528 0.504879 -0.112512
C24   C     C_3   0.181959 0.235658 0.166398 -0.786397
C25   C     C_3   0.781901 0.789674 0.324756 -0.757852
C26   C     C_3   0.831990 0.209589 0.539924 -0.830585
C27   C     C_3   0.276062 0.819500 0.246772 -0.739117
C28   C     C_R   0.062770 0.400341 0.462654 -0.302647
C29   C     C_R   0.933757 0.401208 0.460955 0.192969
C30   C     C_R   0.872691 0.513346 0.493132 -0.161213
C31   C     C_R   0.458032 0.062056 0.623848 0.130895
C32   C     C_R   0.466476 0.127893 0.501877 -0.140333
C33   C     C_R   0.437444 0.065780 0.381038 -0.308324
H1    H     H_    0.111702 0.314882 0.436927 0.155688
H2    H     H_    0.697836 0.488368 0.872005 0.153536
H3    H     H_    0.376206 0.292057 0.827756 0.265465
H4    H     H_    0.199693 0.152735 0.784983 0.224291
H5    H     H_    0.176672 0.300281 0.698920 0.251534
H6    H     H_    0.095771 0.267128 0.857847 0.240806
H7    H     H_    0.371627 0.269071 0.117162 0.236239
H8    H     H_    0.197493 0.169876 0.251881 0.226909
H9    H     H_    0.164772 0.179012 0.074309 0.252860
H10   H     H_    0.097477 0.291792 0.189846 0.231628
H11   H     H_    0.131270 0.915687 0.659746 0.145884
H12   H     H_    0.625211 0.880131 0.725602 0.201944
H13   H     H_    0.722294 0.847622 0.512734 0.205714
H14   H     H_    0.689189 0.809725 0.280240 0.254558
H15   H     H_    0.818695 0.703067 0.277012 0.243012
H16   H     H_    0.846846 0.870515 0.301274 0.225511
H17   H     H_    0.907280 0.239454 0.348697 0.223326
H18   H     H_    0.918253 0.173996 0.588129 0.234382
H19   H     H_    0.774000 0.128096 0.505071 0.233978
H20   H     H_    0.776439 0.262400 0.615880 0.254193
H21   H     H_    0.429686 0.117209 0.286876 0.172885
H22   H     H_    0.427824 0.923219 0.169876 0.212700
H23   H     H_    0.635066 0.105122 0.725103 0.203011
H24   H     H_    0.206104 0.895894 0.250371 0.224750
H25   H     H_    0.256728 0.752179 0.331060 0.250551
H26   H     H_    0.265904 0.767788 0.149989 0.218245
H27   H     H_    0.479309 0.882863 0.833885 0.204101
H28   H     H_    0.697699 0.488015 0.122677 0.148892
H29   H     H_    0.193079 0.486935 0.881219 0.146993
H30   H     H_    0.193560 0.490707 0.127797 0.130098
H31   H     H_    0.237143 0.719528 0.614121 0.151760
H32   H     H_    0.910047 0.939958 0.598877 0.131457
H33   H     H_    0.490686 0.106773 0.835743 0.199138
N1    N     N_R   0.499160 0.499140 0.142800 -0.094137
N2    N     N_R   0.499160 0.499180 0.857150 -0.106391
N3    N     N_2   0.290039 0.309580 0.871144 -0.269072
N4    N     N_2   0.292214 0.316252 0.147455 -0.226765
N5    N     N_2   0.768506 0.772958 0.469889 -0.315958
N6    N     N_2   0.865316 0.289588 0.425647 -0.297239
N7    N     N_2   0.402208 0.872152 0.255361 -0.283610
O1    O     O_R   0.500020 0.316790 0.614690 -0.633703
O2    O     O_R   0.500000 0.316760 0.385350 -0.607105
O3    O     O_R   0.316770 0.500020 0.614690 -0.628237
O4    O     O_R   0.316760 0.499980 0.385350 -0.605348
O5    O     O_R   0.500000 0.683240 0.614650 -0.622838
O6    O     O_R   0.499980 0.683210 0.385310 -0.577789
O7    O     O_R   0.683240 0.500020 0.614650 -0.636462
O8    O     O_R   0.683230 0.499980 0.385310 -0.610998
Zn1   Zn    Zn3+2 0.500010 0.500020 0.653130 0.928889
Zn2   Zn    Zn3+2 0.499990 0.499980 0.346870 0.964695

loop_
_geom_bond_atom_site_label_1
_geom_bond_atom_site_label_2
_ccdc_geom_bond_type
N1    Zn2   S    
C6    H12   S    
C26   N6    S    
C19   C20   A    
C24   N4    S    
H3    N3    S    
C12   C23   A    
H7    N4    S    
C9    H28   S    
C1    O1    A    
C28   C29   A    
C18   H11   S    
C17   H31   S    
C5    C6    S    
C15   O5    A    
O4    Zn2   S    
C16   C30   S    
C22   H5    S    
C24   H9    S    
C18   C19   A    
H17   N6    S    
C15   O6    A    
C13   H29   S    
C12   C17   A    
C20   N5    S    
C10   H2    S    
C25   N5    S    
C9    C10   A    
C25   H14   S    
C22   N3    S    
C29   N6    S    
C28   H1    S    
C13   C14   S    
C24   H8    S    
C14   N4    S    
C7    H23   S    
O1    Zn1   S    
O8    Zn2   S    
C7    C31   S    
C1    O2    A    
C6    H27   S    
O7    Zn1   S    
C27   H24   S    
O3    Zn1   S    
C4    C23   S    
C22   H4    S    
C12   C21   A    
C1    C32   S    
C16   O7    A    
C9    N1    A    
C29   C30   A    
C26   H19   S    
O5    Zn1   S    
C31   C32   A    
C17   C18   A    
C23   C28   A    
C25   H15   S    
H13   N5    S    
C2    N7    S    
C2    C33   A    
C26   H20   S    
C3    C15   S    
C11   N2    A    
C33   H21   S    
C8    C14   S    
C22   H6    S    
C3    C5    A    
C27   H25   S    
C6    C7    S    
C10   N2    A    
C21   C30   A    
N2    Zn1   S    
C32   C33   A    
C2    C3    A    
C4    O4    A    
C27   H26   S    
C26   H18   S    
C7    H33   S    
O6    Zn2   S    
C11   C13   S    
O2    Zn2   S    
C13   N3    S    
C8    C11   A    
C14   H30   S    
C16   O8    A    
C19   H32   S    
C25   H16   S    
C4    O3    A    
H22   N7    S    
C20   C21   A    
C8    N1    A    
C24   H10   S    
C27   N7    S    
C5    C31   A    
