data_mof_unit_7680.cif
_audit_creation_date              2012-12-10T18:43:12-0500
_audit_creation_method            fapswitch 2.2
_symmetry_space_group_name_H-M    P1
_symmetry_Int_Tables_number       1
_space_group_crystal_system       triclinic
_cell_length_a                    10.598972
_cell_length_b                    9.955559
_cell_length_c                    10.606121
_cell_angle_alpha                 90.933456
_cell_angle_beta                  90.537878
_cell_angle_gamma                 89.721396
_cell_volume                      1118.93376231

loop_
_atom_site_label
_atom_site_type_symbol
_atom_type_description
_atom_site_fract_x
_atom_site_fract_y
_atom_site_fract_z
_atom_type_partial_charge
C1    C     C_R   0.260698 0.499770 0.503057 0.945338
C2    C     C_R   0.935041 0.456716 0.614039 0.444560
C3    C     C_R   0.871907 0.499018 0.505132 -0.162037
C4    C     C_R   0.128313 0.497804 0.505793 -0.159691
C5    C     C_R   0.934940 0.540072 0.398241 -0.288260
C6    C     C_R   0.064036 0.539182 0.398389 -0.184475
C7    C     C_R   0.591487 0.074474 0.560979 -0.143975
C8    C     C_R   0.408261 0.073651 0.439307 -0.162247
C9    C     C_R   0.593291 0.932220 0.562957 0.413861
C10   C     C_R   0.406421 0.931342 0.437575 0.425198
C11   C     C_3   0.520569 0.186702 0.952364 -0.245576
C12   C     C_R   0.739387 0.499744 0.501678 0.960548
C13   C     C_3   0.216959 0.309982 0.071041 -0.233128
C14   C     C_3   0.278074 0.668892 0.870685 -0.194268
C15   C     C_3   0.711930 0.566141 0.120278 -0.264105
C16   C     C_3   0.159882 0.274943 0.712620 -0.272013
C17   C     C_3   0.849727 0.298737 0.742815 -0.181861
C18   C     C_R   0.502174 0.498498 0.262229 0.854834
C19   C     C_R   0.481862 0.501034 0.735582 0.901602
C20   C     C_2   0.425365 0.395463 0.932327 0.309438
C21   C     C_2   0.413193 0.416411 0.069585 0.349640
C22   C     C_2   0.429617 0.506284 0.861242 0.296618
C23   C     C_2   0.503792 0.491026 0.126839 0.297493
C24   C     C_R   0.066069 0.452317 0.613232 0.389836
H1    H     H_    0.884491 0.573635 0.315644 0.160388
H2    H     H_    0.141724 0.281016 0.137184 0.198457
H3    H     H_    0.205569 0.597950 0.904220 0.172702
H4    H     H_    0.273180 0.676454 0.766213 0.172116
H5    H     H_    0.255192 0.769529 0.910915 0.210558
H6    H     H_    0.707644 0.646720 0.193799 0.183338
H7    H     H_    0.785151 0.594892 0.051845 0.229790
H8    H     H_    0.741374 0.468380 0.161112 0.109038
H9    H     H_    0.261969 0.259982 0.695731 0.239756
H10   H     H_    0.105656 0.217524 0.638986 0.152721
H11   H     H_    0.138885 0.229627 0.804706 0.176476
H12   H     H_    0.113757 0.570442 0.315136 0.217188
H13   H     H_    0.863631 0.234113 0.657041 0.144572
H14   H     H_    0.751370 0.284561 0.774657 0.193464
H15   H     H_    0.913021 0.263556 0.819377 0.182677
H16   H     H_    0.910191 0.790884 0.587553 0.385243
H17   H     H_    0.081311 0.831202 0.426676 0.391260
H18   H     H_    0.664328 0.132252 0.607700 0.184446
H19   H     H_    0.334949 0.131036 0.393080 0.219761
H20   H     H_    0.472148 0.152737 0.038579 0.202956
H21   H     H_    0.609927 0.239601 0.977457 0.151124
H22   H     H_    0.546097 0.095756 0.896190 0.220193
H23   H     H_    0.239505 0.219937 0.012304 0.202331
H24   H     H_    0.178533 0.392545 0.012511 0.161544
N1    N     N_R   0.500000 0.857200 0.500000 -0.206768
N2    N     N_R   0.500000 0.142810 0.500000 -0.142733
O1    O     O_R   0.316770 0.614620 0.499990 -0.550749
O2    O     O_3   0.323311 0.350981 0.142274 -0.631087
O3    O     O_3   0.399582 0.631561 0.912888 -0.580816
O4    O     O_3   0.595520 0.555614 0.055862 -0.593782
O5    O     O_3   0.132252 0.414141 0.720002 -0.651476
O6    O     O_3   0.869152 0.437181 0.724353 -0.589079
O7    O     O_2   0.782209 0.969889 0.731118 -0.373203
O8    O     O_2   0.696605 0.745213 0.721592 -0.219906
O9    O     O_3   0.837425 0.823372 0.537080 -0.561015
O10   O     O_2   0.213488 0.966526 0.274739 -0.342855
O11   O     O_2   0.299213 0.741176 0.280831 -0.273196
O12   O     O_R   0.683230 0.614620 0.500010 -0.544141
O13   O     O_3   0.164063 0.826473 0.470534 -0.571306
O14   O     O_R   0.316800 0.385290 0.500000 -0.636458
O15   O     O_R   0.683200 0.385290 0.500000 -0.645113
O16   O     O_R   0.500000 0.614630 0.319080 -0.573059
O17   O     O_R   0.500000 0.614630 0.680920 -0.557514
O18   O     O_R   0.500030 0.385300 0.319080 -0.607990
O19   O     O_R   0.499970 0.385300 0.680920 -0.602236
O20   O     O_3   0.439918 0.267513 0.878572 -0.642308
S1    S     S_3+6 0.726981 0.864694 0.643762 0.041331
S2    S     S_3+6 0.270890 0.863111 0.360168 0.030594
Zn1   Zn    Zn3+2 0.500000 0.653120 0.500000 1.093689
Zn2   Zn    Zn3+2 0.500000 0.346880 0.500000 0.971747

loop_
_geom_bond_atom_site_label_1
_geom_bond_atom_site_label_2
_ccdc_geom_bond_type
O1    Zn1   S    
C13   H24   S    
C1    O14   A    
O12   Zn1   S    
C19   O17   A    
C13   H2    S    
O17   Zn1   S    
C16   H9    S    
C18   O16   A    
C13   O2    S    
C12   O12   A    
C12   O15   A    
C21   O2    S    
C8    H19   S    
C18   O18   A    
C1    C4    S    
C14   H4    S    
C14   O3    S    
C21   C23   D    
C2    C3    A    
C11   O20   S    
O19   Zn2   S    
H16   O9    S    
C17   H13   S    
O7    S1    D    
C24   O5    S    
C15   H7    S    
C1    O1    A    
C17   O6    S    
C20   O20   S    
C10   N1    A    
C23   O4    S    
C15   H8    S    
C4    C24   A    
O11   S2    D    
C4    C6    A    
C20   C22   D    
C22   O3    S    
N1    Zn1   S    
C17   H14   S    
N2    Zn2   S    
C16   H11   S    
C2    C24   A    
C5    C6    A    
C14   H3    S    
C5    H1    S    
O8    S1    D    
C11   H21   S    
C19   O19   A    
H17   O13   S    
C14   H5    S    
O18   Zn2   S    
C18   C23   S    
C15   O4    S    
C8    N2    A    
C11   H20   S    
C19   C22   S    
C9    N1    A    
O13   S2    S    
C15   H6    S    
C8    C10   A    
C17   H15   S    
C7    H18   S    
O9    S1    S    
C7    C9    A    
O10   S2    D    
C11   H22   S    
O14   Zn2   S    
C3    C12   S    
C16   O5    S    
C16   H10   S    
C20   C21   S    
O16   Zn1   S    
C13   H23   S    
C2    O6    S    
O15   Zn2   S    
C9    S1    S    
C7    N2    A    
C6    H12   S    
C3    C5    A    
C10   S2    S    
