data_mof_unit_22252.cif
_audit_creation_date              2012-12-11T14:13:18-0500
_audit_creation_method            fapswitch 2.2
_symmetry_space_group_name_H-M    P1
_symmetry_Int_Tables_number       1
_space_group_crystal_system       triclinic
_cell_length_a                    11.705687
_cell_length_b                    18.517859
_cell_length_c                    10.019073
_cell_angle_alpha                 90.104371
_cell_angle_beta                  111.40826
_cell_angle_gamma                 90.098515
_cell_volume                      2021.92132123

loop_
_atom_site_label
_atom_site_type_symbol
_atom_type_description
_atom_site_fract_x
_atom_site_fract_y
_atom_site_fract_z
_atom_type_partial_charge
C1    C     C_R   0.069285 0.647751 0.139445 0.554254
C2    C     C_R   0.929732 0.352910 0.861299 0.518212
C3    C     C_R   0.927777 0.146310 0.859636 0.524011
C4    C     C_R   0.069689 0.852340 0.139583 0.526727
C5    C     C_R   0.396404 0.461207 0.502503 0.046002
C6    C     C_R   0.601554 0.537680 0.494003 0.016272
C7    C     C_R   0.607929 0.959749 0.507176 0.038777
C8    C     C_R   0.401804 0.035037 0.514679 0.019376
C9    C     C_2   0.373204 0.941331 0.011758 0.229841
C10   C     C_2   0.599454 0.071422 0.064140 0.238711
C11   C     C_2   0.593466 0.430047 0.061420 0.216230
C12   C     C_2   0.360253 0.561570 0.022988 0.255210
C13   C     C_2   0.477860 0.973248 0.100728 0.281491
C14   C     C_2   0.500053 0.050871 0.093065 0.271199
C15   C     C_2   0.474327 0.451039 0.019391 0.288459
C16   C     C_2   0.440857 0.526753 0.977264 0.329457
C17   C     C_2   0.003750 0.920976 0.117150 0.293296
C18   C     C_2   0.983020 0.074313 0.878666 0.232620
C19   C     C_2   0.993865 0.422615 0.889097 0.212460
C20   C     C_2   0.003825 0.578826 0.118182 0.325654
C21   C     C_2   0.983045 0.956872 0.994734 0.350833
C22   C     C_2   0.992268 0.036894 0.997492 0.343452
C23   C     C_2   0.992263 0.461485 0.002526 0.338956
C24   C     C_2   0.984727 0.541491 0.997007 0.356771
C25   C     C_R   0.471507 0.647405 0.443668 0.533216
C26   C     C_R   0.527991 0.352252 0.555440 0.517132
C27   C     C_R   0.528806 0.146779 0.557391 0.524175
C28   C     C_R   0.472944 0.851686 0.446066 0.531221
C29   C     C_R   0.349117 0.639996 0.017170 0.575360
C30   C     C_R   0.623513 0.355857 0.035210 0.531050
C31   C     C_R   0.623317 0.145382 0.036860 0.540955
C32   C     C_R   0.353360 0.862304 0.012570 0.576963
C33   C     C_R   0.495445 0.423644 0.485286 -0.005221
C34   C     C_R   0.502279 0.575349 0.510635 0.009304
C35   C     C_R   0.508450 0.921760 0.522147 -0.012905
C36   C     C_R   0.499781 0.073342 0.495239 0.005808
C37   C     C_R   0.288734 0.425199 0.498447 -0.076003
C38   C     C_R   0.711687 0.572891 0.504089 -0.123291
C39   C     C_R   0.715780 0.924119 0.511666 -0.087270
C40   C     C_R   0.290760 0.068919 0.504564 -0.091598
C41   C     C_R   0.204886 0.459448 0.545839 -0.007055
C42   C     C_R   0.802024 0.536396 0.470996 -0.033714
C43   C     C_R   0.800724 0.959169 0.466658 -0.003286
C44   C     C_R   0.201252 0.031182 0.537626 -0.007257
C45   C     C_R   0.222482 0.531168 0.589566 0.266489
C46   C     C_R   0.784563 0.464486 0.427809 0.301535
C47   C     C_R   0.782192 0.030638 0.421706 0.281030
C48   C     C_R   0.220636 0.959483 0.581504 0.300464
C49   C     C_R   0.322295 0.569104 0.582398 -0.029902
C50   C     C_R   0.677126 0.429310 0.417720 -0.053873
C51   C     C_R   0.680138 0.067444 0.424508 -0.032720
C52   C     C_R   0.329579 0.925989 0.593638 -0.037056
C53   C     C_R   0.407452 0.535780 0.532332 0.016759
C54   C     C_R   0.589900 0.463243 0.463154 -0.020566
C55   C     C_R   0.595743 0.034098 0.475698 0.001907
C56   C     C_R   0.415195 0.960831 0.546873 -0.031746
Cr1   Cr    Cr6+3 0.187610 0.750000 0.979860 1.170879
Cr2   Cr    Cr6+3 0.812390 0.250000 0.020140 1.144476
Cr3   Cr    Cr6+3 0.245810 0.750000 0.341640 1.059162
Cr4   Cr    Cr6+3 0.754190 0.250000 0.658360 1.061642
Cr5   Cr    Cr6+3 0.485760 0.750000 0.219910 1.057258
Cr6   Cr    Cr6+3 0.514240 0.250000 0.780090 1.068260
H1    H     H_    0.128889 0.429202 0.552671 0.192020
H2    H     H_    0.883754 0.564729 0.475658 0.202264
H3    H     H_    0.877116 0.929465 0.460115 0.195486
H4    H     H_    0.118407 0.058258 0.531930 0.202329
H5    H     H_    0.270681 0.369725 0.462340 0.139779
H6    H     H_    0.729160 0.628476 0.539537 0.154536
H7    H     H_    0.732632 0.868355 0.545452 0.144795
H8    H     H_    0.271377 0.124115 0.467987 0.146995
H9    H     H_    0.334816 0.624133 0.621526 0.151042
H10   H     H_    0.662901 0.374877 0.375089 0.138261
H11   H     H_    0.664972 0.121466 0.380609 0.137709
H12   H     H_    0.345021 0.871429 0.635116 0.161503
O1    O     O_R   0.267710 0.668200 0.902110 -0.454337
O2    O     O_R   0.732290 0.331800 0.097890 -0.430271
O3    O     O_R   0.732290 0.168200 0.097890 -0.430416
O4    O     O_R   0.267710 0.831800 0.902110 -0.424121
O5    O     O_R   0.099480 0.674460 0.038850 -0.452626
O6    O     O_R   0.900520 0.325540 0.961150 -0.486149
O7    O     O_R   0.900520 0.174460 0.961150 -0.477827
O8    O     O_R   0.099480 0.825540 0.038850 -0.460575
O9    O     O_R   0.116720 0.669210 0.267660 -0.518359
O10   O     O_R   0.883280 0.330790 0.732340 -0.503511
O11   O     O_R   0.883280 0.169210 0.732340 -0.511924
O12   O     O_R   0.116720 0.830790 0.267660 -0.520656
O13   O     O_R   0.366710 0.675440 0.427590 -0.500140
O14   O     O_R   0.633290 0.324560 0.572410 -0.507420
O15   O     O_R   0.633290 0.175440 0.572410 -0.510947
O16   O     O_R   0.366710 0.824560 0.427590 -0.510401
O17   O     O_R   0.534870 0.669390 0.371760 -0.514307
O18   O     O_R   0.465130 0.330610 0.628240 -0.508783
O19   O     O_R   0.465130 0.169390 0.628240 -0.508722
O20   O     O_R   0.534870 0.830610 0.371760 -0.483817
O21   O     O_R   0.453080 0.674480 0.075160 -0.505273
O22   O     O_R   0.546920 0.325520 0.924840 -0.502946
O23   O     O_R   0.546920 0.174480 0.924840 -0.504579
O24   O     O_R   0.453080 0.825520 0.075160 -0.512188
O25   O     O_3   0.306390 0.750000 0.180470 -0.323905
O26   O     O_3   0.693610 0.250000 0.819530 -0.265030
Cl1   Cl    Cl    0.119331 0.575110 0.651251 -0.538446
Cl2   Cl    Cl    0.896349 0.416657 0.386969 -0.519563
Cl3   Cl    Cl    0.885293 0.075553 0.361087 -0.519934
Cl4   Cl    Cl    0.108012 0.908988 0.616177 -0.522627
O27   O     O_3   0.420145 0.098816 0.120161 -0.692607
H13   H     H_    0.453357 0.148555 0.129833 0.298890
O28   O     O_3   0.570706 0.934614 0.199416 -0.690249
H14   H     H_    0.613362 0.907608 0.146001 0.369286
O29   O     O_3   0.497701 0.559487 0.893175 -0.684264
H15   H     H_    0.463998 0.608142 0.862672 0.326051
O30   O     O_3   0.379577 0.402215 0.999533 -0.659148
H16   H     H_    0.412070 0.359756 0.062074 0.306548
Cl5   Cl    Cl    0.693893 0.008791 0.019055 -0.591021
Cl6   Cl    Cl    0.252800 0.995830 0.904786 -0.514299
Cl7   Cl    Cl    0.294220 0.519119 0.135089 -0.620739
Cl8   Cl    Cl    0.712294 0.494375 0.092799 -0.488095
O31   O     O_3   0.015729 0.072131 0.127066 -0.583179
H17   H     H_    0.072076 0.113211 0.133182 0.316546
O32   O     O_3   0.959743 0.917970 0.869788 -0.627688
H18   H     H_    0.886233 0.939902 0.797067 0.344806
O33   O     O_3   0.964077 0.578862 0.870999 -0.642750
H19   H     H_    0.902737 0.551197 0.792624 0.346803
O34   O     O_3   0.000413 0.427432 0.128709 -0.561446
H20   H     H_    0.060475 0.387416 0.146093 0.325124
O35   O     O_3   0.998142 0.039774 0.763587 -0.637675
H21   H     H_    0.002715 0.076296 0.693692 0.362745
O36   O     O_3   0.982869 0.954363 0.229685 -0.597459
H22   H     H_    0.987713 0.918042 0.303735 0.351078
O37   O     O_3   0.984506 0.546283 0.232642 -0.586067
H23   H     H_    0.987676 0.583169 0.305514 0.347975
O38   O     O_3   0.033202 0.453614 0.788189 -0.642538
H24   H     H_    0.032546 0.416201 0.717295 0.356603

loop_
_geom_bond_atom_site_label_1
_geom_bond_atom_site_label_2
_ccdc_geom_bond_type
C22   O31   S    
C44   C48   A    
C5    C37   A    
C12   C29   S    
C3    O11   A    
Cr3   O25   S    
Cr1   O5    S    
C44   H4    S    
O30   H16   S    
C7    C55   A    
C20   O37   S    
C13   O28   S    
C8    C56   A    
Cr4   O14   S    
Cr2   O2    S    
O34   H20   S    
Cr4   O15   S    
C46   Cl2   S    
C50   C54   A    
C40   H8    S    
C9    Cl6   S    
C5    C53   A    
Cr3   O9    S    
C38   C42   A    
C52   H12   S    
C18   O35   S    
C42   C46   A    
C4    O12   A    
C26   O18   A    
C15   C16   S    
C48   Cl4   S    
C25   O13   A    
C9    C13   D    
C3    C18   S    
C28   O20   A    
C8    C36   A    
C50   H10   S    
C30   O22   A    
C9    C32   S    
C11   C15   D    
C10   C31   S    
C14   O27   S    
C12   C16   D    
C11   C30   S    
C5    C33   A    
C3    O7    A    
C23   C24   S    
C6    C38   A    
C40   C44   A    
Cr2   O3    S    
Cr2   O6    S    
C25   C34   S    
C12   Cl7   S    
C35   C56   A    
C21   C22   S    
Cr5   O25   S    
C6    C54   A    
C16   O29   S    
C31   O3    A    
C19   O38   S    
C25   O17   A    
C47   Cl3   S    
C15   O30   S    
Cr2   O26   S    
C28   C35   S    
C10   C14   D    
Cr2   O7    S    
C29   O21   A    
Cr5   O20   S    
C17   O36   S    
C47   C51   A    
C17   C21   D    
C6    C34   A    
Cr6   O18   S    
Cr3   O16   S    
C19   C23   D    
Cr6   O23   S    
C30   O2    A    
C26   C33   S    
C45   C49   A    
C43   H3    S    
C2    O10   A    
C39   H7    S    
C11   Cl8   S    
O33   H19   S    
C10   Cl5   S    
C45   Cl1   S    
Cr6   O26   S    
C4    C17   S    
C38   H6    S    
O35   H21   S    
C1    O5    A    
C27   O19   A    
C41   H1    S    
O28   H14   S    
O38   H24   S    
C42   H2    S    
O37   H23   S    
C33   C54   A    
C23   O34   S    
C1    C20   S    
C7    C39   A    
C2    C19   S    
C18   C22   D    
C7    C35   A    
Cr1   O4    S    
C51   H11   S    
Cr4   O26   S    
C39   C43   A    
O32   H18   S    
Cr5   O21   S    
O36   H22   S    
C29   O1    A    
C27   C36   S    
C1    O9    A    
O27   H13   S    
C46   C50   A    
Cr1   O1    S    
Cr3   O12   S    
C21   O32   S    
C36   C55   A    
O31   H17   S    
Cr4   O10   S    
Cr5   O24   S    
C49   C53   A    
C37   H5    S    
C24   O33   S    
C32   O24   A    
C27   O15   A    
C51   C55   A    
C31   O23   A    
C37   C41   A    
Cr3   O13   S    
C2    O6    A    
C32   O4    A    
C52   C56   A    
C48   C52   A    
C4    O8    A    
C34   C53   A    
C26   O14   A    
C49   H9    S    
Cr6   O19   S    
O29   H15   S    
C41   C45   A    
Cr1   O8    S    
Cr4   O11   S    
C28   O16   A    
C8    C40   A    
Cr6   O22   S    
C13   C14   S    
C43   C47   A    
C20   C24   D    
Cr5   O17   S    
Cr1   O25   S    
