data_mof_unit_16917.cif
_audit_creation_date              2012-12-10T16:37:32-0500
_audit_creation_method            fapswitch 2.2
_symmetry_space_group_name_H-M    P1
_symmetry_Int_Tables_number       1
_space_group_crystal_system       triclinic
_cell_length_a                    10.818407
_cell_length_b                    10.881141
_cell_length_c                    15.59714
_cell_angle_alpha                 96.659018
_cell_angle_beta                  74.270989
_cell_angle_gamma                 98.193329
_cell_volume                      1743.48101767

loop_
_atom_site_label
_atom_site_type_symbol
_atom_type_description
_atom_site_fract_x
_atom_site_fract_y
_atom_site_fract_z
_atom_type_partial_charge
C1    C     C_R   0.157989 0.478599 0.521390 0.554499
C2    C     C_R   0.534460 0.514064 0.116676 0.302090
C3    C     C_R   0.640962 0.331443 0.115762 -0.181060
C4    C     C_R   0.842732 0.520826 0.478957 0.489665
C5    C     C_R   0.424321 0.579026 0.840579 -0.027365
C6    C     C_2   0.981954 0.525537 0.466622 0.213197
C7    C     C_2   0.022954 0.476840 0.527641 -0.102398
C8    C     C_2   0.536064 0.966932 0.476558 -0.113445
C9    C     C_2   0.450105 0.038699 0.531023 0.258104
C10   C     C_R   0.470517 0.168470 0.519016 0.521107
C11   C     C_R   0.528281 0.833620 0.481020 0.543836
C12   C     C_R   0.268005 0.622817 0.983169 0.282268
C13   C     C_R   0.554133 0.447095 0.258926 0.554192
C14   C     C_R   0.448785 0.557259 0.741810 0.541108
C15   C     C_R   0.675197 0.321322 0.022842 -0.095127
C16   C     C_R   0.574829 0.429991 0.162628 0.033940
C17   C     C_R   0.307767 0.626384 0.890168 0.227974
C18   C     C_3   0.128329 0.586712 0.836903 -0.015115
C19   C     C_3   0.211330 0.409668 0.107247 -0.066917
C20   C     C_3   0.177617 0.785261 0.069138 -0.049013
C21   C     C_3   0.758838 0.661677 0.784960 -0.088196
C22   C     C_R   0.336629 0.562373 0.026334 0.299474
C23   C     C_R   0.461638 0.530838 0.980894 -0.050326
C24   C     C_R   0.505531 0.536818 0.887163 -0.121794
C25   C     C_R   0.539828 0.482592 0.025479 -0.021656
C26   C     C_R   0.627902 0.399298 0.976162 -0.059859
C27   C     C_R   0.670975 0.403709 0.882677 0.287130
C28   C     C_R   0.627168 0.493263 0.843594 0.316546
H1    H     H_    0.675254 0.268682 0.150944 0.126663
H2    H     H_    0.077108 0.622490 0.793939 0.161908
H3    H     H_    0.279207 0.339611 0.075662 0.101387
H4    H     H_    0.135656 0.405953 0.070492 0.134448
H5    H     H_    0.161730 0.383468 0.175728 0.195868
H6    H     H_    0.227245 0.850532 0.017091 0.150420
H7    H     H_    0.235762 0.785924 0.118164 0.182359
H8    H     H_    0.084393 0.819695 0.105873 0.155518
H9    H     H_    0.812594 0.665907 0.837078 0.126675
H10   H     H_    0.682729 0.725844 0.805768 0.134130
H11   H     H_    0.828755 0.694606 0.723419 0.157450
H12   H     H_    0.956105 0.440465 0.586786 0.139638
H13   H     H_    0.086027 0.665669 0.250714 0.386543
H14   H     H_    0.616587 0.009531 0.426423 0.060582
H15   H     H_    0.739379 0.253348 0.989156 0.210134
H16   H     H_    0.154564 0.080414 0.707515 0.377475
H17   H     H_    0.850426 0.250975 0.673389 0.358941
H18   H     H_    0.628915 0.809532 0.231391 0.364666
H19   H     H_    0.057156 0.569689 0.901880 0.175811
H20   H     H_    0.162786 0.497368 0.803009 0.128552
O1    O     O_3   0.500000 0.500000 0.500000 -0.498908
O2    O     O_R   0.463530 0.379110 0.309170 -0.527628
O3    O     O_R   0.388210 0.611730 0.699360 -0.498986
O4    O     O_R   0.624720 0.532760 0.292120 -0.477570
O5    O     O_R   0.523540 0.476390 0.699360 -0.470264
O6    O     O_2   0.221255 0.895723 0.575865 -0.229407
O7    O     O_2   0.348555 0.934737 0.687155 -0.237846
O8    O     O_3   0.231256 0.114196 0.662027 -0.526381
O9    O     O_2   0.913719 0.344320 0.832098 -0.336019
O10   O     O_2   0.739277 0.172801 0.835489 -0.287786
O11   O     O_3   0.794629 0.315300 0.705608 -0.459135
O12   O     O_R   0.537910 0.240570 0.564270 -0.520250
O13   O     O_2   0.495995 0.752379 0.099906 -0.304196
O14   O     O_2   0.403166 0.668985 0.246234 -0.206375
O15   O     O_3   0.650797 0.730681 0.195402 -0.494434
O16   O     O_3   0.231734 0.676893 0.847910 -0.509972
O17   O     O_3   0.277937 0.530510 0.112492 -0.497202
O18   O     O_3   0.151714 0.663967 0.030517 -0.550253
O19   O     O_3   0.706085 0.538878 0.765446 -0.493977
O20   O     O_2   0.167272 0.709024 0.406205 -0.223368
O21   O     O_2   0.184583 0.503554 0.324417 -0.259715
O22   O     O_3   0.015968 0.635171 0.301743 -0.483217
O23   O     O_R   0.438950 0.782540 0.540270 -0.451393
O24   O     O_R   0.222350 0.398740 0.468260 -0.489690
O25   O     O_R   0.800790 0.578160 0.427210 -0.481087
O26   O     O_R   0.212140 0.566330 0.564260 -0.506818
O27   O     O_R   0.764730 0.456770 0.540270 -0.537674
O28   O     O_R   0.412790 0.208310 0.468260 -0.535956
O29   O     O_R   0.610350 0.768590 0.427210 -0.528757
S1    S     S_3+6 0.309984 0.990321 0.615730 0.072989
S2    S     S_3+6 0.783427 0.305816 0.814279 0.022845
S3    S     S_3+6 0.515687 0.669986 0.164881 0.056893
S4    S     S_3+6 0.092344 0.594823 0.373095 0.066097
Zn1   Zn    Zn3+2 0.580150 0.419820 0.574680 1.012365
Zn2   Zn    Zn3+2 0.401380 0.373730 0.437510 1.021775
Zn3   Zn    Zn3+2 0.631680 0.593260 0.413140 1.037302
Zn4   Zn    Zn3+2 0.386790 0.613180 0.574670 1.071970

loop_
_geom_bond_atom_site_label_1
_geom_bond_atom_site_label_2
_ccdc_geom_bond_type
O9    S2    D    
C19   H3    S    
C18   H19   S    
O3    Zn4   S    
C26   C27   A    
C1    O26   A    
O1    Zn3   S    
C20   O18   S    
C8    H14   S    
C27   S2    S    
C17   O16   S    
C11   O23   A    
C5    C17   A    
O13   S3    D    
C12   C22   A    
O8    S1    S    
C3    H1    S    
O4    Zn3   S    
O22   S4    S    
C4    O27   A    
C11   O29   A    
O23   Zn4   S    
C20   H7    S    
O12   Zn1   S    
C21   H10   S    
C8    C9    D    
C12   C17   A    
C7    H12   S    
C18   H2    S    
C2    C16   A    
C9    C10   S    
O25   Zn3   S    
C20   H6    S    
C6    S4    S    
C21   O19   S    
C10   O28   A    
C19   H4    S    
O28   Zn2   S    
O2    Zn2   S    
O15   S3    S    
C1    O24   A    
O1    Zn4   S    
C28   O19   S    
O21   S4    D    
C4    C6    S    
C19   H5    S    
O11   S2    S    
O7    S1    D    
C15   C26   A    
O29   Zn3   S    
C25   C26   A    
C12   O18   S    
O5    Zn1   S    
O1    Zn1   S    
C10   O12   A    
C22   O17   S    
C13   O4    A    
H16   O8    S    
C14   O3    A    
C21   H11   S    
C23   C24   A    
C4    O25   A    
C5    C14   S    
O10   S2    D    
O20   S4    D    
C3    C15   A    
O14   S3    D    
H17   O11   S    
C1    C7    S    
C24   C28   A    
C18   H20   S    
O27   Zn1   S    
C6    C7    D    
H18   O15   S    
O1    Zn2   S    
C15   H15   S    
C18   O16   S    
C5    C24   A    
C8    C11   S    
C19   O17   S    
C2    C25   A    
C9    S1    S    
C23   C25   A    
O26   Zn4   S    
O24   Zn2   S    
C2    S3    S    
C13   O2    A    
C20   H8    S    
C14   O5    A    
C21   H9    S    
C13   C16   S    
C27   C28   A    
C22   C23   A    
C3    C16   A    
H13   O22   S    
O6    S1    D    
