data_mof_unit_50770.cif
_audit_creation_date              2012-10-26T17:11:13-0400
_audit_creation_method            fapswitch 2.2
_symmetry_space_group_name_H-M    P1
_symmetry_Int_Tables_number       1
_space_group_crystal_system       triclinic
_cell_length_a                    27.990978
_cell_length_b                    18.691295
_cell_length_c                    16.821429
_cell_angle_alpha                 90.061313
_cell_angle_beta                  63.187136
_cell_angle_gamma                 90.003595
_cell_volume                      7854.54024087

loop_
_atom_site_label
_atom_site_type_symbol
_atom_type_description
_atom_site_fract_x
_atom_site_fract_y
_atom_site_fract_z
_atom_type_partial_charge
C1    C     C_R   0.295338 0.729392 0.328931 0.845044
C2    C     C_R   0.705311 0.271726 0.670634 0.853062
C3    C     C_R   0.704639 0.729301 0.670555 0.906365
C4    C     C_R   0.296437 0.268366 0.328828 0.835005
C5    C     C_R   0.794731 0.227799 0.329931 0.932248
C6    C     C_R   0.203179 0.767654 0.671222 0.828399
C7    C     C_R   0.206298 0.226284 0.669870 0.866197
C8    C     C_R   0.794902 0.771339 0.329288 0.860450
C9    C     C_R   0.527130 0.880213 0.590462 -0.318196
C10   C     C_R   0.464033 0.118586 0.467494 -0.324936
C11   C     C_R   0.428671 0.874960 0.565966 -0.292651
C12   C     C_R   0.575291 0.099697 0.421028 -0.325306
C13   C     C_R   0.032228 0.367294 0.564284 -0.333134
C14   C     C_R   0.920794 0.612905 0.590023 -0.324732
C15   C     C_R   0.958319 0.371906 0.479119 -0.323641
C16   C     C_R   0.034068 0.622943 0.538189 -0.325576
C17   C     C_R   0.217770 0.759763 0.954499 0.168407
C18   C     C_R   0.791247 0.254017 0.039531 0.119660
C19   C     C_R   0.771509 0.784703 0.050432 0.153936
C20   C     C_R   0.214725 0.236126 0.962325 0.149578
C21   C     C_R   0.730112 0.287196 0.948871 0.151986
C22   C     C_R   0.282119 0.730123 0.039523 0.157016
C23   C     C_R   0.279224 0.265982 0.046900 0.176394
C24   C     C_R   0.710585 0.751590 0.960018 0.122813
C25   C     C_R   0.227342 0.688840 0.970722 -0.105720
C26   C     C_R   0.814216 0.293035 0.959754 -0.197124
C27   C     C_R   0.794141 0.744978 0.971294 -0.227450
C28   C     C_R   0.224509 0.307227 0.977312 -0.110537
C29   C     C_R   0.707564 0.247693 0.028116 -0.227512
C30   C     C_R   0.272167 0.801121 0.024598 -0.109281
C31   C     C_R   0.270253 0.195135 0.029576 -0.116792
C32   C     C_R   0.687577 0.790860 0.039616 -0.195071
C33   C     C_R   0.259979 0.674120 0.011427 -0.237320
C34   C     C_R   0.783834 0.309454 0.914650 -0.114061
C35   C     C_R   0.763663 0.727480 0.927416 -0.221159
C36   C     C_R   0.256232 0.322053 0.020078 -0.218221
C37   C     C_R   0.738101 0.230135 0.071964 -0.215120
C38   C     C_R   0.240543 0.815827 0.981771 -0.242111
C39   C     C_R   0.237449 0.180300 0.989405 -0.241120
C40   C     C_R   0.717898 0.807284 0.084648 -0.109059
C41   C     C_R   0.144272 0.826746 0.942574 -0.374585
C42   C     C_R   0.861898 0.181876 0.052710 -0.323684
C43   C     C_R   0.850374 0.838655 0.059466 -0.358968
C44   C     C_R   0.141168 0.174841 0.946747 -0.354398
C45   C     C_R   0.650633 0.340298 0.940034 -0.363545
C46   C     C_R   0.356678 0.670414 0.054089 -0.357226
C47   C     C_R   0.353588 0.330760 0.058745 -0.377010
C48   C     C_R   0.639747 0.680106 0.947334 -0.340118
C49   C     C_R   0.115915 0.847730 0.895668 -0.158431
C50   C     C_R   0.879332 0.144257 0.107394 -0.137833
C51   C     C_R   0.881284 0.852275 0.104525 -0.149053
C52   C     C_R   0.119907 0.144410 0.893478 -0.152726
C53   C     C_R   0.619321 0.353012 0.895318 -0.157671
C54   C     C_R   0.384124 0.651255 0.102868 -0.156155
C55   C     C_R   0.383091 0.349267 0.104671 -0.153682
C56   C     C_R   0.620066 0.645571 0.893830 -0.151068
C57   C     C_R   0.130683 0.819454 0.810149 0.395338
C58   C     C_R   0.851449 0.152411 0.200239 0.372638
C59   C     C_R   0.866261 0.822047 0.188878 0.403245
C60   C     C_R   0.144844 0.156519 0.801370 0.381353
C61   C     C_R   0.634226 0.322332 0.811261 0.386671
C62   C     C_R   0.367824 0.679325 0.188781 0.396751
C63   C     C_R   0.368625 0.320023 0.189559 0.407941
C64   C     C_R   0.646103 0.656386 0.801585 0.364761
C65   C     C_R   0.176645 0.776227 0.769350 -0.294360
C66   C     C_R   0.818128 0.212684 0.234282 -0.211540
C67   C     C_R   0.816616 0.787100 0.233076 -0.271579
C68   C     C_R   0.185658 0.207838 0.764857 -0.266099
C69   C     C_R   0.684102 0.288093 0.766675 -0.275387
C70   C     C_R   0.318672 0.715879 0.231584 -0.268026
C71   C     C_R   0.321873 0.278404 0.231006 -0.292753
C72   C     C_R   0.681386 0.714420 0.766577 -0.221095
C73   C     C_R   0.199261 0.746601 0.822178 0.340404
C74   C     C_R   0.805467 0.256522 0.177810 0.361432
C75   C     C_R   0.786399 0.771921 0.186122 0.352394
C76   C     C_R   0.208590 0.236251 0.818294 0.350019
C77   C     C_R   0.714946 0.274088 0.812998 0.351461
C78   C     C_R   0.290736 0.734293 0.181701 0.350992
C79   C     C_R   0.297396 0.251821 0.179337 0.368683
C80   C     C_R   0.696046 0.755753 0.822520 0.367855
C81   C     C_R   0.185542 0.776036 0.906903 -0.024364
C82   C     C_R   0.821976 0.234282 0.088777 -0.006132
C83   C     C_R   0.803271 0.798567 0.099450 -0.026208
C84   C     C_R   0.186361 0.218420 0.909290 -0.018844
C85   C     C_R   0.698144 0.300816 0.899780 -0.027927
C86   C     C_R   0.311436 0.713725 0.091594 -0.027906
C87   C     C_R   0.311310 0.281698 0.094855 -0.014598
C88   C     C_R   0.679894 0.732235 0.910991 -0.009436
C89   C     C_R   0.198362 0.630994 0.519572 0.787794
C90   C     C_R   0.803002 0.368462 0.474073 0.854180
C91   C     C_R   0.798517 0.630951 0.489363 0.835280
C92   C     C_R   0.196436 0.368167 0.528459 0.853486
C93   C     C_R   0.700956 0.130617 0.512728 0.861671
C94   C     C_R   0.298764 0.868984 0.488432 0.829448
C95   C     C_R   0.301419 0.131318 0.480968 0.773403
C96   C     C_R   0.696622 0.867940 0.529584 0.873392
C97   C     C_R   0.926443 0.902870 0.066401 0.846152
C98   C     C_R   0.074410 0.095381 0.932737 0.846796
C99   C     C_R   0.073286 0.902362 0.933472 0.820487
C100  C     C_R   0.924302 0.093725 0.068387 0.858183
C101  C     C_R   0.426522 0.402665 0.066596 0.832441
C102  C     C_R   0.574989 0.594948 0.932408 0.831141
C103  C     C_R   0.573747 0.403082 0.933487 0.821221
C104  C     C_R   0.427300 0.598064 0.065870 0.839077
C105  C     C_R   0.034986 0.495169 0.549260 0.018498
C106  C     C_R   0.938964 0.493160 0.533051 0.019910
C107  C     C_R   0.550145 0.990967 0.507135 0.021353
C108  C     C_R   0.450489 0.993306 0.502562 0.013284
C109  C     C_R   0.007028 0.558272 0.554321 0.025479
C110  C     C_R   0.968578 0.429691 0.521929 0.026292
C111  C     C_R   0.955317 0.555004 0.560370 0.023725
C112  C     C_R   0.012180 0.429519 0.543929 0.032409
C113  C     C_R   0.536921 0.047503 0.466166 0.020958
C114  C     C_R   0.465457 0.931905 0.535271 0.006705
C115  C     C_R   0.485062 0.052245 0.473259 0.034075
C116  C     C_R   0.514342 0.932776 0.543125 0.031463
C117  C     C_R   0.109427 0.433520 0.557786 0.000443
C118  C     C_R   0.863891 0.560357 0.529689 -0.013727
C119  C     C_R   0.881588 0.434811 0.477929 -0.000806
C120  C     C_R   0.114884 0.563917 0.527815 -0.008265
C121  C     C_R   0.613664 0.935848 0.551041 -0.002741
C122  C     C_R   0.379357 0.064663 0.492124 -0.002046
C123  C     C_R   0.367831 0.935874 0.520030 -0.032802
C124  C     C_R   0.631719 0.056452 0.486096 -0.011641
C125  C     C_R   0.163844 0.434459 0.543704 -0.096524
C126  C     C_R   0.823811 0.563561 0.498420 -0.109632
C127  C     C_R   0.832823 0.435217 0.470019 -0.078673
C128  C     C_R   0.167112 0.564640 0.525848 -0.104834
C129  C     C_R   0.666299 0.935098 0.542574 -0.076177
C130  C     C_R   0.329567 0.065437 0.485389 -0.111121
C131  C     C_R   0.324174 0.935810 0.498101 -0.107707
C132  C     C_R   0.674754 0.062210 0.509644 -0.092837
C133  C     C_R   0.190276 0.499904 0.532092 -0.291152
C134  C     C_R   0.807262 0.500135 0.474332 -0.304746
C135  C     C_R   0.693583 0.999656 0.531164 -0.280619
C136  C     C_R   0.305555 0.000653 0.482435 -0.310241
C137  C     C_R   0.086446 0.497747 0.546029 -0.062086
C138  C     C_R   0.894385 0.495885 0.514356 -0.066426
C139  C     C_R   0.598532 0.994306 0.514533 -0.070746
C140  C     C_R   0.399859 0.997540 0.502194 -0.055867
C141  C     C_R   0.576315 0.880727 0.595140 0.502156
C142  C     C_R   0.409539 0.126713 0.492019 0.484907
C143  C     C_R   0.379429 0.878486 0.563778 0.496507
C144  C     C_R   0.621078 0.108033 0.433915 0.504141
C145  C     C_R   0.076752 0.370806 0.583460 0.510970
C146  C     C_R   0.875398 0.617678 0.575353 0.490137
C147  C     C_R   0.917963 0.375866 0.450300 0.519092
C148  C     C_R   0.089060 0.625316 0.512460 0.498893
Cu1   Cu    Cu3+1 0.209920 0.785290 0.495070 0.951302
Cu2   Cu    Cu3+1 0.790080 0.214710 0.504930 0.933648
Cu3   Cu    Cu3+1 0.790080 0.785290 0.504930 0.947148
Cu4   Cu    Cu3+1 0.209920 0.214710 0.495070 0.975604
Cu5   Cu    Cu3+1 0.709920 0.285290 0.495070 0.950782
Cu6   Cu    Cu3+1 0.290080 0.714710 0.504930 1.024170
Cu7   Cu    Cu3+1 0.290080 0.285290 0.504930 0.970757
Cu8   Cu    Cu3+1 0.709920 0.714710 0.495070 0.976095
Cu9   Cu    Cu3+1 0.495240 0.500000 0.924150 0.977050
Cu10  Cu    Cu3+1 0.504760 0.500000 0.075850 0.979974
Cu11  Cu    Cu3+1 0.995240 0.000000 0.924150 0.968470
Cu12  Cu    Cu3+1 0.004760 0.000000 0.075850 0.930824
H1    H     H_    0.230719 0.500192 0.525001 0.193687
H2    H     H_    0.773013 0.500877 0.460506 0.189390
H3    H     H_    0.730898 0.000568 0.535975 0.189484
H4    H     H_    0.270817 0.000745 0.469923 0.190644
H5    H     H_    0.497958 0.840716 0.628224 0.141579
H6    H     H_    0.487146 0.165986 0.462816 0.144594
H7    H     H_    0.435534 0.827673 0.595907 0.164121
H8    H     H_    0.569317 0.134911 0.375346 0.148563
H9    H     H_    0.009799 0.318400 0.573315 0.139325
H10   H     H_    0.929154 0.654490 0.626701 0.147339
H11   H     H_    0.985845 0.327354 0.459569 0.146368
H12   H     H_    0.014815 0.669723 0.528171 0.148307
H13   H     H_    0.233994 0.870989 0.969569 0.135329
H14   H     H_    0.720131 0.198003 0.131901 0.145536
H15   H     H_    0.699627 0.837489 0.146180 0.154541
H16   H     H_    0.231689 0.125164 0.975693 0.134474
H17   H     H_    0.802178 0.339411 0.853025 0.151940
H18   H     H_    0.266237 0.619018 0.024366 0.135815
H19   H     H_    0.262714 0.377202 0.032527 0.138993
H20   H     H_    0.781606 0.695410 0.867324 0.142138
H21   H     H_    0.208942 0.644710 0.953470 0.134880
H22   H     H_    0.855402 0.310732 0.932675 0.142539
H23   H     H_    0.835018 0.725983 0.944766 0.138033
H24   H     H_    0.207934 0.350931 0.955425 0.150200
H25   H     H_    0.666679 0.228763 0.054732 0.137963
H26   H     H_    0.288627 0.844960 0.046561 0.145547
H27   H     H_    0.289336 0.151091 0.045366 0.131810
H28   H     H_    0.646434 0.808769 0.066538 0.139459
H29   H     H_    0.134377 0.849817 0.007281 0.192940
H30   H     H_    0.877697 0.168437 0.982718 0.187361
H31   H     H_    0.861920 0.860956 0.993884 0.192141
H32   H     H_    0.124126 0.162260 0.017117 0.196816
H33   H     H_    0.639031 0.362810 0.005583 0.193228
H34   H     H_    0.369826 0.650722 0.986813 0.198460
H35   H     H_    0.363499 0.354274 0.994315 0.191929
H36   H     H_    0.625012 0.665252 0.016680 0.190159
O1    O     O_R   0.255040 0.869590 0.478480 -0.604710
O2    O     O_R   0.744960 0.130410 0.521520 -0.612565
O3    O     O_R   0.744960 0.869590 0.521520 -0.611361
O4    O     O_R   0.255040 0.130410 0.478480 -0.606880
O5    O     O_R   0.755040 0.369590 0.478480 -0.606968
O6    O     O_R   0.244960 0.630410 0.521520 -0.599877
O7    O     O_R   0.244960 0.369590 0.521520 -0.596422
O8    O     O_R   0.755040 0.630410 0.478480 -0.607380
O9    O     O_R   0.182050 0.796550 0.624440 -0.554005
O10   O     O_R   0.817950 0.203450 0.375560 -0.604460
O11   O     O_R   0.817950 0.796550 0.375560 -0.539409
O12   O     O_R   0.182050 0.203450 0.624440 -0.536079
O13   O     O_R   0.682050 0.296550 0.624440 -0.540802
O14   O     O_R   0.317950 0.703450 0.375560 -0.533718
O15   O     O_R   0.317950 0.296550 0.375560 -0.539545
O16   O     O_R   0.682050 0.703450 0.624440 -0.557975
O17   O     O_R   0.250530 0.763330 0.367210 -0.560257
O18   O     O_R   0.749470 0.236670 0.632790 -0.555007
O19   O     O_R   0.749470 0.763330 0.632790 -0.571481
O20   O     O_R   0.250530 0.236670 0.367210 -0.554735
O21   O     O_R   0.750530 0.263330 0.367210 -0.569987
O22   O     O_R   0.249470 0.736670 0.632790 -0.517640
O23   O     O_R   0.249470 0.263330 0.632790 -0.561596
O24   O     O_R   0.750530 0.736670 0.367210 -0.552137
O25   O     O_R   0.177260 0.690030 0.513710 -0.556071
O26   O     O_R   0.822740 0.309970 0.486290 -0.557987
O27   O     O_R   0.822740 0.690030 0.486290 -0.558695
O28   O     O_R   0.177260 0.309970 0.513710 -0.550518
O29   O     O_R   0.677260 0.190030 0.513710 -0.562381
O30   O     O_R   0.322740 0.809970 0.486290 -0.545975
O31   O     O_R   0.322740 0.190030 0.486290 -0.552162
O32   O     O_R   0.677260 0.809970 0.513710 -0.564807
O33   O     O_R   0.051640 0.926880 0.885090 -0.534989
O34   O     O_R   0.948360 0.073120 0.114910 -0.596809
O35   O     O_R   0.948360 0.926880 0.114910 -0.536424
O36   O     O_R   0.051640 0.073120 0.885090 -0.533501
O37   O     O_R   0.551640 0.426880 0.885090 -0.530968
O38   O     O_R   0.448360 0.573120 0.114910 -0.529302
O39   O     O_R   0.448360 0.426880 0.114910 -0.528263
O40   O     O_R   0.551640 0.573120 0.885090 -0.535745
O41   O     O_R   0.940620 0.926560 0.986760 -0.610927
O42   O     O_R   0.059380 0.073440 0.013240 -0.609398
O43   O     O_R   0.059380 0.926560 0.013240 -0.605736
O44   O     O_R   0.940620 0.073440 0.986760 -0.599545
O45   O     O_R   0.440620 0.426560 0.986760 -0.606953
O46   O     O_R   0.559380 0.573440 0.013240 -0.609768
O47   O     O_R   0.559380 0.426560 0.013240 -0.611175
O48   O     O_R   0.440620 0.573440 0.986760 -0.608016
O49   O     O_3   0.586051 0.836477 0.653284 -0.585951
C149  C     C_3   0.561322 0.768738 0.665905 -0.244934
H37   H     H_    0.518581 0.772046 0.715776 0.144560
H38   H     H_    0.565981 0.744927 0.602087 0.147567
H39   H     H_    0.580754 0.732025 0.694178 0.221005
O50   O     O_3   0.384134 0.185674 0.544780 -0.576770
C150  C     C_3   0.409166 0.251105 0.505087 -0.262857
H40   H     H_    0.427011 0.250105 0.430943 0.136118
H41   H     H_    0.439710 0.265802 0.527260 0.130993
H42   H     H_    0.378491 0.294002 0.528399 0.190548
O51   O     O_3   0.340235 0.831449 0.618082 -0.543569
C151  C     C_3   0.307587 0.866750 0.698947 -0.288067
H43   H     H_    0.276247 0.898723 0.691873 0.138895
H44   H     H_    0.330611 0.901395 0.723533 0.136312
H45   H     H_    0.287684 0.825990 0.751003 0.219776
O52   O     O_3   0.658393 0.160649 0.387035 -0.566845
C152  C     C_3   0.632926 0.226866 0.389138 -0.283566
H46   H     H_    0.595253 0.235294 0.451780 0.131571
H47   H     H_    0.625255 0.231589 0.330086 0.127615
H48   H     H_    0.659508 0.271338 0.386323 0.206286
O53   O     O_3   0.085852 0.320819 0.637120 -0.574711
C153  C     C_3   0.058852 0.255198 0.647104 -0.245115
H49   H     H_    0.015094 0.261884 0.689359 0.140761
H50   H     H_    0.067943 0.230996 0.581342 0.139202
H51   H     H_    0.073194 0.217289 0.682315 0.224660
O54   O     O_3   0.839929 0.674164 0.613819 -0.575400
C154  C     C_3   0.867715 0.740383 0.599673 -0.264787
H52   H     H_    0.904599 0.742700 0.534703 0.130355
H53   H     H_    0.877387 0.751854 0.655570 0.117664
H54   H     H_    0.842046 0.784380 0.597698 0.205410
O55   O     O_3   0.918863 0.331682 0.382607 -0.566048
C155  C     C_3   0.937237 0.261766 0.385176 -0.270496
H55   H     H_    0.920793 0.240369 0.454275 0.141198
H56   H     H_    0.981676 0.259986 0.351239 0.147031
H57   H     H_    0.923209 0.226109 0.347574 0.179352
O56   O     O_3   0.118499 0.677100 0.450466 -0.582103
C156  C     C_3   0.097290 0.746955 0.477277 -0.277909
H58   H     H_    0.078360 0.754609 0.550931 0.138553
H59   H     H_    0.068596 0.759965 0.450542 0.132094
H60   H     H_    0.130526 0.786073 0.448208 0.198351
O57   O     O_3   0.102169 0.837899 0.764064 -0.536860
C157  C     C_3   0.064745 0.783156 0.776446 -0.263826
H61   H     H_    0.084984 0.731273 0.748693 0.132222
H62   H     H_    0.041505 0.797946 0.740168 0.168701
H63   H     H_    0.035896 0.777013 0.848097 0.137291
O58   O     O_3   0.843726 0.092890 0.254783 -0.572230
C158  C     C_3   0.881143 0.089163 0.289793 -0.173447
H64   H     H_    0.902488 0.037170 0.270768 0.190400
H65   H     H_    0.911021 0.133341 0.267937 0.123164
H66   H     H_    0.859529 0.088196 0.363587 0.168371
O59   O     O_3   0.898718 0.830512 0.230533 -0.536461
C159  C     C_3   0.933857 0.771537 0.208032 -0.277860
H67   H     H_    0.911523 0.720392 0.231852 0.136979
H68   H     H_    0.959933 0.777992 0.241353 0.182503
H69   H     H_    0.960268 0.769018 0.134950 0.135705
O60   O     O_3   0.130017 0.116749 0.746482 -0.553766
C160  C     C_3   0.162706 0.055090 0.718320 -0.217844
H70   H     H_    0.157168 0.020600 0.775763 0.135154
H71   H     H_    0.205729 0.069308 0.679128 0.124837
H72   H     H_    0.150941 0.023201 0.674323 0.194054
O61   O     O_3   0.601340 0.329638 0.770235 -0.535899
C161  C     C_3   0.566705 0.270121 0.793392 -0.264768
H73   H     H_    0.589451 0.219230 0.769532 0.134435
H74   H     H_    0.540295 0.275645 0.760568 0.181961
H75   H     H_    0.540602 0.267783 0.866578 0.133112
O62   O     O_3   0.398352 0.666979 0.233118 -0.532414
C162  C     C_3   0.434968 0.723920 0.213983 -0.248208
H76   H     H_    0.459482 0.714413 0.249529 0.181468
H77   H     H_    0.462772 0.726791 0.141476 0.137290
H78   H     H_    0.413889 0.775931 0.237878 0.136553
O63   O     O_3   0.398362 0.335884 0.234401 -0.526422
C163  C     C_3   0.435086 0.279674 0.219524 -0.278351
H79   H     H_    0.414148 0.228190 0.247012 0.129195
H80   H     H_    0.459449 0.292534 0.254494 0.172074
H81   H     H_    0.463009 0.273762 0.147366 0.135367
O64   O     O_3   0.635911 0.611227 0.745651 -0.554523
C164  C     C_3   0.671676 0.552847 0.723029 -0.220100
H82   H     H_    0.665021 0.520760 0.782858 0.137316
H83   H     H_    0.714111 0.570854 0.687954 0.134222
H84   H     H_    0.664341 0.517244 0.676872 0.194279
O65   O     O_3   0.239104 0.695133 0.788109 -0.550754
C165  C     C_3   0.215859 0.629029 0.783042 0.088824
H85   H     H_    0.201191 0.630454 0.731676 0.138541
H86   H     H_    0.181577 0.614596 0.847971 0.105478
C166  C     C_3   0.257852 0.570375 0.757666 -0.748309
H87   H     H_    0.272719 0.566491 0.808583 0.235742
H88   H     H_    0.240099 0.518224 0.753472 0.201823
H89   H     H_    0.291963 0.582443 0.691910 0.253258
O66   O     O_3   0.789969 0.326865 0.204039 -0.570706
C167  C     C_3   0.739020 0.342655 0.210785 0.104961
H90   H     H_    0.711442 0.296079 0.233721 0.130606
H91   H     H_    0.743113 0.361797 0.145574 0.164575
C168  C     C_3   0.714266 0.403406 0.277190 -0.814121
H92   H     H_    0.740661 0.451151 0.255196 0.249214
H93   H     H_    0.674565 0.417575 0.281811 0.185100
H94   H     H_    0.709026 0.387247 0.344100 0.260337
O67   O     O_3   0.738650 0.734612 0.226234 -0.558471
C169  C     C_3   0.749085 0.661379 0.204400 0.101492
H95   H     H_    0.774694 0.638698 0.233161 0.136001
H96   H     H_    0.769162 0.652847 0.130955 0.135804
C170  C     C_3   0.696321 0.620901 0.242772 -0.768314
H97   H     H_    0.669801 0.643092 0.215765 0.247092
H98   H     H_    0.703733 0.563513 0.224319 0.190013
H99   H     H_    0.676118 0.625717 0.316520 0.246136
O68   O     O_3   0.252365 0.281599 0.782649 -0.568627
C171  C     C_3   0.299774 0.240952 0.756201 0.113131
H100  H     H_    0.307871 0.209551 0.695486 0.200862
H101  H     H_    0.297774 0.202793 0.808269 0.120962
C172  C     C_3   0.346348 0.291409 0.736693 -0.753375
H102  H     H_    0.340063 0.320142 0.798497 0.236135
H103  H     H_    0.384246 0.260506 0.711836 0.204884
H104  H     H_    0.349511 0.331164 0.685571 0.240028
O69   O     O_3   0.763201 0.237938 0.772065 -0.561440
C173  C     C_3   0.753943 0.164523 0.793399 0.110056
H105  H     H_    0.727318 0.141247 0.766950 0.135945
H106  H     H_    0.735553 0.155760 0.866704 0.137397
C174  C     C_3   0.807145 0.125031 0.751435 -0.780305
H107  H     H_    0.834582 0.147504 0.776438 0.245782
H108  H     H_    0.800702 0.067439 0.769020 0.191018
H109  H     H_    0.825810 0.130513 0.677808 0.241899
O70   O     O_3   0.244022 0.774043 0.219488 -0.571901
C175  C     C_3   0.199612 0.727950 0.243051 0.120207
H110  H     H_    0.190186 0.702771 0.307726 0.215738
H111  H     H_    0.206342 0.683795 0.194707 0.120199
C176  C     C_3   0.151867 0.771172 0.249862 -0.777059
H112  H     H_    0.159998 0.792224 0.183246 0.243168
H113  H     H_    0.115773 0.736586 0.274577 0.208210
H114  H     H_    0.144160 0.816861 0.296268 0.237244
O71   O     O_3   0.256824 0.201363 0.213310 -0.550090
C177  C     C_3   0.279274 0.133886 0.215795 0.081574
H115  H     H_    0.293079 0.132251 0.268186 0.144302
H116  H     H_    0.314132 0.120492 0.151067 0.099665
C178  C     C_3   0.236938 0.076248 0.236774 -0.766067
H117  H     H_    0.222877 0.075389 0.184697 0.238103
H118  H     H_    0.254063 0.023097 0.238881 0.199429
H119  H     H_    0.202375 0.087020 0.302510 0.248541
O72   O     O_3   0.711709 0.826244 0.798020 -0.566419
C179  C     C_3   0.763533 0.840303 0.788279 0.105077
H120  H     H_    0.790652 0.793508 0.761678 0.141950
H121  H     H_    0.761329 0.857055 0.853146 0.164384
C180  C     C_3   0.787150 0.902851 0.724540 -0.820830
H122  H     H_    0.761988 0.951218 0.752133 0.248024
H123  H     H_    0.828306 0.914178 0.715187 0.182729
H124  H     H_    0.788702 0.890381 0.658912 0.259995

loop_
_geom_bond_atom_site_label_1
_geom_bond_atom_site_label_2
_ccdc_geom_bond_type
C51   C97   S    
C96   O3    A    
C102  O40   A    
O69   C173  S    
C76   O68   S    
C158  H64   S    
C14   H10   S    
C79   C87   A    
C168  H92   S    
C61   C69   A    
O66   C167  S    
C156  H60   S    
Cu9   Cu10  S    
C47   H35   S    
C13   C112  A    
C19   C83   S    
C3    O19   A    
C154  H52   S    
C60   O60   S    
C151  H45   S    
C30   C38   A    
C173  C174  S    
C107  C113  A    
C178  H119  S    
C7    C68   S    
C5    O21   A    
C25   H21   S    
C165  H85   S    
C176  H114  S    
Cu8   O32   S    
Cu3   O19   S    
O49   C149  S    
C11   H7    S    
C36   H19   S    
C41   C49   A    
C172  H103  S    
C16   C109  A    
Cu5   O5    S    
C174  H109  S    
C146  O54   S    
Cu2   O18   S    
C39   H16   S    
C57   C65   A    
C169  H95   S    
C20   C28   A    
C27   C35   A    
C160  H70   S    
C21   C29   A    
C163  H79   S    
C23   C31   A    
C24   C32   A    
C42   H30   S    
C165  C166  S    
C161  H73   S    
Cu8   O24   S    
C170  H99   S    
C92   O7    A    
C98   O36   A    
C26   H22   S    
C159  H67   S    
C105  C112  A    
C63   C71   A    
C120  C148  A    
O72   C179  S    
Cu12  O34   S    
C168  H94   S    
O60   C160  S    
C152  H47   S    
C136  H4    S    
C160  H72   S    
Cu5   O29   S    
C157  H63   S    
C9    C116  A    
C135  H3    S    
C169  C170  S    
C61   O61   S    
C97   O41   A    
C50   C100  S    
C1    C70   S    
C41   H29   S    
C17   C25   A    
C3    C72   S    
C80   C88   A    
O70   C175  S    
C44   H32   S    
C157  H62   S    
C167  C168  S    
C9    H5    S    
C18   C82   S    
C63   O63   S    
C171  H100  S    
Cu1   O17   S    
C93   O29   A    
C126  C134  A    
Cu6   O14   S    
C164  H82   S    
C31   H27   S    
C34   H17   S    
Cu3   O11   S    
C118  C138  A    
C11   C143  A    
C4    C71   S    
C147  O55   S    
C96   C129  S    
C180  H123  S    
C73   O65   S    
Cu5   O13   S    
Cu4   O4    S    
O68   C171  S    
C4    O20   A    
C43   C83   A    
C124  C139  A    
C69   C77   A    
C127  C134  A    
C13   C145  A    
C43   C51   A    
C92   C125  S    
C71   C79   A    
C12   C144  A    
Cu4   O20   S    
Cu7   O31   S    
C163  H81   S    
Cu11  O33   S    
C108  C115  A    
C163  H80   S    
C158  H65   S    
C109  C111  A    
C89   O25   A    
C152  H46   S    
C66   C74   A    
C49   C57   A    
C124  C132  A    
Cu10  O46   S    
C52   C98   S    
C177  H115  S    
C52   C60   A    
C59   C67   A    
C129  C135  A    
C53   C61   A    
C159  H69   S    
C6    O9    A    
C151  H44   S    
C95   C130  S    
C141  O49   S    
Cu11  O44   S    
C56   C64   A    
C102  O46   A    
C2    C69   S    
Cu5   O21   S    
C91   O8    A    
C44   C52   A    
C104  O38   A    
C89   O6    A    
C5    O10   A    
C77   C85   A    
C143  O51   S    
C166  H88   S    
Cu7   O7    S    
C79   O71   S    
C99   O33   A    
C46   H34   S    
C27   H23   S    
C106  C111  A    
O56   C156  S    
Cu2   O10   S    
C131  C136  A    
C57   O57   S    
C167  H90   S    
C150  H42   S    
C130  C136  A    
C177  C178  S    
C47   C87   A    
C8    O11   A    
C49   C99   S    
C77   O69   S    
C10   H6    S    
C164  H84   S    
C173  H106  S    
C175  C176  S    
C60   C68   A    
C153  H50   S    
C42   C50   A    
C23   C36   A    
C162  H77   S    
C67   C75   A    
C80   O72   S    
C154  H53   S    
C105  C109  A    
C149  H37   S    
C2    O13   A    
C22   C30   A    
C119  C138  A    
Cu4   O12   S    
O52   C152  S    
C153  H51   S    
C152  H48   S    
C114  C116  A    
C156  H59   S    
C94   O1    A    
C121  C139  A    
C20   C84   S    
C28   H24   S    
C56   C102  S    
C72   C80   A    
Cu10  O38   S    
C29   H25   S    
C100  O44   A    
C17   C38   A    
C107  C139  A    
C110  C112  A    
C107  C116  A    
C178  H118  S    
C19   C40   A    
C105  C137  A    
C155  H55   S    
C8    C67   S    
C165  H86   S    
C113  C115  A    
C117  C125  A    
C25   C33   A    
C176  H113  S    
C149  H39   S    
C119  C127  A    
C154  H54   S    
C179  H120  S    
Cu12  O43   S    
O55   C155  S    
C18   C26   A    
C76   C84   A    
C172  H102  S    
C150  H40   S    
C174  H108  S    
C4    O15   A    
Cu6   O30   S    
C54   C104  S    
C64   O64   S    
Cu9   O48   S    
C176  H112  S    
C169  H96   S    
Cu8   O16   S    
C119  C147  A    
C3    O16   A    
C117  C145  A    
O58   C158  S    
C10   C142  A    
C108  C114  A    
C175  H110  S    
C168  H93   S    
C37   H14   S    
C6    O22   A    
C6    C65   S    
C95   O4    A    
Cu2   Cu5   S    
C161  H74   S    
C90   C127  S    
C48   C88   A    
Cu7   O23   S    
C170  H98   S    
C99   O43   A    
C159  H68   S    
C1    O14   A    
O63   C163  S    
C103  O37   A    
Cu2   O26   S    
C15   C110  A    
C74   C82   A    
Cu6   O6    S    
C160  H71   S    
C45   H33   S    
C21   C85   S    
C161  H75   S    
C50   C58   A    
C121  C141  A    
Cu1   O9    S    
O59   C159  S    
C20   C39   A    
C5    C66   S    
C21   C34   A    
C54   C62   A    
C179  C180  S    
O50   C150  S    
C148  O56   S    
Cu1   Cu6   S    
O57   C157  S    
Cu11  Cu12  S    
C155  H57   S    
C92   O28   A    
C41   C81   A    
C46   C54   A    
C15   H11   S    
Cu3   Cu8   S    
C171  H101  S    
C24   C88   S    
C73   C81   A    
Cu4   O28   S    
C1    O17   A    
C62   O62   S    
C91   O27   A    
C96   O32   A    
C172  H104  S    
C180  H122  S    
C55   C101  S    
O62   C162  S    
C123  C131  A    
C121  C129  A    
C44   C84   A    
C120  C128  A    
Cu9   O40   S    
C98   O42   A    
C94   C131  S    
C171  C172  S    
Cu11  O36   S    
C100  O34   A    
C15   C147  A    
C75   C83   A    
C53   C103  S    
C17   C81   S    
Cu10  O47   S    
C22   C86   S    
O65   C165  S    
C177  H116  S    
C106  C138  A    
C94   O30   A    
C122  C140  A    
C58   O58   S    
C59   O59   S    
C28   C36   A    
O61   C161  S    
C29   C37   A    
O54   C154  S    
C120  C137  A    
O71   C177  S    
Cu2   O2    S    
C89   C128  S    
C162  H76   S    
C142  O50   S    
C91   C126  S    
C70   C78   A    
C166  H87   S    
C42   C82   A    
O67   C169  S    
Cu12  O42   S    
C30   H26   S    
C18   C37   A    
C90   O26   A    
C157  H61   S    
C167  H91   S    
C150  H41   S    
C65   C73   A    
C11   C114  A    
Cu9   O45   S    
C26   C34   A    
Cu3   O27   S    
C164  H83   S    
C101  O39   A    
C103  O47   A    
Cu4   Cu7   S    
Cu6   O22   S    
C101  O45   A    
O53   C153  S    
C180  H124  S    
C7    O23   A    
C78   C86   A    
C32   C40   A    
C43   H31   S    
C23   C87   S    
C48   H36   S    
C62   C70   A    
Cu1   O25   S    
C58   C66   A    
C78   O70   S    
C14   C111  A    
C149  H38   S    
C24   C35   A    
C32   H28   S    
Cu3   O3    S    
C118  C146  A    
C158  H66   S    
C95   O31   A    
C108  C140  A    
C9    C141  A    
C38   H13   S    
C156  H58   S    
C104  O48   A    
C123  C140  A    
C134  H2    S    
C55   C63   A    
C45   C85   A    
C8    O24   A    
Cu10  O39   S    
C16   H12   S    
C151  H43   S    
Cu11  O41   S    
Cu12  O35   S    
C68   C76   A    
C178  H117  S    
C155  H56   S    
C166  H89   S    
C51   C59   A    
C122  C142  A    
O51   C151  S    
C93   C132  S    
C19   C27   A    
C47   C55   A    
C12   C113  A    
C106  C110  A    
C125  C133  A    
C35   H20   S    
C48   C56   A    
C22   C33   A    
C179  H121  S    
C33   H18   S    
C75   O67   S    
C117  C137  A    
C7    O12   A    
C74   O66   S    
C133  H1    S    
C12   H8    S    
C40   H15   S    
C145  O53   S    
C2    O18   A    
C174  H107  S    
C14   C146  A    
C16   C148  A    
O64   C164  S    
C90   O5    A    
Cu7   O15   S    
C93   O2    A    
C128  C133  A    
Cu9   O37   S    
C97   O35   A    
C132  C135  A    
C13   H9    S    
C31   C39   A    
C64   C72   A    
C173  H105  S    
C144  O52   S    
C175  H111  S    
C153  H49   S    
C45   C53   A    
C162  H78   S    
C123  C143  A    
C124  C144  A    
C118  C126  A    
C170  H97   S    
C122  C130  A    
Cu8   O8    S    
C10   C115  A    
Cu1   O1    S    
C46   C86   A    
