data_mof_unit_26349.cif
_audit_creation_date              2012-12-10T21:26:02-0500
_audit_creation_method            fapswitch 2.2
_symmetry_space_group_name_H-M    P1
_symmetry_Int_Tables_number       1
_space_group_crystal_system       triclinic
_cell_length_a                    8.590585
_cell_length_b                    16.38924
_cell_length_c                    16.39937
_cell_angle_alpha                 87.830541
_cell_angle_beta                  96.742948
_cell_angle_gamma                 99.773451
_cell_volume                      2259.29080375

loop_
_atom_site_label
_atom_site_type_symbol
_atom_type_description
_atom_site_fract_x
_atom_site_fract_y
_atom_site_fract_z
_atom_type_partial_charge
C1    C     C_R   0.491915 0.488804 0.653958 0.872900
C2    C     C_R   0.525935 0.512401 0.349249 0.871016
C3    C     C_R   0.416342 0.755568 0.453966 0.151176
C4    C     C_R   0.551681 0.239569 0.555306 0.137450
C5    C     C_R   0.410398 0.842467 0.458097 -0.048012
C6    C     C_R   0.512490 0.151452 0.562476 -0.005783
C7    C     C_R   0.532766 0.894393 0.508179 0.194416
C8    C     C_R   0.453632 0.106048 0.491104 0.155332
C9    C     C_R   0.649823 0.855428 0.555339 0.105608
C10   C     C_R   0.386081 0.149134 0.423617 0.091412
C11   C     C_R   0.628863 0.766821 0.563580 0.071630
C12   C     C_R   0.387970 0.236162 0.427410 0.126204
C13   C     C_R   0.800086 0.520720 0.504177 0.872376
C14   C     C_R   0.199846 0.479444 0.496509 0.965430
C15   C     C_2   0.966605 0.527433 0.519273 -0.054856
C16   C     C_2   0.034091 0.474668 0.479154 -0.022261
C17   C     C_R   0.481114 0.483768 0.743610 -0.153115
C18   C     C_R   0.599267 0.522543 0.271030 -0.172047
C19   C     C_R   0.481578 0.557948 0.784208 -0.288206
C20   C     C_R   0.635007 0.451738 0.236108 -0.287574
C21   C     C_R   0.502527 0.561975 0.869538 0.109787
C22   C     C_R   0.686769 0.455317 0.158453 0.128847
C23   C     C_R   0.525033 0.489623 0.914982 0.240614
C24   C     C_R   0.695932 0.530702 0.114031 0.222393
C25   C     C_R   0.503671 0.413878 0.876084 -0.247925
C26   C     C_R   0.689745 0.603599 0.153501 -0.230945
C27   C     C_R   0.473305 0.408760 0.790172 0.213586
C28   C     C_R   0.651003 0.601155 0.234606 0.196821
H1    H     H_    0.626597 0.393869 0.270006 0.182264
H2    H     H_    0.463254 0.613265 0.749480 0.168542
H3    H     H_    0.509069 0.359127 0.914343 0.167015
H4    H     H_    0.710609 0.661298 0.119156 0.156788
N1    N     N_2   0.551803 0.489420 0.000977 -0.192238
N2    N     N_2   0.680855 0.531784 0.027722 -0.198599
N3    N     N_R   0.519180 0.718290 0.509780 -0.144171
N4    N     N_R   0.480820 0.281710 0.490220 -0.154459
N5    N     N_2   0.553714 0.984646 0.508564 -0.141583
N6    N     N_2   0.431125 0.016782 0.490992 -0.185607
O1    O     O_R   0.493140 0.422050 0.612640 -0.635423
O2    O     O_R   0.506860 0.577950 0.387360 -0.625915
O3    O     O_R   0.505450 0.562230 0.618920 -0.621322
O4    O     O_R   0.494550 0.437770 0.381080 -0.619681
O5    O     O_R   0.723530 0.446300 0.497600 -0.627558
O6    O     O_R   0.276470 0.553700 0.502400 -0.630135
O7    O     O_R   0.735850 0.586490 0.503880 -0.635941
O8    O     O_R   0.264150 0.413510 0.496120 -0.639433
Zn1   Zn    Zn3+2 0.491780 0.406400 0.495810 0.896307
Zn2   Zn    Zn3+2 0.508220 0.593600 0.504190 0.897521
N7    N     N_2   0.043856 0.566785 0.593311 -0.302620
H5    H     H_    0.982494 0.549100 0.643288 0.205890
C29   C     C_3   0.088910 0.655919 0.587739 -0.763458
H6    H     H_    0.182363 0.673214 0.546648 0.265561
H7    H     H_    0.137586 0.680506 0.649360 0.226610
H8    H     H_    0.986063 0.685867 0.564051 0.236317
N8    N     N_2   0.960557 0.436445 0.403930 -0.319159
H9    H     H_    0.879136 0.466558 0.369065 0.227093
C30   C     C_3   0.918161 0.347173 0.405366 -0.777274
H10   H     H_    0.797160 0.328352 0.424192 0.263469
H11   H     H_    0.003781 0.318218 0.448064 0.244232
H12   H     H_    0.918002 0.323788 0.342730 0.220857
C31   C     C_3   0.734923 0.380046 0.123914 -0.406037
C32   C     C_3   0.592648 0.311417 0.101742 -0.331896
C33   C     C_3   0.640087 0.242928 0.054230 -0.910767
H13   H     H_    0.684671 0.268047 0.995906 0.259107
H14   H     H_    0.734185 0.214731 0.091757 0.265338
H15   H     H_    0.535030 0.194060 0.039385 0.251341
H16   H     H_    0.546849 0.283654 0.158507 0.215756
H17   H     H_    0.495472 0.337011 0.064121 0.233072
H18   H     H_    0.796864 0.398108 0.068486 0.217412
H19   H     H_    0.822059 0.355706 0.169985 0.182871
C34   C     C_3   0.497763 0.643047 0.910083 -0.419120
C35   C     C_3   0.346969 0.638141 0.953047 -0.312871
C36   C     C_3   0.342167 0.719755 0.993679 -0.900919
H20   H     H_    0.445329 0.734418 0.041371 0.259958
H21   H     H_    0.344442 0.770880 0.947157 0.261117
H22   H     H_    0.231097 0.714597 0.023339 0.248522
H23   H     H_    0.240408 0.623651 0.907242 0.220181
H24   H     H_    0.341772 0.588347 0.000978 0.238258
H25   H     H_    0.605530 0.660057 0.954311 0.213590
H26   H     H_    0.499668 0.694224 0.863465 0.188387
N9    N     N_2   0.426878 0.330316 0.751048 -0.301353
H27   H     H_    0.345270 0.330943 0.699919 0.250028
C37   C     C_3   0.392336 0.256160 0.801071 -0.875575
H28   H     H_    0.346981 0.202839 0.760875 0.253024
H29   H     H_    0.298806 0.262264 0.840797 0.252924
H30   H     H_    0.502150 0.243326 0.838538 0.251435
N10   N     N_2   0.673146 0.675080 0.281283 -0.293379
H31   H     H_    0.740002 0.672250 0.337505 0.252090
C38   C     C_3   0.697454 0.755327 0.240245 -0.878458
H32   H     H_    0.692558 0.804235 0.284405 0.252802
H33   H     H_    0.601711 0.758727 0.189080 0.250225
H34   H     H_    0.815421 0.767309 0.216821 0.246207
C39   C     C_3   0.678716 0.285193 0.617182 -0.364845
C40   C     C_3   0.836268 0.252066 0.619723 -0.410221
C41   C     C_3   0.970611 0.306502 0.671371 -0.872557
H35   H     H_    0.995242 0.369284 0.642911 0.260546
H36   H     H_    0.939379 0.311652 0.734599 0.263671
H37   H     H_    0.079219 0.277885 0.674944 0.252159
H38   H     H_    0.824335 0.188376 0.646373 0.222331
H39   H     H_    0.869136 0.249487 0.556569 0.231457
H40   H     H_    0.703496 0.351011 0.601593 0.269489
H41   H     H_    0.639319 0.281156 0.679164 0.212289
C42   C     C_3   0.295013 0.704096 0.391391 -0.364158
C43   C     C_3   0.323391 0.720322 0.300497 -0.363966
C44   C     C_3   0.167614 0.707630 0.243321 -0.936511
H42   H     H_    0.099951 0.644515 0.252560 0.271849
H43   H     H_    0.093064 0.754019 0.254697 0.260977
H44   H     H_    0.193803 0.714626 0.178483 0.260056
H45   H     H_    0.391768 0.782869 0.289924 0.225980
H46   H     H_    0.392431 0.674772 0.281934 0.277348
H47   H     H_    0.290243 0.638537 0.399353 0.257311
H48   H     H_    0.173513 0.712797 0.401580 0.193695
C45   C     C_3   0.518509 0.106793 0.645596 -0.401537
C46   C     C_3   0.353138 0.062179 0.664039 -0.325409
C47   C     C_3   0.360959 0.019899 0.748653 -0.918125
H49   H     H_    0.438085 0.971683 0.751058 0.261893
H50   H     H_    0.408970 0.065606 0.797355 0.265357
H51   H     H_    0.239765 0.989812 0.760755 0.250139
H52   H     H_    0.269199 0.107101 0.660694 0.212951
H53   H     H_    0.303328 0.013754 0.618428 0.237171
H54   H     H_    0.599195 0.061686 0.646652 0.218274
H55   H     H_    0.566373 0.149363 0.696588 0.205597
C48   C     C_3   0.271030 0.876285 0.409476 -0.364891
C49   C     C_3   0.127560 0.868975 0.459010 -0.338751
C50   C     C_3   0.970578 0.853036 0.402858 -0.925240
H56   H     H_    0.963715 0.903333 0.356179 0.268109
H57   H     H_    0.959857 0.793376 0.371307 0.266598
H58   H     H_    0.868052 0.848706 0.438569 0.259638
H59   H     H_    0.128029 0.816883 0.504239 0.213872
H60   H     H_    0.134469 0.926198 0.494183 0.222275
H61   H     H_    0.304640 0.938532 0.384163 0.208520
H62   H     H_    0.232633 0.845286 0.350913 0.219453
N11   N     N_2   0.799616 0.904956 0.581209 -0.294058
H63   H     H_    0.900416 0.881278 0.573979 0.221637
C51   C     C_3   0.812500 0.961235 0.648329 -0.814743
H64   H     H_    0.703962 0.949725 0.680579 0.238585
H65   H     H_    0.834961 0.025830 0.624312 0.247819
H66   H     H_    0.915541 0.952728 0.693594 0.223557
N12   N     N_2   0.316867 0.105114 0.351495 -0.311350
H67   H     H_    0.385835 0.065177 0.332860 0.224802
C52   C     C_3   0.149894 0.069878 0.349133 -0.818773
H68   H     H_    0.118994 0.021455 0.301699 0.231138
H69   H     H_    0.074181 0.117246 0.331325 0.242872
H70   H     H_    0.121877 0.042479 0.409609 0.260668
C53   C     C_3   0.703295 0.722459 0.637676 -0.340070
C54   C     C_3   0.828723 0.769454 0.701188 -0.424120
C55   C     C_3   0.875728 0.711849 0.771963 -0.910346
H71   H     H_    0.771831 0.687582 0.805277 0.267754
H72   H     H_    0.922322 0.659026 0.748731 0.266963
H73   H     H_    0.969845 0.746572 0.815831 0.257431
H74   H     H_    0.938519 0.794556 0.673156 0.233298
H75   H     H_    0.778923 0.819050 0.727924 0.253421
H76   H     H_    0.602428 0.697595 0.671936 0.210213
H77   H     H_    0.752525 0.670150 0.617250 0.250517
C56   C     C_3   0.275066 0.275791 0.366109 -0.314030
C57   C     C_3   0.312425 0.274954 0.276954 -0.352986
C58   C     C_3   0.235693 0.338776 0.223093 -0.889429
H78   H     H_    0.104457 0.325119 0.222502 0.252731
H79   H     H_    0.279559 0.402276 0.246046 0.274297
H80   H     H_    0.265210 0.336305 0.159224 0.247821
H81   H     H_    0.442347 0.287070 0.276183 0.211860
H82   H     H_    0.266981 0.213629 0.249394 0.245814
H83   H     H_    0.152074 0.244027 0.370504 0.160807
H84   H     H_    0.272278 0.339213 0.382462 0.269668

loop_
_geom_bond_atom_site_label_1
_geom_bond_atom_site_label_2
_ccdc_geom_bond_type
C31   H19   S    
C25   H3    S    
C51   H66   S    
C43   H46   S    
N8    H9    S    
C4    N4    A    
C26   H4    S    
C58   H78   S    
C48   H62   S    
C2    C18   S    
C47   H50   S    
C36   H20   S    
C41   H35   S    
N10   H31   S    
C33   H14   S    
N9    H27   S    
C41   H37   S    
C48   C49   S    
C14   O8    A    
C44   H43   S    
N5    N6    D    
C32   H16   S    
C21   C34   S    
O1    Zn1   S    
C57   C58   S    
C55   H72   S    
C24   C26   A    
C45   C46   S    
C52   H69   S    
C43   H45   S    
C30   H11   S    
C3    C42   S    
C15   C16   D    
C23   N1    S    
N4    Zn1   S    
C42   H47   S    
O2    Zn2   S    
C43   C44   S    
C35   H24   S    
C45   H55   S    
C55   H71   S    
N7    C29   S    
C50   H58   S    
C40   H39   S    
C12   N4    A    
C18   C20   A    
C46   H52   S    
C53   H76   S    
C51   H64   S    
C33   H15   S    
C57   H82   S    
C58   H79   S    
C51   H65   S    
C36   H21   S    
C31   C32   S    
C8    N6    S    
C28   N10   S    
N3    Zn2   S    
C34   H25   S    
C34   H26   S    
N9    C37   S    
C53   C54   S    
C20   H1    S    
C44   H44   S    
C56   C57   S    
C29   H6    S    
C17   C27   A    
C27   N9    S    
C55   H73   S    
C18   C28   A    
C4    C6    A    
C52   H70   S    
C39   H40   S    
C5    C7    A    
C11   C53   S    
C30   H12   S    
C6    C8    A    
C56   H83   S    
C24   N2    S    
C33   H13   S    
C42   H48   S    
C29   H7    S    
C6    C45   S    
N8    C30   S    
C35   H23   S    
C54   H74   S    
C37   H28   S    
C3    N3    A    
C47   H51   S    
C37   H30   S    
C32   C33   S    
N1    N2    D    
C7    N5    S    
C49   H60   S    
C39   C40   S    
C38   H34   S    
C50   H57   S    
C9    C11   A    
C10   C12   A    
C54   H75   S    
C53   H77   S    
C1    O3    A    
C37   H29   S    
C20   C22   A    
C57   H81   S    
C58   H80   S    
C21   C23   A    
C50   H56   S    
C36   H22   S    
C14   C16   S    
C38   H33   S    
C10   N12   S    
C12   C56   S    
C13   O5    A    
C14   O6    A    
C54   C55   S    
O7    Zn2   S    
C31   H18   S    
C7    C9    A    
O8    Zn1   S    
C48   H61   S    
C26   C28   A    
C35   C36   S    
C3    C5    A    
C39   H41   S    
N12   H67   S    
C41   H36   S    
C46   C47   S    
C56   H84   S    
C25   C27   A    
C44   H42   S    
C5    C48   S    
C1    C17   S    
C32   H17   S    
C29   H8    S    
C13   C15   S    
C16   N8    S    
C34   C35   S    
O6    Zn2   S    
C52   H68   S    
C22   C31   S    
C13   O7    A    
N12   C52   S    
C30   H10   S    
N11   H63   S    
C40   H38   S    
C2    O4    A    
C11   N3    A    
C17   C19   A    
O3    Zn2   S    
C49   H59   S    
C22   C24   A    
O4    Zn1   S    
C15   N7    S    
C40   C41   S    
C1    O1    A    
C4    C39   S    
C2    O2    A    
C23   C25   A    
C45   H54   S    
C8    C10   A    
N7    H5    S    
C42   C43   S    
N11   C51   S    
N10   C38   S    
C38   H32   S    
C19   H2    S    
O5    Zn1   S    
C46   H53   S    
C47   H49   S    
C49   C50   S    
C19   C21   A    
C9    N11   S    
