data_mof_unit_60023.cif
_audit_creation_date              2012-12-10T19:07:48-0500
_audit_creation_method            fapswitch 2.2
_symmetry_space_group_name_H-M    P1
_symmetry_Int_Tables_number       1
_space_group_crystal_system       triclinic
_cell_length_a                    25.588461
_cell_length_b                    34.512812
_cell_length_c                    21.486455
_cell_angle_alpha                 90.004008
_cell_angle_beta                  126.43501
_cell_angle_gamma                 89.990434
_cell_volume                      15266.2398325

loop_
_atom_site_label
_atom_site_type_symbol
_atom_type_description
_atom_site_fract_x
_atom_site_fract_y
_atom_site_fract_z
_atom_type_partial_charge
C1    C     C_R   0.141506 0.250013 0.999809 0.797014
C2    C     C_3   0.732479 0.240321 0.930555 0.047514
C3    C     C_R   0.057214 0.917841 0.024364 0.129333
C4    C     C_R   0.548904 0.581992 0.066765 0.129471
C5    C     C_R   0.441962 0.417917 0.972913 0.135047
C6    C     C_R   0.450915 0.582220 0.932225 0.128149
C7    C     C_R   0.557434 0.417739 0.025583 0.122895
C8    C     C_R   0.999939 0.102608 0.999907 -0.058736
C9    C     C_R   0.999962 0.897369 0.999947 -0.058589
C10   C     C_R   0.499867 0.602599 0.999715 -0.059617
C11   C     C_R   0.499732 0.397368 0.999621 -0.045645
C12   C     C_R   0.999894 0.021288 0.999749 0.056942
C13   C     C_3   0.732416 0.759866 0.930356 0.047888
C14   C     C_R   0.999885 0.978675 0.999719 0.057088
C15   C     C_R   0.500001 0.521275 0.998893 0.056740
C16   C     C_R   0.499829 0.478658 0.998697 0.060482
C17   C     C_R   0.999983 0.144993 0.999978 0.781925
C18   C     C_R   0.999989 0.854999 0.999990 0.782662
C19   C     C_R   0.499982 0.644989 0.999964 0.781263
C20   C     C_R   0.499674 0.355000 0.999723 0.799390
C21   C     C_R   0.999996 0.355127 0.999995 0.779689
C22   C     C_R   0.000003 0.644874 0.000001 0.779689
C23   C     C_R   0.499997 0.855125 0.999993 0.779627
C24   C     C_3   0.267405 0.239910 0.069274 0.048974
C25   C     C_R   0.500004 0.144872 0.999998 0.779564
C26   C     C_R   0.052167 0.458170 0.063090 -0.181073
C27   C     C_R   0.942175 0.541841 0.969888 -0.180907
C28   C     C_R   0.947818 0.458175 0.936853 -0.181225
C29   C     C_R   0.057822 0.541829 0.030056 -0.181010
C30   C     C_R   0.557810 0.958156 0.029984 -0.181006
C31   C     C_R   0.447818 0.041833 0.936858 -0.181201
C32   C     C_R   0.442180 0.958172 0.969915 -0.180936
C33   C     C_R   0.552195 0.041819 0.063065 -0.180972
C34   C     C_R   0.052379 0.417875 0.062835 -0.189045
C35   C     C_3   0.767592 0.259887 0.069681 0.048605
C36   C     C_R   0.942099 0.582137 0.969387 -0.190253
C37   C     C_R   0.947603 0.417878 0.937125 -0.189996
C38   C     C_R   0.057907 0.582125 0.030586 -0.188952
C39   C     C_R   0.557889 0.917861 0.030510 -0.189020
C40   C     C_R   0.447609 0.082129 0.937135 -0.189914
C41   C     C_R   0.442097 0.917876 0.969411 -0.190395
C42   C     C_R   0.552410 0.082115 0.062815 -0.188869
C43   C     C_R   0.999990 0.397498 0.999984 0.002373
C44   C     C_R   0.000005 0.602507 0.999996 0.003269
C45   C     C_R   0.499993 0.897492 0.999970 0.003387
C46   C     C_3   0.232472 0.740335 0.930545 0.048414
C47   C     C_R   0.500009 0.102501 0.999984 0.002431
C48   C     C_R   0.999994 0.478675 0.999968 0.113624
C49   C     C_R   0.999996 0.521333 0.999966 0.114115
C50   C     C_R   0.499997 0.978666 0.999948 0.114155
C51   C     C_R   0.500004 0.021324 0.999956 0.113589
C52   C     C_3   0.776777 0.285841 0.018504 -0.233720
C53   C     C_3   0.223296 0.714366 0.981705 -0.232881
C54   C     C_3   0.223613 0.285901 0.982311 -0.231658
C55   C     C_3   0.776747 0.714363 0.018353 -0.233016
C56   C     C_3   0.276793 0.785836 0.018532 -0.234845
C57   C     C_3   0.232562 0.260227 0.930604 0.046909
C58   C     C_3   0.723313 0.214363 0.981735 -0.231681
C59   C     C_3   0.723199 0.785829 0.981502 -0.234658
C60   C     C_3   0.276341 0.214228 0.017569 -0.231018
C61   C     C_3   0.105020 0.102272 0.139108 -0.410203
C62   C     C_3   0.092753 0.103850 0.200420 -0.815739
C63   C     C_3   0.879488 0.897586 0.946702 -0.408728
C64   C     C_3   0.869667 0.895609 0.010075 -0.821610
C65   C     C_3   0.894839 0.102424 0.860717 -0.405980
C66   C     C_3   0.907181 0.104278 0.799484 -0.827414
C67   C     C_3   0.120429 0.897591 0.053152 -0.407388
C68   C     C_3   0.767544 0.740333 0.069500 0.050166
C69   C     C_3   0.130311 0.895572 0.989830 -0.822839
C70   C     C_3   0.603521 0.602068 0.140010 -0.409448
C71   C     C_3   0.589684 0.603468 0.199951 -0.815238
C72   C     C_3   0.378551 0.397578 0.943136 -0.428570
C73   C     C_3   0.346531 0.381229 0.861997 -0.850323
C74   C     C_3   0.396164 0.602540 0.859414 -0.405425
C75   C     C_3   0.409684 0.604420 0.799215 -0.825476
C76   C     C_3   0.620972 0.397373 0.056254 -0.410803
C77   C     C_3   0.632590 0.395075 0.994429 -0.818314
C78   C     C_1   0.286073 0.770688 0.146366 0.137543
C79   C     C_3   0.198628 0.750209 0.999739 -0.001758
C80   C     C_1   0.713913 0.229508 0.853836 0.142054
C81   C     C_1   0.713910 0.770710 0.853680 0.141546
C82   C     C_1   0.285786 0.228707 0.145739 0.137552
C83   C     C_1   0.786056 0.270723 0.146345 0.137960
C84   C     C_1   0.213899 0.729539 0.853815 0.141583
C85   C     C_1   0.214296 0.271547 0.854243 0.142063
C86   C     C_1   0.786091 0.729563 0.146231 0.137631
C87   C     C_3   0.801461 0.249980 0.000497 -0.001724
C88   C     C_3   0.801392 0.750208 0.000307 -0.001832
C89   C     C_R   0.858453 0.750046 0.000096 0.797155
C90   C     C_3   0.198539 0.249948 0.999514 -0.002590
C91   C     C_3   0.698627 0.250209 0.999738 -0.002466
C92   C     C_3   0.301460 0.749979 0.000493 -0.001090
C93   C     C_3   0.301415 0.250172 0.000359 -0.003572
C94   C     C_3   0.698551 0.749969 0.999536 -0.001041
C95   C     C_3   0.206633 0.776050 0.947401 -0.184893
C96   C     C_3   0.793458 0.224167 0.052872 -0.184452
C97   C     C_3   0.793364 0.776048 0.052637 -0.186561
C98   C     C_3   0.206307 0.224417 0.946612 -0.182838
C99   C     C_3   0.706623 0.276039 0.947379 -0.184400
C100  C     C_R   0.858491 0.250019 0.000188 0.796546
C101  C     C_3   0.293446 0.724155 0.052847 -0.184944
C102  C     C_3   0.293651 0.275714 0.053246 -0.186050
C103  C     C_3   0.706591 0.724147 0.947198 -0.183211
C104  C     C_R   0.250812 0.265229 0.416155 -0.178134
C105  C     C_R   0.771321 0.718252 0.583850 -0.177129
C106  C     C_R   0.771025 0.281343 0.583720 -0.176348
C107  C     C_R   0.250416 0.734301 0.416253 -0.177552
C108  C     C_R   0.751026 0.764948 0.416108 -0.177841
C109  C     C_R   0.271438 0.218264 0.583846 -0.177039
C110  C     C_R   0.270954 0.781318 0.583718 -0.176365
C111  C     C_R   0.141554 0.750047 0.999920 0.797594
C112  C     C_R   0.750385 0.234252 0.416258 -0.177871
C113  C     C_R   0.210351 0.265494 0.335641 -0.179892
C114  C     C_R   0.811122 0.718492 0.664358 -0.180630
C115  C     C_R   0.811038 0.281294 0.664223 -0.182464
C116  C     C_R   0.210116 0.734213 0.335730 -0.178355
C117  C     C_R   0.710517 0.765259 0.335597 -0.178508
C118  C     C_R   0.311277 0.218472 0.664353 -0.181874
C119  C     C_R   0.310965 0.781268 0.664221 -0.181364
C120  C     C_R   0.710085 0.234165 0.335734 -0.179797
C121  C     C_R   0.147645 0.249807 0.295009 -0.001977
C122  C     C_R   0.641512 0.750013 0.999819 0.796054
C123  C     C_R   0.852611 0.749936 0.704980 0.001970
C124  C     C_R   0.852309 0.249793 0.705007 0.004323
C125  C     C_R   0.147426 0.749953 0.295034 -0.002249
C126  C     C_R   0.647686 0.749767 0.294995 -0.001978
C127  C     C_R   0.352532 0.249997 0.704996 0.002923
C128  C     C_R   0.352309 0.749793 0.705004 0.003654
C129  C     C_R   0.647425 0.249948 0.295037 -0.002219
C130  C     C_R   0.125796 0.234010 0.335909 -0.190181
C131  C     C_R   0.853439 0.781279 0.664065 -0.185933
C132  C     C_R   0.852622 0.218154 0.664281 -0.187869
C133  C     C_R   0.358468 0.250029 0.000127 0.798899
C134  C     C_R   0.125385 0.765545 0.335883 -0.187444
C135  C     C_R   0.625760 0.734111 0.335913 -0.190144
C136  C     C_R   0.353059 0.281467 0.664112 -0.184763
C137  C     C_R   0.352696 0.718182 0.664275 -0.187934
C138  C     C_R   0.625412 0.265582 0.335888 -0.187545
C139  C     C_R   0.165892 0.234259 0.416425 -0.177353
C140  C     C_R   0.812926 0.781316 0.583541 -0.176569
C141  C     C_R   0.811927 0.217949 0.583749 -0.177682
C142  C     C_R   0.165335 0.765141 0.416400 -0.176809
C143  C     C_R   0.665902 0.734324 0.416428 -0.177305
C144  C     C_R   0.358490 0.750019 0.000187 0.795828
C145  C     C_R   0.312511 0.281531 0.583585 -0.176450
C146  C     C_R   0.312001 0.717977 0.583743 -0.177357
C147  C     C_R   0.665363 0.265179 0.416405 -0.177113
C148  C     C_R   0.228860 0.249776 0.457331 0.111222
C149  C     C_R   0.771646 0.749733 0.542653 0.113507
C150  C     C_R   0.770941 0.249623 0.542701 0.114075
C151  C     C_R   0.228328 0.749647 0.457361 0.110622
C152  C     C_R   0.728994 0.749652 0.457310 0.111067
C153  C     C_R   0.271491 0.249856 0.542674 0.113433
C154  C     C_R   0.270941 0.749625 0.542697 0.113914
C155  C     C_R   0.641553 0.250047 0.999919 0.798424
C156  C     C_R   0.728327 0.249643 0.457365 0.110709
C157  C     C_R   0.048884 0.041557 0.065564 -0.205993
C158  C     C_R   0.943480 0.958378 0.975693 -0.206448
C159  C     C_R   0.950921 0.041617 0.934001 -0.206647
C160  C     C_R   0.056320 0.958374 0.023833 -0.206442
C161  C     C_R   0.548203 0.541462 0.065391 -0.208375
C162  C     C_R   0.442903 0.458464 0.972874 -0.214296
C163  C     C_R   0.451750 0.541687 0.932785 -0.204511
C164  C     C_R   0.556644 0.458267 0.024754 -0.206053
C165  C     C_R   0.894814 0.249944 0.789724 0.787266
C166  C     C_3   0.267598 0.759871 0.069688 0.049595
C167  C     C_R   0.105141 0.750008 0.210290 0.787533
C168  C     C_R   0.105180 0.249947 0.210279 0.787840
C169  C     C_R   0.894875 0.750001 0.789717 0.786790
C170  C     C_R   0.394814 0.749944 0.789722 0.787946
C171  C     C_R   0.605140 0.250007 0.210292 0.786671
C172  C     C_R   0.605184 0.749942 0.210275 0.788337
C173  C     C_R   0.394854 0.250019 0.789723 0.786424
C174  C     C_R   0.049657 0.082089 0.066608 0.128757
C175  C     C_R   0.942663 0.917843 0.975389 0.129028
C176  C     C_R   0.950199 0.082155 0.933112 0.129439
H1    H     H_    0.092450 0.473249 0.113100 0.131461
H2    H     H_    0.899920 0.974222 0.957425 0.143161
H3    H     H_    0.299257 0.367829 0.841052 0.252255
H4    H     H_    0.386526 0.374108 0.983235 0.223701
H5    H     H_    0.343799 0.418092 0.940569 0.203563
H6    H     H_    0.455477 0.620450 0.822512 0.276728
H7    H     H_    0.413737 0.574756 0.782399 0.249840
H8    H     H_    0.369224 0.619725 0.746846 0.239142
H9    H     H_    0.349878 0.586689 0.834605 0.198694
H10   H     H_    0.388107 0.632328 0.871592 0.197377
H11   H     H_    0.678966 0.379659 0.018035 0.240870
H12   H     H_    0.592567 0.378957 0.943100 0.277456
H13   H     H_    0.913204 0.025795 0.882940 0.143283
H14   H     H_    0.635722 0.424625 0.976382 0.248975
H15   H     H_    0.661818 0.413356 0.107214 0.199833
H16   H     H_    0.622306 0.367693 0.077057 0.196268
H17   H     H_    0.099860 0.974215 0.042042 0.143238
H18   H     H_    0.585314 0.525535 0.116695 0.143214
H19   H     H_    0.399109 0.474492 0.952943 0.137960
H20   H     H_    0.414618 0.525934 0.881218 0.145671
H21   H     H_    0.600573 0.474031 0.044276 0.143402
H22   H     H_    0.093071 0.402681 0.112257 0.157285
H23   H     H_    0.896948 0.597338 0.946078 0.155995
H24   H     H_    0.906911 0.402686 0.887708 0.155659
H25   H     H_    0.897148 0.526766 0.947616 0.130743
H26   H     H_    0.103058 0.597316 0.053902 0.156051
H27   H     H_    0.603032 0.902658 0.053786 0.155957
H28   H     H_    0.406907 0.097328 0.887730 0.155639
H29   H     H_    0.396953 0.902685 0.946142 0.155825
H30   H     H_    0.593113 0.097302 0.112227 0.157297
H31   H     H_    0.799778 0.314934 0.034173 0.144379
H32   H     H_    0.200248 0.685286 0.966006 0.143740
H33   H     H_    0.200883 0.315069 0.967245 0.145038
H34   H     H_    0.799817 0.685285 0.034065 0.143905
H35   H     H_    0.299808 0.814926 0.034222 0.142721
H36   H     H_    0.907536 0.473257 0.886839 0.130788
H37   H     H_    0.700279 0.185280 0.966059 0.145416
H38   H     H_    0.700163 0.814917 0.965802 0.142610
H39   H     H_    0.299081 0.185062 0.032639 0.145649
H40   H     H_    0.170230 0.797046 0.903854 0.156287
H41   H     H_    0.829872 0.203205 0.096504 0.155997
H42   H     H_    0.829752 0.797047 0.096180 0.155183
H43   H     H_    0.169685 0.203695 0.902519 0.157275
H44   H     H_    0.670210 0.297025 0.903813 0.156702
H45   H     H_    0.329852 0.703183 0.096461 0.155581
H46   H     H_    0.330277 0.296442 0.097317 0.155127
H47   H     H_    0.102846 0.526743 0.052320 0.130603
H48   H     H_    0.670204 0.703172 0.903589 0.156852
H49   H     H_    0.299528 0.276708 0.446111 0.133266
H50   H     H_    0.740909 0.693203 0.553923 0.130517
H51   H     H_    0.740821 0.306448 0.553641 0.130673
H52   H     H_    0.299143 0.722819 0.446274 0.133496
H53   H     H_    0.799833 0.776274 0.446039 0.133393
H54   H     H_    0.241226 0.193151 0.553898 0.130179
H55   H     H_    0.240694 0.806404 0.553642 0.131073
H56   H     H_    0.799090 0.222734 0.446281 0.133420
H57   H     H_    0.228440 0.277504 0.305204 0.162421
H58   H     H_    0.602828 0.973230 0.052211 0.130673
H59   H     H_    0.810096 0.693831 0.694796 0.157203
H60   H     H_    0.810381 0.306152 0.694533 0.155204
H61   H     H_    0.228328 0.722318 0.305341 0.162751
H62   H     H_    0.728664 0.777147 0.305136 0.162802
H63   H     H_    0.310483 0.193721 0.694778 0.155277
H64   H     H_    0.310247 0.806105 0.694529 0.156962
H65   H     H_    0.728277 0.222235 0.305348 0.162526
H66   H     H_    0.077376 0.221989 0.305689 0.157468
H67   H     H_    0.884715 0.806007 0.694282 0.156223
H68   H     H_    0.883655 0.193350 0.694660 0.154845
H69   H     H_    0.407523 0.026759 0.886855 0.130784
H70   H     H_    0.076945 0.777550 0.305615 0.157507
H71   H     H_    0.577244 0.722239 0.305706 0.157381
H72   H     H_    0.384130 0.306266 0.694360 0.156465
H73   H     H_    0.383792 0.693400 0.694651 0.154815
H74   H     H_    0.576995 0.277620 0.305621 0.157648
H75   H     H_    0.147245 0.222775 0.446588 0.133204
H76   H     H_    0.813345 0.806294 0.553357 0.130989
H77   H     H_    0.812010 0.192803 0.553675 0.130417
H78   H     H_    0.146597 0.776533 0.446531 0.133246
H79   H     H_    0.647191 0.722967 0.446607 0.133228
H80   H     H_    0.397164 0.973259 0.947682 0.130690
H81   H     H_    0.312707 0.306591 0.553415 0.130908
H82   H     H_    0.312143 0.692851 0.553670 0.130668
H83   H     H_    0.646647 0.276607 0.446538 0.133194
H84   H     H_    0.047103 0.119827 0.178138 0.276718
H85   H     H_    0.089085 0.074101 0.217238 0.247815
H86   H     H_    0.133615 0.119064 0.252574 0.244341
H87   H     H_    0.151167 0.086465 0.162863 0.199125
H88   H     H_    0.112692 0.132140 0.126861 0.198013
H89   H     H_    0.823520 0.880269 0.987892 0.240757
H90   H     H_    0.910249 0.879564 0.061031 0.277569
H91   H     H_    0.592488 0.026732 0.113059 0.131463
H92   H     H_    0.867095 0.925250 0.028252 0.248562
H93   H     H_    0.838106 0.913506 0.896162 0.198801
H94   H     H_    0.877592 0.867826 0.925858 0.196978
H95   H     H_    0.952776 0.120344 0.821915 0.276641
H96   H     H_    0.910980 0.074605 0.782475 0.250100
H97   H     H_    0.866291 0.119536 0.747413 0.239677
H98   H     H_    0.848711 0.086560 0.836754 0.198970
H99   H     H_    0.887078 0.132220 0.873197 0.196907
H100  H     H_    0.176484 0.880235 0.012089 0.241121
H101  H     H_    0.089765 0.879503 0.938892 0.277351
H102  H     H_    0.086579 0.025691 0.116573 0.143552
H103  H     H_    0.132868 0.925201 0.971602 0.248584
H104  H     H_    0.161771 0.913535 0.103676 0.199088
H105  H     H_    0.122349 0.867842 0.074051 0.197522
H106  H     H_    0.543819 0.619417 0.176685 0.276658
H107  H     H_    0.585582 0.573669 0.216182 0.247347
H108  H     H_    0.630014 0.618620 0.252668 0.244220
H109  H     H_    0.649842 0.586263 0.164748 0.198662
H110  H     H_    0.611642 0.631972 0.128428 0.198339
H111  H     H_    0.337605 0.404796 0.821523 0.260941
H112  H     H_    0.377440 0.358698 0.861986 0.255098
N1    N     N_1   0.300561 0.779210 0.206811 -0.214705
N2    N     N_1   0.699343 0.220990 0.793354 -0.207591
N3    N     N_1   0.699391 0.779259 0.793235 -0.207590
N4    N     N_1   0.300203 0.219886 0.206019 -0.215069
N5    N     N_1   0.800534 0.279261 0.206779 -0.214594
N6    N     N_1   0.199321 0.721033 0.793324 -0.207601
N7    N     N_1   0.199987 0.280483 0.794064 -0.208637
N8    N     N_1   0.800639 0.721086 0.206722 -0.215213
O1    O     O_3   0.000000 0.250010 0.000000 -0.476694
O2    O     O_R   0.359980 0.227250 0.954550 -0.635597
O3    O     O_R   0.359980 0.772750 0.954550 -0.637742
O4    O     O_R   0.640020 0.227250 0.045450 -0.638144
O5    O     O_R   0.944020 0.227270 0.826530 -0.646013
O6    O     O_R   0.055980 0.772730 0.173470 -0.646919
O7    O     O_R   0.055980 0.227270 0.173470 -0.646426
O8    O     O_R   0.944020 0.772730 0.826530 -0.647270
O9    O     O_R   0.444020 0.727270 0.826530 -0.646142
O10   O     O_R   0.555980 0.272730 0.173470 -0.646149
O11   O     O_R   0.555980 0.727270 0.173470 -0.646650
O12   O     O_3   0.000000 0.749990 0.000000 -0.476715
O13   O     O_R   0.444020 0.272730 0.826530 -0.647886
O14   O     O_R   0.008020 0.163280 0.954510 -0.639488
O15   O     O_R   0.991980 0.836720 0.045490 -0.638363
O16   O     O_R   0.991980 0.163280 0.045490 -0.638819
O17   O     O_R   0.008020 0.836720 0.954510 -0.640398
O18   O     O_R   0.508020 0.663280 0.954510 -0.639384
O19   O     O_R   0.491980 0.336720 0.045490 -0.650432
O20   O     O_R   0.491980 0.663280 0.045490 -0.638842
O21   O     O_R   0.508020 0.336720 0.954510 -0.638887
O22   O     O_R   0.053480 0.336740 0.045470 -0.645759
O23   O     O_3   0.500000 0.750010 0.000000 -0.476679
O24   O     O_R   0.946520 0.663260 0.954530 -0.647331
O25   O     O_R   0.946520 0.336740 0.954530 -0.647273
O26   O     O_R   0.053480 0.663260 0.045470 -0.645403
O27   O     O_R   0.553480 0.836740 0.045470 -0.645351
O28   O     O_R   0.446520 0.163260 0.954530 -0.647429
O29   O     O_R   0.446520 0.836740 0.954530 -0.647369
O30   O     O_R   0.553480 0.163260 0.045470 -0.645764
O31   O     O_R   0.882520 0.272750 0.826550 -0.642541
O32   O     O_R   0.117480 0.727250 0.173450 -0.641586
O33   O     O_R   0.117480 0.272750 0.173450 -0.643414
O34   O     O_3   0.500000 0.249990 0.000000 -0.476254
O35   O     O_R   0.882520 0.727250 0.826550 -0.640882
O36   O     O_R   0.382520 0.772750 0.826550 -0.641091
O37   O     O_R   0.617480 0.227250 0.173450 -0.643381
O38   O     O_R   0.617480 0.772750 0.173450 -0.641602
O39   O     O_R   0.382520 0.227250 0.826550 -0.641884
O40   O     O_R   0.094550 0.227270 0.954490 -0.647658
O41   O     O_R   0.905450 0.772730 0.045510 -0.648689
O42   O     O_R   0.905450 0.227270 0.045510 -0.649500
O43   O     O_R   0.094550 0.772730 0.954490 -0.646861
O44   O     O_R   0.594550 0.727270 0.954490 -0.647462
O45   O     O_R   0.140020 0.272750 0.045450 -0.638044
O46   O     O_R   0.405450 0.272730 0.045510 -0.650682
O47   O     O_R   0.405450 0.727270 0.045510 -0.649265
O48   O     O_R   0.594550 0.272730 0.954490 -0.647424
O49   O     O_R   0.859980 0.727250 0.954550 -0.637925
O50   O     O_R   0.859980 0.272750 0.954550 -0.636059
O51   O     O_R   0.140020 0.727250 0.045450 -0.639818
O52   O     O_R   0.640020 0.772750 0.045450 -0.639641
Zn1   Zn    Zn3+2 0.923580 0.282490 0.935040 0.971563
Zn2   Zn    Zn3+2 0.988550 0.782480 0.064990 0.960820
Zn3   Zn    Zn3+2 0.988550 0.217520 0.064990 0.960282
Zn4   Zn    Zn3+2 0.011450 0.782480 0.935010 0.960683
Zn5   Zn    Zn3+2 0.511450 0.717520 0.935010 0.961106
Zn6   Zn    Zn3+2 0.488550 0.282480 0.064990 0.960924
Zn7   Zn    Zn3+2 0.488550 0.717520 0.064990 0.959989
Zn8   Zn    Zn3+2 0.511450 0.282480 0.935010 0.961093
Zn9   Zn    Zn3+2 0.076420 0.717510 0.064960 0.971346
Zn10  Zn    Zn3+2 0.076420 0.282490 0.064960 0.970838
Zn11  Zn    Zn3+2 0.923580 0.717510 0.935040 0.971466
Zn12  Zn    Zn3+2 0.423580 0.782490 0.935040 0.971482
Zn13  Zn    Zn3+2 0.576420 0.217510 0.064960 0.971102
Zn14  Zn    Zn3+2 0.576420 0.782490 0.064960 0.971197
Zn15  Zn    Zn3+2 0.423580 0.217510 0.935040 0.972570
Zn16  Zn    Zn3+2 0.011450 0.217520 0.935010 0.961393

loop_
_geom_bond_atom_site_label_1
_geom_bond_atom_site_label_2
_ccdc_geom_bond_type
C118  H63   S    
O36   Zn12  S    
O1    Zn16  S    
C171  O37   A    
C18   O17   A    
C14   C158  A    
O44   Zn5   S    
C15   C163  A    
C169  O8    A    
C60   C98   S    
C64   H89   S    
C106  H51   S    
C119  H64   S    
C170  O9    A    
C69   H103  S    
C55   C88   S    
C131  C140  A    
C54   H33   S    
C115  C124  A    
O28   Zn15  S    
C12   C157  A    
C13   C103  S    
O2    Zn15  S    
C88   C97   S    
C60   C93   S    
C115  H60   S    
C109  C118  A    
O47   Zn7   S    
O13   Zn8   S    
C11   C20   S    
C145  H81   S    
C137  C146  A    
C127  C136  A    
C112  C120  A    
C1    O40   A    
C25   O30   A    
C16   C162  A    
C155  O4    A    
C73   H111  S    
C142  C151  A    
C109  H54   S    
C146  C154  A    
C173  O13   A    
C46   C84   S    
C94   C122  S    
C36   C44   A    
C169  O35   A    
C148  C153  S    
C71   H108  S    
C32   C41   A    
C164  H21   S    
C102  H46   S    
C121  C168  S    
C89   O41   A    
C94   C103  S    
C71   H106  S    
C15   C161  A    
C72   C73   S    
C24   C90   S    
O27   Zn14  S    
C8    C17   S    
C106  C115  A    
O37   Zn13  S    
C158  H2    S    
C80   N2    T    
C163  H20   S    
C46   C53   S    
C57   C85   S    
C120  H65   S    
C12   C159  A    
C1    O45   A    
C101  C166  S    
O46   Zn6   S    
C126  C172  S    
C46   C92   S    
C6    C163  A    
C38   H26   S    
C41   C45   A    
C97   H42   S    
C66   H97   S    
C134  H70   S    
C55   H34   S    
C56   C95   S    
C106  C150  A    
C36   H23   S    
C121  C130  A    
C67   H105  S    
O20   Zn7   S    
C172  O38   A    
C29   C49   A    
C35   C96   S    
C16   C164  A    
C3    C9    A    
C33   C42   A    
C100  O42   A    
C54   C90   S    
C5    C72   S    
C93   C133  S    
C8    C174  A    
C57   C93   S    
O32   Zn9   S    
O43   Zn4   S    
C74   H10   S    
C124  C132  A    
C23   O29   A    
C21   O25   A    
C132  H68   S    
C40   H28   S    
C29   C38   A    
C133  O2    A    
O12   Zn2   S    
C19   O20   A    
C157  C174  A    
C39   C45   A    
C74   H9    S    
C107  C151  A    
C135  C143  A    
C143  H79   S    
C87   C96   S    
C95   H40   S    
O18   Zn5   S    
C75   H8    S    
C62   H85   S    
C141  C150  A    
O11   Zn7   S    
C63   H94   S    
C139  C148  A    
C22   O24   A    
C120  C129  A    
C135  H71   S    
C61   H87   S    
C56   H35   S    
O34   Zn8   S    
C116  H61   S    
C68   C94   S    
C144  O47   A    
C76   H16   S    
C34   H22   S    
C70   H109  S    
C2    C87   S    
C123  C169  S    
C99   H44   S    
C114  C123  A    
C2    C99   S    
C133  O46   A    
C159  C176  A    
C146  H82   S    
C118  C127  A    
C72   H4    S    
O50   Zn1   S    
C87   C100  S    
C117  C126  A    
O29   Zn12  S    
C132  C141  A    
C22   O26   A    
O7    Zn3   S    
O8    Zn4   S    
C27   H25   S    
C108  C117  A    
C61   C174  S    
C31   C51   A    
O23   Zn12  S    
C138  H74   S    
C110  C119  A    
C8    C176  A    
C7    C76   S    
O31   Zn1   S    
C142  H78   S    
C116  C125  A    
C71   H107  S    
C63   H93   S    
C173  O39   A    
C64   H90   S    
C119  C128  A    
C130  H66   S    
C73   H112  S    
C28   C37   A    
C59   C97   S    
C30   C39   A    
C9    C175  A    
C19   O18   A    
C147  H83   S    
C61   C62   S    
C107  C116  A    
C110  H55   S    
O9    Zn5   S    
C124  C165  S    
C158  C175  A    
C113  C121  A    
C112  C156  A    
C77   H12   S    
C91   C99   S    
C75   H6    S    
C140  C149  A    
C27   C49   A    
C160  H17   S    
C54   C57   S    
C125  C134  A    
O16   Zn3   S    
C171  O10   A    
C1    C90   S    
C23   C45   S    
C39   H27   S    
C65   H99   S    
C52   H31   S    
C104  C148  A    
C170  O36   A    
C140  H76   S    
C4    C70   S    
C55   C68   S    
C104  H49   S    
O34   Zn6   S    
C113  H57   S    
C111  O51   A    
C125  C167  S    
C72   H5    S    
C5    C11   A    
C26   H1    S    
C84   N6    T    
C130  C139  A    
C96   H41   S    
C85   N7    T    
C13   C81   S    
C53   H32   S    
C86   N8    T    
C31   C40   A    
C136  H72   S    
C37   H24   S    
O23   Zn7   S    
C66   H95   S    
O34   Zn15  S    
C108  C152  A    
C28   C48   A    
C53   C101  S    
C70   C71   S    
C59   C94   S    
C109  C153  A    
C25   C47   S    
O5    Zn16  S    
C26   C48   A    
O25   Zn1   S    
C30   C50   A    
C98   H43   S    
O49   Zn11  S    
O35   Zn11  S    
O26   Zn9   S    
C122  O52   A    
O51   Zn9   S    
C28   H36   S    
C6    C74   S    
C3    C67   S    
O12   Zn9   S    
C78   C166  S    
C34   C43   A    
C168  O33   A    
C64   H92   S    
C35   C83   S    
O1    Zn10  S    
C17   O14   A    
C79   C95   S    
C37   C43   A    
C38   C44   A    
C103  H48   S    
C134  C142  A    
O6    Zn2   S    
C10   C19   S    
C32   H80   S    
C50   C51   S    
C30   H58   S    
C147  C156  A    
C81   N3    T    
C114  H59   S    
C82   N4    T    
C92   C101  S    
C128  C137  A    
C13   C59   S    
O52   Zn14  S    
C48   C49   S    
C117  H62   S    
C65   C176  S    
C78   N1    T    
C101  H45   S    
C29   H47   S    
O42   Zn3   S    
C123  C131  A    
C54   C102  S    
O30   Zn13  S    
C93   C102  S    
C6    C10   A    
C137  H73   S    
C2    C58   S    
C60   H39   S    
C27   C36   A    
C33   C51   A    
C7    C164  A    
O40   Zn16  S    
C112  H56   S    
O14   Zn16  S    
O38   Zn14  S    
C141  H77   S    
C5    C162  A    
O23   Zn5   S    
O34   Zn13  S    
O41   Zn2   S    
C144  O3    A    
C57   C98   S    
C172  O11   A    
C104  C113  A    
C42   H30   S    
C24   C102  S    
C4    C161  A    
C58   H37   S    
C56   C166  S    
C35   C52   S    
O22   Zn10  S    
C127  C173  S    
C40   C47   A    
O12   Zn11  S    
C128  C170  S    
C68   C86   S    
C159  H13   S    
C75   H7    S    
C62   H86   S    
C59   H38   S    
O4    Zn13  S    
C20   O19   A    
C7    C11   A    
C17   O16   A    
C21   O22   A    
C18   O15   A    
C33   H91   S    
C53   C79   S    
C155  O48   A    
C89   O49   A    
C15   C16   S    
C55   C103  S    
C151  C154  S    
C24   C82   S    
C68   C97   S    
C58   C96   S    
C157  H102  S    
O3    Zn12  S    
C26   C34   A    
O1    Zn1   S    
C129  C138  A    
C70   H110  S    
O17   Zn4   S    
C168  O7    A    
O12   Zn4   S    
C136  C145  A    
C100  O50   A    
C145  C153  A    
C88   C89   S    
C21   C43   S    
C58   C91   S    
O15   Zn2   S    
C108  H53   S    
C22   C44   S    
O10   Zn6   S    
C74   C75   S    
C46   C95   S    
C105  C114  A    
C66   H96   S    
C76   C77   S    
C149  C152  S    
C63   C64   S    
C14   C160  A    
C67   C69   S    
C162  H19   S    
C167  O32   A    
C91   C155  S    
C110  C154  A    
C9    C18   S    
C77   H14   S    
C138  C147  A    
C24   C60   S    
C69   H101  S    
C107  H52   S    
O39   Zn15  S    
C105  H50   S    
O23   Zn14  S    
C32   C50   A    
O48   Zn8   S    
O33   Zn10  S    
C12   C14   S    
C3    C160  A    
C77   H11   S    
C111  O43   A    
O21   Zn8   S    
C4    C10   A    
C62   H84   S    
C23   O27   A    
C20   O21   A    
C69   H100  S    
C143  C152  A    
C65   H98   S    
C129  C171  S    
C52   C87   S    
C139  H75   S    
C61   H88   S    
C126  C135  A    
C63   C175  S    
C105  C149  A    
C52   C99   S    
C79   C111  S    
C76   H15   S    
C131  H67   S    
C83   N5    T    
O1    Zn3   S    
C25   O28   A    
C167  O6    A    
C13   C88   S    
C161  H18   S    
C42   C47   A    
C165  O31   A    
C79   C166  S    
C41   H29   S    
C92   C144  S    
C122  O44   A    
C2    C80   S    
O24   Zn11  S    
C165  O5    A    
C73   H3    S    
C56   C92   S    
C65   C66   S    
O19   Zn6   S    
C31   H69   S    
C150  C156  S    
C67   H104  S    
C90   C98   S    
O45   Zn10  S    
C35   C91   S    
