data_mof_unit_41509.cif
_audit_creation_date              2013-03-05T16:07:19-0500
_audit_creation_method            fapswitch 2.2
_symmetry_space_group_name_H-M    P1
_symmetry_Int_Tables_number       1
_space_group_crystal_system       triclinic
_cell_length_a                    6.948805
_cell_length_b                    14.014222
_cell_length_c                    20.017334
_cell_angle_alpha                 103.143231
_cell_angle_beta                  90.483023
_cell_angle_gamma                 89.803289
_cell_volume                      1898.19685421

loop_
_atom_site_label
_atom_site_type_symbol
_atom_site_description
_atom_site_fract_x
_atom_site_fract_y
_atom_site_fract_z
_atom_type_partial_charge
O1    O     O_R   0.506770 0.599700 0.449550 -0.571218
O2    O     O_R   0.179980 0.595740 0.587960 -0.612147
O3    O     O_R   0.004580 0.400300 0.550450 -0.598777
C1    C     C_R   0.348101 0.618986 0.614165 0.961890
O4    O     O_R   0.177380 0.611700 0.452380 -0.614904
O5    O     O_R   0.001970 0.416370 0.413900 -0.588035
C2    C     C_R   0.345951 0.637388 0.435225 1.044975
O6    O     O_R   0.509390 0.583630 0.586100 -0.586433
O7    O     O_3   0.337530 0.435890 0.487530 -0.267296
V1    V     V_3+5 0.064660 0.511890 0.502310 1.240951
O8    O     O_R   0.671950 0.404260 0.412040 -0.587720
C3    C     C_R   0.840749 0.381926 0.385196 0.993073
O9    O     O_R   0.674540 0.388300 0.547620 -0.582780
C4    C     C_R   0.844950 0.370277 0.570371 1.002705
V2    V     V_3+5 0.564030 0.488110 0.497690 1.266933
O10   O     O_3   0.841030 0.564110 0.512470 -0.275085
C5    C     C_R   0.098609 0.173684 0.631939 0.312558
C6    C     C_R   0.874420 0.299056 0.613278 -0.352239
C7    C     C_R   0.742078 0.304215 0.935504 0.309668
C8    C     C_R   0.732324 0.388273 0.907788 0.329701
C9    C     C_R   0.806387 0.385350 0.841982 0.269532
C10   C     C_R   0.894061 0.298924 0.803484 -0.115554
C11   C     C_R   0.931907 0.221780 0.837514 -0.205937
C12   C     C_R   0.937250 0.280692 0.731011 0.139089
C13   C     C_R   0.070185 0.203970 0.703700 -0.301638
C14   C     C_R   0.147474 0.150874 0.749574 0.455837
C15   C     C_R   0.019146 0.136810 0.799197 0.245285
C16   C     C_R   0.843076 0.328517 0.684573 -0.182531
C17   C     C_R   0.996178 0.218618 0.587166 0.482953
C18   C     C_R   0.851743 0.223228 0.902690 -0.247356
H1    H     H_    0.743702 0.387976 0.702552 0.196602
C19   C     C_R   0.726632 0.262171 0.199374 0.061509
C20   C     C_R   0.868099 0.189234 0.182167 -0.180111
C21   C     C_R   0.016571 0.189430 0.230903 -0.044407
H2    H     H_    0.133630 0.137538 0.219277 0.111327
C22   C     C_R   0.008775 0.252157 0.296938 -0.027294
H3    H     H_    0.120924 0.247396 0.333898 0.140309
C23   C     C_R   0.851509 0.316002 0.316202 -0.196577
C24   C     C_R   0.716785 0.321560 0.265086 0.113712
C25   C     C_3   0.501961 0.322610 0.265083 0.038369
C26   C     C_3   0.512189 0.261835 0.190856 0.044028
H4    H     H_    0.440717 0.282374 0.301792 0.079864
H5    H     H_    0.446732 0.188304 0.182949 0.082362
C27   C     C_R   0.486191 0.670965 0.730663 0.165974
C28   C     C_R   0.350753 0.686018 0.682460 -0.471686
C29   C     C_R   0.215892 0.763610 0.702185 0.538568
C30   C     C_R   0.220579 0.821713 0.769256 -0.061393
H6    H     H_    0.132691 0.886105 0.780996 0.219205
C31   C     C_R   0.354847 0.806883 0.818373 -0.283552
C32   C     C_R   0.490431 0.730362 0.797678 0.068512
C33   C     C_3   0.705233 0.740226 0.792235 0.038403
C34   C     C_3   0.696963 0.675472 0.720473 0.233894
H7    H     H_    0.790032 0.711122 0.830598 0.180236
H8    H     H_    0.735699 0.710934 0.677849 0.154399
C35   C     C_R   0.541398 0.864492 0.390507 0.375725
C36   C     C_R   0.362315 0.719120 0.400488 -0.514464
C37   C     C_R   0.313306 0.692789 0.071802 0.293505
C38   C     C_R   0.293312 0.619797 0.109615 0.427459
C39   C     C_R   0.323079 0.643919 0.180284 -0.061279
C40   C     C_R   0.358682 0.741085 0.216803 -0.021206
C41   C     C_R   0.386961 0.814264 0.179099 -0.103244
C42   C     C_R   0.376879 0.765545 0.289809 0.008211
C43   C     C_R   0.474126 0.852873 0.321913 -0.339946
C44   C     C_R   0.495869 0.927332 0.285245 0.303465
C45   C     C_R   0.441401 0.909893 0.215245 0.375665
C46   C     C_R   0.298283 0.706602 0.331778 0.534808
C47   C     C_R   0.483705 0.798723 0.429747 0.407805
C48   C     C_R   0.356858 0.789429 0.106424 -0.272394
H9    H     H_    0.322059 0.583867 0.205662 0.264588
O11   O     O_R   0.203450 0.916320 0.913910 -0.589136
O12   O     O_R   0.535520 0.888300 0.047620 -0.600722
O13   O     O_R   0.710860 0.083650 0.086100 -0.583874
C49   C     C_R   0.367075 0.862984 0.064784 1.195775
O14   O     O_R   0.532860 0.904250 0.912040 -0.559064
O15   O     O_R   0.708190 0.099710 0.949550 -0.545504
C50   C     C_R   0.364182 0.879150 0.885857 1.032687
O16   O     O_R   0.206120 0.900260 0.050460 -0.611457
O17   O     O_3   0.375280 0.064080 0.012470 -0.257893
V3    V     V_3+5 0.648180 0.988110 0.997690 1.321074
O18   O     O_R   0.038220 0.111740 0.952370 -0.615606
C51   C     C_R   0.868107 0.138455 0.935761 1.131707
O19   O     O_R   0.040880 0.095790 0.087940 -0.589045
C52   C     C_R   0.872441 0.118399 0.114791 0.988822
V4    V     V_3+5 0.148800 0.011950 0.002300 1.290211
O20   O     O_3   0.871820 0.935920 0.987530 -0.263041
O21   O     O_3   0.022950 0.183410 0.517431 -0.647510
H10   H     H_    0.918132 0.207653 0.491742 0.323613
N1    N     N_R   0.419817 0.420668 0.272284 0.276501
O22   O     O_R   0.235251 0.430345 0.264813 -0.358669
O23   O     O_R   0.526046 0.498574 0.291543 -0.400231
N2    N     N_R   0.450353 0.315077 0.139331 0.296146
O24   O     O_R   0.305856 0.282532 0.098956 -0.338643
O25   O     O_R   0.535137 0.395877 0.134308 -0.314681
O26   O     O_3   0.087861 0.790594 0.656695 -0.667126
H11   H     H_    0.140356 0.770740 0.609766 0.333535
N3    N     N_R   0.753958 0.839787 0.789928 0.231981
O27   O     O_R   0.844800 0.894556 0.841527 -0.384461
O28   O     O_R   0.665248 0.879604 0.745502 -0.296633
O29   O     O_3   0.783558 0.584018 0.714239 -0.694377
H12   H     H_    0.919619 0.592629 0.702207 0.339613
O30   O     O_3   0.303751 0.089268 0.735084 -0.652558
H13   H     H_    0.399743 0.122947 0.712200 0.350366
O31   O     O_3   0.554414 0.812834 0.496129 -0.644099
H14   H     H_    0.470438 0.779122 0.523181 0.308926
N4    N     N_R   0.556695 0.023919 0.319942 0.236691
O32   O     O_R   0.704206 0.064305 0.297809 -0.400128
O33   O     O_R   0.452122 0.075474 0.368796 -0.349209
N5    N     N_R   0.687792 0.935062 0.418151 0.285755
O34   O     O_R   0.849829 0.934154 0.385873 -0.336351
O35   O     O_R   0.671264 0.990521 0.479495 -0.217229
O36   O     O_3   0.153606 0.641056 0.305246 -0.712504
H15   H     H_    0.075851 0.626799 0.342844 0.352088
O37   O     O_3   0.297455 0.672109 0.001039 -0.747680
H16   H     H_    0.335362 0.603115 0.982365 0.367400
O38   O     O_3   0.242326 0.524378 0.079937 -0.675982
H17   H     H_    0.163435 0.523746 0.038427 0.335030
O39   O     O_3   0.442529 0.985556 0.181572 -0.771670
H18   H     H_    0.424718 0.048282 0.215205 0.318422
N6    N     N_R   0.217161 0.091052 0.602636 0.272085
O40   O     O_R   0.159403 0.002920 0.602820 -0.245531
O41   O     O_R   0.363676 0.102536 0.565236 -0.287875
O42   O     O_3   0.648820 0.300176 0.995352 -0.701981
H19   H     H_    0.530136 0.340250 0.998086 0.373744
N7    N     N_R   0.818308 0.475179 0.820184 0.262029
O43   O     O_R   0.985777 0.505814 0.805375 -0.385713
O44   O     O_R   0.672572 0.535105 0.829431 -0.335730
O45   O     O_3   0.659420 0.476030 0.945144 -0.698210
H20   H     H_    0.668816 0.477312 0.994746 0.350009
N8    N     N_R   0.896478 0.053133 0.778332 0.249229
O46   O     O_R   0.941304 0.987221 0.723550 -0.254212
O47   O     O_R   0.716589 0.060551 0.796783 -0.335557

loop_
_geom_bond_atom_site_label_1
_geom_bond_atom_site_label_2
_geom_bond_distance
_ccdc_geom_bond_type
C7    O42   1.379316 S    
O30   H13   0.991558 S    
C5    C17   1.396150 A    
C4    C6    1.470143 S    
C7    C8    1.412849 A    
V3    O20   1.709152 S    
O18   V4    2.039715 S    
O12   V3    2.055434 S    
C47   O31   1.384323 S    
C44   N4    1.436900 S    
C30   C31   1.398742 A    
C28   C29   1.421442 A    
N4    O33   1.301332 A    
C14   C15   1.387763 A    
O14   C50   1.296497 A    
N7    O44   1.300668 A    
C22   H3    1.082348 S    
N8    O46   1.302272 A    
O13   V3    2.006931 S    
C14   O30   1.376145 S    
O5    C3    1.298046 A    
C23   C24   1.396081 A    
O38   H17   0.989967 S    
N5    O34   1.301481 A    
C40   C42   1.427764 A    
C21   H2    1.080197 S    
C19   C24   1.389559 A    
O8    V2    1.995515 S    
C30   H6    1.069927 S    
C35   C43   1.420701 A    
C19   C26   1.498316 S    
O1    V2    2.051127 S    
C11   C15   1.400451 A    
C46   O36   1.382757 S    
O11   V4    2.000077 S    
O7    V1    2.160901 S    
C1    O6    1.302864 A    
C33   N3    1.447881 S    
C27   C34   1.483993 S    
C25   H4    1.111015 S    
C39   C40   1.412949 A    
O1    C2    1.292057 A    
O9    C4    1.309413 A    
C3    C23   1.479023 S    
C26   H5    1.105295 S    
C2    C36   1.474048 S    
C34   H8    1.115820 S    
C20   C21   1.413495 A    
C1    C28   1.472201 S    
N6    O41   1.300657 A    
C42   C46   1.418742 A    
C33   C34   1.515409 S    
C11   C18   1.418784 A    
C6    C16   1.411126 A    
C12   C13   1.429201 A    
C8    O45   1.382825 S    
C24   C25   1.492795 S    
O12   C49   1.295778 A    
O17   V3    2.160890 S    
O15   C51   1.297430 A    
C37   O37   1.383284 S    
O16   V4    2.052679 S    
C48   C49   1.467857 S    
N3    O28   1.302404 A    
C40   C41   1.419813 A    
C33   H7    1.111944 S    
O2    C1    1.288659 A    
C42   C43   1.417071 A    
O17   V4    1.728224 S    
N2    O25   1.302604 A    
O29   H12   0.992123 S    
C29   O26   1.379975 S    
N6    O40   1.300793 A    
N3    O27   1.298555 A    
C8    C9    1.410125 A    
C32   C33   1.506623 S    
C31   C50   1.493824 S    
C6    C17   1.411652 A    
V4    O20   2.188224 S    
C20   C52   1.482210 S    
C17   O21   1.384606 S    
O3    C4    1.285856 A    
C39   H9    1.077444 S    
C25   C26   1.537539 S    
C26   N2    1.464727 S    
N1    O23   1.301859 A    
O19   C52   1.299937 A    
O6    V2    1.999635 S    
O19   V4    1.995314 S    
O14   V3    2.007420 S    
O9    V2    2.039756 S    
O11   C50   1.306784 A    
C38   O38   1.380228 S    
C15   N8    1.433282 S    
C10   C12   1.448492 A    
C38   C39   1.391477 A    
C37   C48   1.406614 A    
O45   H20   0.990576 S    
O2    V1    2.007366 S    
N2    O24   1.300454 A    
C27   C28   1.391814 A    
O4    C2    1.298269 A    
O37   H16   0.989717 S    
C27   C32   1.408887 A    
C29   C30   1.403176 A    
C49   O16   1.290242 A    
O36   H15   0.987047 S    
O21   H10   0.990865 S    
C16   H1    1.079137 S    
C12   C16   1.418314 A    
O18   C51   1.301902 A    
O5    V1    2.006816 S    
C35   C47   1.401538 A    
O8    C3    1.301585 A    
C36   C47   1.414237 A    
N4    O32   1.301143 A    
C34   O29   1.394113 S    
C35   N5    1.437936 S    
C5    C13   1.417569 A    
C19   C20   1.403025 A    
C25   N1    1.463202 S    
C9    N7    1.425885 S    
C22   C23   1.409604 A    
C13   C14   1.408920 A    
O4    V1    2.055595 S    
O3    V1    2.060365 S    
V1    O10   1.709256 S    
O39   H18   0.986309 S    
C44   C45   1.415023 A    
C41   C48   1.430491 A    
C37   C38   1.411904 A    
C18   C51   1.489320 S    
C36   C46   1.414555 A    
N5    O35   1.301089 A    
C21   C22   1.412592 A    
O7    V2    1.728851 S    
O26   H11   0.989517 S    
O13   C52   1.301290 A    
C5    N6    1.434021 S    
C43   C44   1.414826 A    
C41   C45   1.421467 A    
N1    O22   1.300157 A    
C31   C32   1.416638 A    
O31   H14   0.990207 S    
C45   O39   1.379842 S    
C10   C11   1.425466 A    
O42   H19   0.991030 S    
C9    C10   1.417891 A    
C7    C18   1.401343 A    
O15   V3    2.060382 S    
V2    O10   2.188156 S    
N7    O43   1.301368 A    
N8    O47   1.303525 A    
