data_mof_unit_14994.cif
_audit_creation_date              2012-12-10T17:03:44-0500
_audit_creation_method            fapswitch 2.2
_symmetry_space_group_name_H-M    P1
_symmetry_Int_Tables_number       1
_space_group_crystal_system       triclinic
_cell_length_a                    10.084252
_cell_length_b                    10.645835
_cell_length_c                    13.224628
_cell_angle_alpha                 89.846808
_cell_angle_beta                  69.782568
_cell_angle_gamma                 88.203484
_cell_volume                      1331.55569192

loop_
_atom_site_label
_atom_site_type_symbol
_atom_type_description
_atom_site_fract_x
_atom_site_fract_y
_atom_site_fract_z
_atom_type_partial_charge
C1    C     C_R   0.494950 0.737394 0.506437 0.958924
C2    C     C_R   0.374660 0.533351 0.817876 -0.113566
C3    C     C_2   0.560600 0.066181 0.568598 0.536697
C4    C     C_R   0.421290 0.501818 0.703666 0.835444
C5    C     C_2   0.506464 0.129093 0.502956 -0.404944
C6    C     C_2   0.575139 0.929929 0.554939 -0.301766
C7    C     C_2   0.476435 0.868108 0.531675 -0.421052
C8    C     C_2   0.109654 0.444232 0.427377 -0.115989
C9    C     C_2   0.957154 0.424719 0.441472 0.107986
C10   C     C_R   0.501379 0.262403 0.501429 0.972627
C11   C     C_R   0.578192 0.507079 0.296598 0.872096
C12   C     C_R   0.466159 0.571739 0.963395 0.075164
C13   C     C_R   0.766077 0.405060 0.017450 -0.213998
C14   C     C_R   0.627037 0.514559 0.179395 -0.095550
C15   C     C_R   0.278171 0.634905 0.853554 -0.194014
C16   C     C_R   0.285727 0.712431 0.935376 -0.154684
C17   C     C_R   0.385047 0.685867 0.984539 -0.203540
C18   C     C_R   0.931235 0.311253 0.389156 0.093282
C19   C     C_R   0.899217 0.199297 0.447469 -0.081787
C20   C     C_R   0.893468 0.086881 0.394896 -0.135047
C21   C     C_R   0.920651 0.085496 0.283893 -0.124104
C22   C     C_R   0.956781 0.196117 0.224930 -0.147969
C23   C     C_R   0.462745 0.496692 0.876251 0.090486
C24   C     C_R   0.964342 0.308336 0.277197 -0.172968
C25   C     C_3   0.815990 0.635895 0.633752 0.194785
C26   C     C_3   0.888562 0.737696 0.675075 -0.436792
C27   C     C_3   0.815270 0.759568 0.796036 -0.979955
C28   C     C_R   0.419503 0.655966 0.193029 0.121438
C29   C     C_R   0.278113 0.621670 0.218191 -0.112957
C30   C     C_R   0.167699 0.701605 0.280741 -0.112449
C31   C     C_R   0.197377 0.814610 0.320731 -0.086964
C32   C     C_R   0.337490 0.848550 0.297479 -0.125670
C33   C     C_R   0.448293 0.769574 0.234115 -0.168841
C34   C     C_R   0.557062 0.532206 0.020551 0.025346
C35   C     C_3   0.608174 0.065625 0.730403 0.044915
C36   C     C_3   0.455262 0.058554 0.808949 -0.361844
C37   C     C_3   0.451090 0.025638 0.922350 -0.951910
C38   C     C_R   0.664699 0.438580 0.971706 0.167220
C39   C     C_R   0.663766 0.370779 0.882556 -0.263125
C40   C     C_R   0.556759 0.392278 0.841768 -0.221965
C41   C     C_R   0.538616 0.570980 0.127704 -0.070428
C42   C     C_R   0.747272 0.443466 0.121006 -0.226665
H1    H     H_    0.816978 0.404356 0.159612 0.165043
H2    H     H_    0.400187 0.758612 0.035429 0.158852
H3    H     H_    0.221552 0.798390 0.955376 0.145747
H4    H     H_    0.553190 0.330733 0.778038 0.193523
H5    H     H_    0.881966 0.198755 0.532968 0.139629
H6    H     H_    0.870020 0.000530 0.439918 0.126560
H7    H     H_    0.916399 0.998334 0.243337 0.127007
H8    H     H_    0.981316 0.194506 0.138526 0.126059
H9    H     H_    0.998762 0.392474 0.230438 0.114772
H10   H     H_    0.810246 0.549826 0.683317 0.136307
H11   H     H_    0.708059 0.672369 0.644684 0.189204
H12   H     H_    0.466538 0.082782 0.446749 0.100472
H13   H     H_    0.001037 0.709876 0.659283 0.232582
H14   H     H_    0.885591 0.826794 0.631747 0.215200
H15   H     H_    0.825965 0.673868 0.841096 0.278181
H16   H     H_    0.701215 0.783251 0.814824 0.264066
H17   H     H_    0.864694 0.838503 0.823013 0.265083
H18   H     H_    0.253876 0.533778 0.188428 0.116566
H19   H     H_    0.059108 0.675426 0.298890 0.155766
H20   H     H_    0.111844 0.875680 0.370017 0.125229
H21   H     H_    0.360278 0.935942 0.328803 0.122331
H22   H     H_    0.556449 0.796755 0.216936 0.118476
H23   H     H_    0.670171 0.882171 0.558349 0.172298
H24   H     H_    0.670418 0.118226 0.769824 0.165642
H25   H     H_    0.660609 0.971060 0.713415 0.137033
H26   H     H_    0.398463 0.150395 0.811993 0.222181
H27   H     H_    0.399291 0.985874 0.780467 0.215753
H28   H     H_    0.511749 0.936506 0.920917 0.263213
H29   H     H_    0.339873 0.014367 0.975906 0.259043
H30   H     H_    0.497215 0.101850 0.955567 0.271676
H31   H     H_    0.376811 0.913625 0.535340 0.155207
H32   H     H_    0.190841 0.402569 0.357537 0.146727
H33   H     H_    0.071777 0.514319 0.572925 0.193022
H34   H     H_    0.741181 0.295511 0.848433 0.138098
H35   H     H_    0.852009 0.338679 0.977586 0.135355
H36   H     H_    0.211089 0.664661 0.808608 0.152870
N1    N     N_2   0.148270 0.498670 0.498870 -0.174201
N2    N     N_2   0.852610 0.498640 0.498840 0.046497
O1    O     O_R   0.386950 0.680940 0.500020 -0.604550
O2    O     O_3   0.615224 0.132012 0.635821 -0.660318
O3    O     O_R   0.613110 0.680900 0.499980 -0.605058
O4    O     O_R   0.330780 0.500000 0.653640 -0.622772
O5    O     O_R   0.556930 0.499960 0.653610 -0.637244
O6    O     O_R   0.386890 0.319100 0.500020 -0.629510
O7    O     O_R   0.613050 0.319060 0.499980 -0.566623
O8    O     O_R   0.443070 0.500040 0.346390 -0.597718
O9    O     O_R   0.669220 0.500000 0.346360 -0.617064
O10   O     O_3   0.892027 0.611326 0.523703 -0.589102
Zn1   Zn    Zn3+2 0.349000 0.500030 0.500020 0.939232
Zn2   Zn    Zn3+2 0.651000 0.499970 0.499980 0.977793

loop_
_geom_bond_atom_site_label_1
_geom_bond_atom_site_label_2
_ccdc_geom_bond_type
C35   C36   S    
C3    C6    S    
C26   H13   S    
C21   H7    S    
C7    H31   S    
C40   H4    S    
O3    Zn2   S    
C12   C23   A    
C25   O10   S    
C18   C24   A    
C21   C22   A    
C28   C29   A    
C25   H11   S    
O6    Zn1   S    
C30   C31   A    
C11   C14   S    
C19   H5    S    
C15   H36   S    
C1    O1    A    
C23   C40   A    
C28   C41   S    
C18   C19   A    
O5    Zn2   S    
C6    H23   S    
C10   O6    A    
C19   C20   A    
C8    C9    S    
C12   C17   A    
C8    N1    D    
C29   H18   S    
O4    Zn1   S    
N1    Zn1   S    
C22   H8    S    
C24   H9    S    
C34   C38   A    
C37   H28   S    
C31   H20   S    
C34   C41   A    
C13   C42   A    
C35   O2    S    
C13   H35   S    
C10   O7    A    
C5    H12   S    
C27   H15   S    
C39   C40   A    
C16   C17   A    
C4    O5    A    
C35   H24   S    
C25   C26   S    
C9    N2    D    
N2    Zn2   S    
C2    C4    S    
C29   C30   A    
C11   O9    A    
C31   C32   A    
C4    O4    A    
O8    Zn1   S    
C35   H25   S    
C11   O8    A    
C3    O2    S    
C8    H32   S    
C26   C27   S    
C39   H34   S    
O9    Zn2   S    
C2    C15   A    
C13   C38   A    
C20   H6    S    
C14   C41   A    
C28   C33   A    
C37   H29   S    
C22   C24   A    
C30   H19   S    
C42   H1    S    
C12   C34   A    
C36   H27   S    
C36   C37   S    
C1    C7    S    
C32   H21   S    
C3    C5    D    
C27   H16   S    
C26   H14   S    
C16   H3    S    
C36   H26   S    
C6    C7    D    
C1    O3    A    
C14   C42   A    
C32   C33   A    
C25   H10   S    
C5    C10   S    
C27   H17   S    
C38   C39   A    
C33   H22   S    
N2    O10   S    
C17   H2    S    
O1    Zn1   S    
C9    C18   S    
C20   C21   A    
C37   H30   S    
C2    C23   A    
O7    Zn2   S    
H33   N1    S    
C15   C16   A    
