data_mof_unit_34506.cif
_audit_creation_date              2012-12-10T16:49:24-0500
_audit_creation_method            fapswitch 2.2
_symmetry_space_group_name_H-M    P1
_symmetry_Int_Tables_number       1
_space_group_crystal_system       triclinic
_cell_length_a                    7.7442
_cell_length_b                    8.633212
_cell_length_c                    12.849498
_cell_angle_alpha                 90.133279
_cell_angle_beta                  87.543459
_cell_angle_gamma                 93.434161
_cell_volume                      856.752253237

loop_
_atom_site_label
_atom_site_type_symbol
_atom_type_description
_atom_site_fract_x
_atom_site_fract_y
_atom_site_fract_z
_atom_type_partial_charge
C1    C     C_R   0.455129 0.205649 0.497301 0.881380
C2    C     C_R   0.698990 0.429619 0.140631 -0.189675
C3    C     C_R   0.571196 0.443114 0.868584 -0.238522
C4    C     C_R   0.428804 0.556886 0.131416 -0.238522
C5    C     C_R   0.571657 0.465086 0.975011 0.011841
C6    C     C_R   0.428343 0.534913 0.024989 0.011841
C7    C     C_2   0.431049 0.043332 0.495868 0.276769
C8    C     C_2   0.568951 0.956668 0.504132 0.276769
C9    C     C_R   0.544871 0.794351 0.502699 0.881380
C10   C     C_R   0.464748 0.500908 0.699808 0.895156
C11   C     C_R   0.535252 0.499092 0.300192 0.895156
C12   C     C_R   0.557805 0.497469 0.188959 -0.135304
C13   C     C_R   0.442195 0.502530 0.811041 -0.135304
C14   C     C_R   0.289214 0.582419 0.966760 0.480339
C15   C     C_R   0.710786 0.417581 0.033240 0.480339
C16   C     C_R   0.301010 0.570380 0.859369 -0.189675
F1    F     F_    0.265434 0.983353 0.486034 -0.619400
F2    F     F_    0.734566 0.016647 0.513966 -0.619400
H1    H     H_    0.327662 0.618341 0.171192 0.185063
H2    H     H_    0.672338 0.381659 0.828808 0.185063
H3    H     H_    0.800411 0.386153 0.186116 0.186090
H4    H     H_    0.199588 0.613847 0.813884 0.186090
H5    H     H_    0.998428 0.615246 0.422026 0.216812
H6    H     H_    0.001571 0.384754 0.577974 0.216812
H7    H     H_    0.109743 0.585729 0.075983 0.341445
H8    H     H_    0.890257 0.414270 0.924017 0.341445
N1    N     N_2   0.054030 0.541640 0.471970 -0.149233
N2    N     N_2   0.945970 0.458360 0.528030 -0.149233
O1    O     O_R   0.609680 0.261530 0.506880 -0.573424
O2    O     O_3   0.857457 0.356724 0.989105 -0.753114
O3    O     O_R   0.390320 0.738470 0.493120 -0.573425
O4    O     O_R   0.323330 0.288220 0.488910 -0.581686
O5    O     O_R   0.676670 0.711780 0.511090 -0.581685
O6    O     O_R   0.619510 0.488830 0.661140 -0.621184
O7    O     O_R   0.380490 0.511170 0.338860 -0.621185
O8    O     O_R   0.333160 0.515520 0.643180 -0.637253
O9    O     O_R   0.666840 0.484480 0.356820 -0.637253
O10   O     O_3   0.142542 0.643276 0.010895 -0.753114
Zn1   Zn    Zn3+2 0.691200 0.482180 0.511990 1.023901
Zn2   Zn    Zn3+2 0.308800 0.517820 0.488010 1.023901

loop_
_geom_bond_atom_site_label_1
_geom_bond_atom_site_label_2
_ccdc_geom_bond_type
C16   H4    S    
C11   C12   S    
H5    N1    S    
H7    O10   S    
C4    C12   A    
C3    C13   A    
O8    Zn2   S    
N1    Zn2   S    
C2    C12   A    
O1    Zn1   S    
C2    H3    S    
C1    O1    A    
O7    Zn2   S    
C7    C8    D    
C10   O6    A    
C9    O5    A    
C2    C15   A    
O5    Zn1   S    
C11   O7    A    
H8    O2    S    
O4    Zn2   S    
C5    C6    A    
C14   C16   A    
C5    C15   A    
C4    C6    A    
C6    C14   A    
C9    O3    A    
C14   O10   S    
H6    N2    S    
C3    H2    S    
O3    Zn2   S    
C15   O2    S    
O9    Zn1   S    
C13   C16   A    
N1    N2    D    
C11   O9    A    
C10   O8    A    
N2    Zn1   S    
C3    C5    A    
C1    C7    S    
C4    H1    S    
C1    O4    A    
C8    F2    S    
O6    Zn1   S    
C8    C9    S    
C7    F1    S    
C10   C13   S    
