data_mof_unit_63679.cif
_audit_creation_date              2013-03-05T16:21:42-0500
_audit_creation_method            fapswitch 2.2
_symmetry_space_group_name_H-M    P1
_symmetry_Int_Tables_number       1
_space_group_crystal_system       triclinic
_cell_length_a                    15.774302
_cell_length_b                    14.997058
_cell_length_c                    27.739285
_cell_angle_alpha                 89.906629
_cell_angle_beta                  90.150996
_cell_angle_gamma                 89.867636
_cell_volume                      6562.18148007

loop_
_atom_site_label
_atom_site_type_symbol
_atom_site_description
_atom_site_fract_x
_atom_site_fract_y
_atom_site_fract_z
_atom_type_partial_charge
O1    O     O_R   0.377210 0.574260 0.500050 -0.603568
O2    O     O_R   0.377210 0.425740 0.500050 -0.597646
C1    C     C_R   0.338116 0.500088 0.500200 0.912254
O3    O     O_R   0.500080 0.574220 0.428810 -0.620321
O4    O     O_R   0.500080 0.425780 0.428810 -0.619099
C2    C     C_R   0.500463 0.500085 0.405853 0.892342
Zn1   Zn    Zn3+2 0.500090 0.599130 0.500070 1.014017
Zn2   Zn    Zn3+2 0.500090 0.400870 0.500070 1.029211
O5    O     O_R   0.622930 0.574200 0.500050 -0.604225
O6    O     O_R   0.622930 0.425800 0.500050 -0.600735
O7    O     O_R   0.500060 0.574240 0.571300 -0.614201
O8    O     O_R   0.500060 0.425760 0.571300 -0.590924
C3    C     C_R   0.662039 0.499903 0.500216 0.908797
C4    C     C_R   0.498706 0.499923 0.594123 0.903534
C5    C     C_R   0.439283 0.517528 0.176988 0.535995
O9    O     O_2   0.365890 0.528290 0.201278 -0.537393
N1    N     N_R   0.512874 0.503531 0.201608 -0.350865
C6    C     C_R   0.588812 0.492799 0.178859 0.539264
C7    C     C_R   0.504977 0.420017 0.277559 0.218086
C8    C     C_R   0.501473 0.419739 0.327664 -0.222611
C9    C     C_R   0.508008 0.581589 0.328155 -0.187439
C10   C     C_R   0.511732 0.581961 0.278189 -0.127205
C11   C     C_R   0.510328 0.501521 0.252901 0.268295
C12   C     C_R   0.516720 0.508217 0.101844 -0.057709
C13   C     C_R   0.439722 0.520507 0.126771 -0.019511
C14   C     C_R   0.364511 0.534607 0.101258 -0.117366
C15   C     C_R   0.592973 0.494467 0.127990 -0.068756
C16   C     C_R   0.502959 0.500441 0.353224 -0.077038
H1    H     H_    0.509345 0.644688 0.347081 0.174474
H2    H     H_    0.515559 0.644730 0.258960 0.153158
H3    H     H_    0.304528 0.542543 0.119733 0.198031
C17   C     C_R   0.500647 0.500377 0.646560 -0.106482
C18   C     C_R   0.442843 0.535513 0.974356 0.055070
C19   C     C_R   0.591036 0.484222 0.974617 0.013551
C20   C     C_R   0.517007 0.509367 0.949132 0.078692
C21   C     C_R   0.372957 0.568249 0.947781 -0.205361
C22   C     C_R   0.373959 0.569671 0.897931 -0.115359
C23   C     C_R   0.444503 0.538427 0.872774 -0.011419
C24   C     C_R   0.516814 0.508129 0.898038 -0.081736
C25   C     C_R   0.588331 0.476495 0.872242 -0.095938
C26   C     C_R   0.583909 0.475593 0.821444 0.547046
N2    N     N_R   0.513044 0.506092 0.798274 -0.357075
C27   C     C_R   0.444312 0.537410 0.822565 0.522214
C28   C     C_R   0.461063 0.439479 0.723934 -0.120694
C29   C     C_R   0.455385 0.437204 0.673914 0.137663
C30   C     C_R   0.549040 0.566046 0.669712 -0.257987
C31   C     C_R   0.553907 0.568447 0.719750 0.042302
C32   C     C_R   0.510148 0.504384 0.746861 0.226197
O10   O     O_2   0.375994 0.567493 0.797943 -0.534558
C33   C     C_R   0.440919 0.528578 0.025214 0.046513
C34   C     C_R   0.516951 0.509559 0.050750 0.079649
C35   C     C_R   0.592938 0.491599 0.025568 0.053334
C36   C     C_R   0.364930 0.538677 0.051437 -0.204701
H4    H     H_    0.426255 0.391504 0.745312 0.170455
H5    H     H_    0.318614 0.595083 0.879148 0.198579
H6    H     H_    0.317110 0.595616 0.964538 0.151437
H7    H     H_    0.303935 0.546955 0.034396 0.152127
O11   O     O_2   0.659217 0.480235 0.205737 -0.522806
C37   C     C_R   0.669704 0.483751 0.102294 -0.003816
H8    H     H_    0.497501 0.356533 0.346453 0.183342
C38   C     C_R   0.660447 0.450538 0.948406 -0.243378
C39   C     C_R   0.660142 0.446376 0.898338 0.236248
O12   O     O_2   0.648891 0.444666 0.794887 -0.500556
C40   C     C_R   0.668836 0.482597 0.052116 -0.238801
H9    H     H_    0.715568 0.423386 0.966180 0.167101
H10   H     H_    0.583568 0.615010 0.648713 0.176269
H11   H     H_    0.729549 0.477402 0.034460 0.149444
C41   C     C_3   0.050572 0.581589 0.539107 0.043284
C42   C     C_3   0.051150 0.406215 0.526587 0.044924
C43   C     C_3   0.950535 0.410091 0.532366 0.034292
C44   C     C_3   0.949091 0.585257 0.536801 0.028360
C45   C     C_1   0.750438 0.499682 0.502289 -0.097527
C46   C     C_3   0.083055 0.500270 0.507360 -0.008840
C47   C     C_3   0.916663 0.499954 0.506729 -0.049470
C48   C     C_3   0.952377 0.504972 0.452924 0.314773
C49   C     C_3   0.049501 0.514299 0.455119 -0.434670
C50   C     C_1   0.825393 0.499625 0.504419 0.047075
C51   C     C_1   0.174798 0.500438 0.504735 0.032813
C52   C     C_1   0.249734 0.500287 0.502398 -0.112551
H12   H     H_    0.068324 0.581116 0.441806 0.223625
H13   H     H_    0.080197 0.467462 0.429573 0.220617
C53   C     C_3   0.406608 0.052416 0.490955 -0.219083
C54   C     C_3   0.406100 0.947313 0.495031 -0.216132
C55   C     C_3   0.534102 0.052502 0.548907 -0.196338
C56   C     C_3   0.541383 0.947474 0.547039 -0.189907
H14   H     H_    0.599284 0.079132 0.553947 0.146524
H15   H     H_    0.610130 0.931085 0.545316 0.151234
N3    N     N_1   0.498630 0.731150 0.499030 -0.080089
N4    N     N_1   0.498630 0.268850 0.499030 -0.074019
C57   C     C_3   0.498120 0.090227 0.499988 0.060417
C58   C     C_3   0.498839 0.909796 0.499978 0.065376
C59   C     C_3   0.550073 0.947606 0.455970 -0.225969
C60   C     C_3   0.554896 0.053061 0.458087 -0.224268
C61   C     C_1   0.498577 0.808980 0.499241 0.060694
C62   C     C_1   0.498339 0.191010 0.499307 0.067222
H16   H     H_    0.529258 0.079101 0.423364 0.141583
H17   H     H_    0.514807 0.929711 0.422549 0.139376
H18   H     H_    0.389026 0.069327 0.453116 0.139080
H19   H     H_    0.379066 0.921128 0.460753 0.136894
I1    I     I_    0.500947 0.296679 0.240519 -0.268760
C63   C     C_1   0.751448 0.473932 0.125519 0.301289
N5    N     N_1   0.817028 0.466062 0.143887 -0.130013
I2    I     I_    0.774015 0.392292 0.868580 -0.193504
C64   C     C_1   0.603043 0.637321 0.742859 0.236174
N6    N     N_1   0.642444 0.692517 0.761434 -0.152929
C65   C     C_1   0.910460 0.589949 0.585607 0.202988
N7    N     N_1   0.880188 0.595218 0.623508 -0.136752
C66   C     C_1   0.925662 0.405725 0.583952 0.174606
N8    N     N_1   0.906533 0.400169 0.624139 -0.122832
C67   C     C_1   0.083036 0.573317 0.589234 0.192935
N9    N     N_1   0.108390 0.567568 0.628326 -0.125182
C68   C     C_1   0.095270 0.380585 0.572056 0.217176
N10   N     N_1   0.129725 0.360126 0.607298 -0.113044
I3    I     I_    0.097646 0.299760 0.479540 -0.233040
I4    I     I_    0.113483 0.705086 0.516516 -0.250337
I5    I     I_    0.883339 0.287642 0.513082 -0.199094
I6    I     I_    0.894360 0.712873 0.514337 -0.207789
I7    I     I_    0.901711 0.606658 0.405098 -0.207892
I8    I     I_    0.919345 0.396693 0.404807 -0.180811
C69   C     C_1   0.349511 0.912658 0.533267 0.244258
N11   N     N_1   0.305120 0.885490 0.563001 -0.125878
C70   C     C_1   0.340801 0.097273 0.520382 0.235466
N12   N     N_1   0.289349 0.132468 0.543207 -0.115209
C71   C     C_1   0.486132 0.086121 0.590997 0.228438
N13   N     N_1   0.448926 0.112242 0.624008 -0.127318
C72   C     C_1   0.511933 0.901926 0.591395 0.202596
N14   N     N_1   0.489188 0.866200 0.626029 -0.151345
C73   C     C_1   0.642611 0.088241 0.461172 0.212098
N15   N     N_1   0.710958 0.115810 0.463584 -0.119842
C74   C     C_1   0.634015 0.903732 0.450917 0.201852
N16   N     N_1   0.699402 0.869358 0.447000 -0.123419
I9    I     I_    0.371447 0.341878 0.643349 -0.251595

loop_
_geom_bond_atom_site_label_1
_geom_bond_atom_site_label_2
_geom_bond_distance
_ccdc_geom_bond_type
C63   N5    1.157643 T    
C17   C29   1.409534 A    
C59   C74   1.484295 S    
C7    C8    1.391140 A    
C12   C15   1.417433 A    
C1    C52   1.395658 S    
C73   N15   1.157380 T    
C56   C58   1.572696 S    
C57   C62   1.511543 S    
C69   N11   1.157556 T    
Zn1   O7    2.010220 S    
C37   C40   1.392080 A    
C72   N14   1.157508 T    
C21   C22   1.383060 A    
C55   H14   1.112460 S    
C30   H10   1.085027 S    
C23   C24   1.411048 A    
C42   C68   1.488446 S    
C5    C13   1.393666 A    
C65   N7    1.158575 T    
C5    O9    1.350551 S    
C18   C21   1.411308 A    
C25   C39   1.415442 A    
C66   N8    1.158558 T    
Zn1   O5    1.972607 S    
C19   C20   1.413637 A    
C26   N2    1.365558 A    
O5    C3    1.272371 A    
C67   N9    1.157825 T    
C68   N10   1.157872 T    
C18   C33   1.414843 A    
C45   C50   1.183681 T    
C18   C20   1.419504 A    
C6    O11   1.348711 S    
C2    C16   1.460530 S    
Zn1   N3    1.980153 S    
C47   C50   1.440987 S    
C43   C47   1.612147 S    
C46   C51   1.449216 S    
C42   C46   1.590484 S    
C8    H8    1.083009 S    
C12   C34   1.417444 A    
C14   H3    1.083651 S    
C54   H19   1.113564 S    
C9    C10   1.387425 A    
C53   H18   1.113651 S    
C56   C72   1.482578 S    
C38   C39   1.390342 A    
C48   I7    2.169457 S    
C55   C57   1.573387 S    
O3    Zn1   2.012294 S    
C64   N6    1.157198 T    
C59   H17   1.113447 S    
N1    C6    1.364717 A    
C56   H15   1.112549 S    
N3    C61   1.167251 T    
C42   I3    2.190066 S    
C33   C36   1.411725 A    
C47   C48   1.598400 S    
C44   I6    2.186829 S    
C34   C35   1.414485 A    
C37   C63   1.447023 S    
C40   H11   1.079524 S    
C48   I8    2.167318 S    
C12   C13   1.411065 A    
O3    C2    1.282163 A    
C35   C40   1.410036 A    
C24   C25   1.418678 A    
C36   H7    1.077711 S    
C51   C52   1.184004 T    
C27   O10   1.350655 S    
C41   C67   1.485405 S    
C8    C16   1.403902 A    
C43   I5    2.188886 S    
C41   C46   1.590080 S    
C9    H1    1.083150 S    
C19   C38   1.409087 A    
O1    C1    1.273116 A    
C54   C69   1.482315 S    
N4    C62   1.167406 T    
C20   C24   1.417461 A    
C48   C49   1.539808 S    
C22   C23   1.395556 A    
C21   H6    1.077809 S    
C38   H9    1.077204 S    
C44   C47   1.611948 S    
C31   C32   1.403057 A    
N1    C11   1.423767 S    
Zn2   O8    2.011415 S    
C33   C34   1.419461 A    
N2    C32   1.427036 S    
C55   C56   1.579975 S    
C25   C26   1.410733 A    
C9    C16   1.403188 A    
O8    C4    1.280842 A    
C60   H16   1.113456 S    
C46   C49   1.555260 S    
N2    C27   1.361116 A    
C26   O12   1.345888 S    
C14   C36   1.383289 A    
C58   C59   1.571617 S    
C28   C29   1.390643 A    
C7    C11   1.402534 A    
C57   C60   1.571317 S    
C39   I2    2.137552 S    
C5    N1    1.360981 A    
C30   C31   1.390459 A    
C31   C64   1.442840 S    
C10   H2    1.083095 S    
O1    Zn1   1.974751 S    
C17   C30   1.402875 A    
O2    Zn2   1.973058 S    
C6    C15   1.412941 A    
C49   H12   1.108796 S    
C4    C17   1.454825 S    
O6    C3    1.272334 A    
C49   H13   1.109877 S    
O4    Zn2   2.011097 S    
C7    I1    2.118374 S    
C3    C45   1.395464 S    
C55   C71   1.481471 S    
C54   C58   1.571726 S    
C19   C35   1.418072 A    
C53   C57   1.571776 S    
O2    C1    1.272948 A    
C13   C14   1.395365 A    
C60   C73   1.484262 S    
C23   C27   1.392882 A    
C15   C37   1.415240 A    
C58   C61   1.512128 S    
O4    C2    1.282607 A    
C41   C44   1.602717 S    
C59   C60   1.584694 S    
O7    C4    1.281153 A    
C74   N16   1.157464 T    
C42   C43   1.596567 S    
C41   I4    2.194489 S    
C22   H5    1.083647 S    
C28   H4    1.083022 S    
C29   I9    2.126636 S    
Zn2   O6    1.974303 S    
C53   C54   1.580145 S    
C44   C65   1.487834 S    
C10   C11   1.396651 A    
C43   C66   1.486150 S    
Zn2   N4    1.980354 S    
C70   N12   1.157597 T    
C53   C70   1.483075 S    
C28   C32   1.397987 A    
C71   N13   1.157302 T    
