data_mof_unit_12089.cif
_audit_creation_date              2012-12-11T19:47:09-0500
_audit_creation_method            fapswitch 2.2
_symmetry_space_group_name_H-M    P1
_symmetry_Int_Tables_number       1
_space_group_crystal_system       triclinic
_cell_length_a                    8.19367
_cell_length_b                    15.054927
_cell_length_c                    18.805619
_cell_angle_alpha                 102.376796
_cell_angle_beta                  91.372718
_cell_angle_gamma                 98.585979
_cell_volume                      2236.69878401

loop_
_atom_site_label
_atom_site_type_symbol
_atom_type_description
_atom_site_fract_x
_atom_site_fract_y
_atom_site_fract_z
_atom_type_partial_charge
Ba1   Ba    Ba6+2 0.853520 0.540910 0.466490 1.648995
Ba2   Ba    Ba6+2 0.336320 0.459170 0.533520 1.662492
C1    C     C_3   0.704207 0.864373 0.300206 -0.242440
C2    C     C_3   0.664798 0.770316 0.317996 0.287188
C3    C     C_3   0.451522 0.309047 0.308215 0.279307
C4    C     C_3   0.386023 0.271416 0.229356 -0.344255
C5    C     C_3   0.055882 0.276970 0.725912 0.344692
C6    C     C_3   0.067572 0.253393 0.800342 -0.351947
C7    C     C_3   0.529463 0.227249 0.681707 0.360189
C8    C     C_3   0.499837 0.133807 0.701856 -0.357216
C9    C     C_R   0.996655 0.441794 0.043999 0.008969
C10   C     C_R   0.899032 0.397737 0.091385 -0.084338
C11   C     C_R   0.769745 0.414144 0.947713 -0.100408
C12   C     C_3   0.137540 0.716240 0.272648 0.330698
C13   C     C_R   0.935671 0.446991 0.973153 0.034342
C14   C     C_R   0.712377 0.419001 0.878766 -0.092725
C15   C     C_R   0.816407 0.458027 0.831641 -0.019733
C16   C     C_R   0.980766 0.498399 0.856904 -0.031360
C17   C     C_R   0.041542 0.490211 0.927229 0.024196
C18   C     C_R   0.760386 0.457275 0.759942 -0.004276
C19   C     C_R   0.868540 0.494641 0.713811 -0.309518
C20   C     C_R   0.026470 0.542763 0.738319 0.032736
C21   C     C_R   0.082122 0.549296 0.813290 -0.085366
C22   C     C_R   0.162018 0.480933 0.068482 0.030661
C23   C     C_3   0.121229 0.734706 0.196633 -0.314385
C24   C     C_R   0.219086 0.485007 0.141893 -0.006441
C25   C     C_R   0.112070 0.448520 0.190594 -0.041719
C26   C     C_R   0.956491 0.399886 0.162270 0.005989
C27   C     C_R   0.233479 0.601300 0.848094 0.371525
C28   C     C_R   0.302195 0.577801 0.908773 -0.099394
C29   C     C_R   0.208094 0.525262 0.951028 -0.034326
C30   C     C_R   0.270588 0.517324 0.020490 0.035439
C31   C     C_R   0.438679 0.546502 0.044456 -0.089229
C32   C     C_R   0.383560 0.525700 0.166471 -0.037963
C33   C     C_R   0.492855 0.552262 0.116009 -0.078901
C34   C     C_3   0.241551 0.741099 0.623478 0.346910
C35   C     C_R   0.434500 0.537871 0.240632 -0.001739
C36   C     C_R   0.323423 0.508479 0.289271 -0.305512
C37   C     C_R   0.165093 0.461319 0.265541 0.045579
C38   C     C_R   0.856399 0.171751 0.546157 0.000180
C39   C     C_R   0.788786 0.078153 0.540644 -0.030219
C40   C     C_R   0.649704 0.889802 0.527605 -0.035352
C41   C     C_R   0.798521 0.928642 0.569120 -0.035788
C42   C     C_R   0.868557 0.020158 0.573999 -0.101851
C43   C     C_R   0.581995 0.795037 0.518000 0.043496
C44   C     C_R   0.432107 0.761333 0.477046 -0.298523
C45   C     C_3   0.273963 0.845959 0.644056 -0.339807
C46   C     C_R   0.616032 0.193030 0.476771 0.016673
C47   C     C_R   0.549127 0.099494 0.468633 -0.011852
C48   C     C_R   0.634499 0.041960 0.501502 0.012462
C49   C     C_R   0.398606 0.062073 0.428818 0.005347
C50   C     C_R   0.330006 0.971038 0.423280 -0.090711
C51   C     C_R   0.411395 0.912650 0.455427 -0.044207
C52   C     C_R   0.565819 0.947853 0.494464 0.000461
C53   C     C_R   0.342472 0.819918 0.449298 -0.002755
C54   C     C_R   0.766115 0.228241 0.516552 -0.304489
C55   C     C_3   0.946865 0.252507 0.365887 0.266901
C56   C     C_3   0.943832 0.148472 0.344260 0.323844
C57   C     C_3   0.768240 0.690371 0.689141 0.300423
C58   C     C_3   0.837497 0.741853 0.764846 -0.314509
H1    H     H_    0.741372 0.771220 0.367719 0.103142
H2    H     H_    0.377447 0.869955 0.686299 0.162906
H3    H     H_    0.306366 0.874864 0.595996 0.035808
H4    H     H_    0.161339 0.872292 0.665832 0.112534
H5    H     H_    0.820723 0.267524 0.375072 -0.017387
H6    H     H_    0.026714 0.279629 0.416796 0.008609
H7    H     H_    0.898812 0.116106 0.389337 -0.077833
H8    H     H_    0.071765 0.134534 0.334588 0.026942
H9    H     H_    0.871671 0.667715 0.657315 0.016224
H10   H     H_    0.677766 0.628846 0.692080 0.019727
H11   H     H_    0.675781 0.918041 0.346547 0.088997
H12   H     H_    0.941406 0.795763 0.759262 0.166461
H13   H     H_    0.878458 0.693417 0.795710 0.087527
H14   H     H_    0.744703 0.777784 0.796160 0.178809
H15   H     H_    0.532020 0.758021 0.328965 -0.050256
H16   H     H_    0.629447 0.866590 0.250751 0.168601
H17   H     H_    0.353231 0.341019 0.338845 0.024256
H18   H     H_    0.561887 0.362194 0.309715 0.040981
H19   H     H_    0.268475 0.223203 0.227290 0.172692
H20   H     H_    0.363218 0.328472 0.203692 0.045613
H21   H     H_    0.476804 0.234260 0.197439 0.141213
H22   H     H_    0.837646 0.878707 0.290578 0.177741
H23   H     H_    0.162000 0.678377 0.156086 0.071152
H24   H     H_    0.136345 0.343860 0.728077 0.086820
H25   H     H_    0.925724 0.283603 0.713782 -0.060024
H26   H     H_    0.022825 0.306734 0.842085 0.075824
H27   H     H_    0.990110 0.185880 0.799194 0.124708
H28   H     H_    0.197895 0.249878 0.815537 0.150164
H29   H     H_    0.661814 0.242876 0.670740 -0.068917
H30   H     H_    0.452686 0.222900 0.631321 0.098843
H31   H     H_    0.531711 0.080131 0.656286 0.067490
H32   H     H_    0.367787 0.115763 0.712770 0.151426
H33   H     H_    0.058693 0.649724 0.273172 0.089216
H34   H     H_    0.578179 0.135433 0.751278 0.123436
H35   H     H_    0.826217 0.488838 0.657812 0.066086
H36   H     H_    0.583705 0.392220 0.863539 0.113205
H37   H     H_    0.874711 0.364164 0.194716 0.102530
H38   H     H_    0.622143 0.578019 0.130914 0.112807
H39   H     H_    0.363600 0.518656 0.346066 0.075556
H40   H     H_    0.679062 0.384731 0.980130 0.074862
H41   H     H_    0.776645 0.360182 0.075373 0.071088
H42   H     H_    0.423641 0.613924 0.928374 0.111907
H43   H     H_    0.268620 0.710892 0.284288 -0.058261
H44   H     H_    0.532864 0.565136 0.008894 0.077036
H45   H     H_    0.864535 0.889196 0.598101 0.099418
H46   H     H_    0.985037 0.044858 0.605137 0.107842
H47   H     H_    0.212769 0.947491 0.392679 0.113370
H48   H     H_    0.330114 0.102415 0.401725 0.096853
H49   H     H_    0.379283 0.689620 0.470778 0.069308
H50   H     H_    0.817087 0.300024 0.521518 0.067752
H51   H     H_    0.990419 0.738457 0.182526 0.158510
H52   H     H_    0.199531 0.800826 0.194330 0.146350
H53   H     H_    0.356370 0.715023 0.606497 0.009818
H54   H     H_    0.145599 0.718920 0.578007 0.044433
O1    O     O_2   0.871960 0.437280 0.322960 -0.475809
O2    O     O_3   0.690299 0.750495 0.658364 -0.614800
O3    O     O_3   0.085899 0.788188 0.323369 -0.600745
O4    O     O_2   0.317750 0.562750 0.677090 -0.437268
O5    O     O_3   0.068300 0.555620 0.587560 -0.516944
O6    O     O_3   0.528270 0.392500 0.627460 -0.476086
O7    O     O_3   0.189339 0.709536 0.684956 -0.546610
O8    O     O_3   0.609290 0.386840 0.459690 -0.481632
O9    O     O_3   0.105700 0.342700 0.589730 -0.485002
O10   O     O_2   0.197179 0.179471 0.540299 -0.498308
O11   O     O_3   0.108581 0.206914 0.673830 -0.603066
O12   O     O_3   0.121410 0.444460 0.412450 -0.489417
O13   O     O_3   0.580430 0.613240 0.540320 -0.482660
O14   O     O_2   0.337390 0.273050 0.457610 -0.471574
O15   O     O_3   0.494970 0.236520 0.336867 -0.604506
O16   O     O_2   0.418464 0.461077 0.755695 -0.514629
O17   O     O_3   0.484991 0.294253 0.739095 -0.602268
O18   O     O_3   0.661450 0.607570 0.372550 -0.485514
O19   O     O_2   0.777237 0.538845 0.245520 -0.499734
O20   O     O_3   0.008771 0.290848 0.308860 -0.631791
O21   O     O_3   0.701819 0.703175 0.258949 -0.596257
O22   O     O_2   0.852310 0.726980 0.542430 -0.486515
O23   O     O_3   0.084010 0.657370 0.410280 -0.487173
O24   O     O_2   0.002775 0.821513 0.458868 -0.494142
P1    P     P_3+3 0.039430 0.410940 0.333230 0.979447
P2    P     P_3+3 0.676770 0.715000 0.563590 0.982870
P3    P     P_3+3 0.129353 0.773433 0.411344 0.936468
P4    P     P_3+3 0.150290 0.589140 0.666780 1.050825
P5    P     P_3+3 0.065926 0.224484 0.586715 0.937811
P6    P     P_3+3 0.643361 0.594757 0.278517 0.944383
P7    P     P_3+3 0.518140 0.271000 0.432040 0.959843
P8    P     P_3+3 0.549090 0.403367 0.721335 0.933431
S1    S     S_3+6 0.814614 0.096093 0.263289 -0.043922
O25   O     O_2   0.641357 0.067774 0.283609 -0.311697
O26   O     O_2   0.880858 0.012177 0.224341 -0.262855
O27   O     O_3   0.811768 0.167424 0.205762 -0.461141
H55   H     H_    0.741422 0.212641 0.228104 0.330144
S2    S     S_3+6 0.313536 0.715093 0.840867 -0.051436
O28   O     O_2   0.177959 0.765518 0.824927 -0.276234
O29   O     O_2   0.402705 0.768525 0.911458 -0.267939
O30   O     O_3   0.449645 0.711909 0.776252 -0.479112
H56   H     H_    0.513154 0.663824 0.784802 0.301206

loop_
_geom_bond_atom_site_label_1
_geom_bond_atom_site_label_2
_ccdc_geom_bond_type
C26   H37   S    
O18   P6    S    
O6    P8    S    
C53   P3    S    
C35   P6    S    
O16   P8    D    
C31   H44   S    
C58   H13   S    
C51   C53   A    
C1    H11   S    
S1    O25   D    
C55   H6    S    
O22   P2    D    
Ba1   O18   S    
C17   C29   A    
C45   H2    S    
Ba2   O4    S    
C5    C6    S    
C5    H25   S    
C51   C52   A    
C13   C17   A    
C24   C25   A    
C48   C52   A    
C10   C26   A    
C21   C27   A    
S1    O26   D    
C35   C36   A    
C22   C24   A    
Ba1   Ba2   S    
C45   H3    S    
C3    C4    S    
O14   P7    D    
C8    H34   S    
C32   C35   A    
C9    C22   A    
C57   O2    S    
C15   C18   A    
C16   C17   A    
C34   C45   S    
C32   C33   A    
C41   H45   S    
O8    P7    S    
Ba1   O8    S    
C2    H15   S    
C23   H52   S    
C9    C13   A    
C24   C32   A    
C50   H47   S    
C25   C37   A    
C14   C15   A    
C47   C49   A    
C44   C53   A    
O10   P5    D    
Ba1   O22   S    
C7    C8    S    
C12   H33   S    
O15   P7    S    
Ba1   P1    S    
Ba2   O13   S    
C3    O15   S    
C5    H24   S    
C8    H32   S    
C57   C58   S    
C4    H21   S    
C19   C20   A    
C20   P4    S    
C34   H53   S    
C54   H50   S    
C55   C56   S    
Ba2   O8    S    
C37   P1    S    
O12   P1    S    
C14   H36   S    
C49   C50   A    
S1    O27   S    
Ba1   O12   S    
C7    H29   S    
C45   H4    S    
Ba2   O6    S    
C56   S1    S    
C49   H48   S    
C19   H35   S    
C38   C54   A    
Ba2   O9    S    
C2    H1    S    
C43   P2    S    
C16   C21   A    
C6    H28   S    
C40   C43   A    
O3    P3    S    
C41   C42   A    
C22   C30   A    
Ba1   O5    S    
C27   C28   A    
C4    H20   S    
C29   C30   A    
S2    O30   S    
C28   C29   A    
Ba2   O5    S    
C12   O3    S    
C55   H5    S    
C46   P7    S    
C28   H42   S    
C1    H22   S    
C15   C16   A    
C5    O11   S    
C1    H16   S    
Ba1   P2    S    
C57   H9    S    
C2    O21   S    
Ba2   O12   S    
C56   H8    S    
C46   C47   A    
O1    P1    D    
C8    H31   S    
C11   C13   A    
Ba2   P4    S    
C39   C42   A    
C18   P8    S    
C55   O20   S    
C11   C14   A    
O13   P2    S    
C3    H17   S    
C1    C2    S    
C33   H38   S    
C39   C48   A    
O20   P1    S    
Ba1   O23   S    
C50   C51   A    
C46   C54   A    
O23   P3    S    
C38   C39   A    
O19   P6    D    
O27   H55   S    
C38   P5    S    
O7    P4    S    
Ba1   O13   S    
S2    O29   D    
C36   H39   S    
O4    P4    D    
O24   P3    D    
C7    H30   S    
C9    C10   A    
C42   H46   S    
O17   P8    S    
C6    H27   S    
C30   C31   A    
C11   H40   S    
C34   O7    S    
C10   H41   S    
C40   C52   A    
C27   S2    S    
C12   H43   S    
C36   C37   A    
O11   P5    S    
C7    O17   S    
C58   H14   S    
C31   C33   A    
C34   H54   S    
C6    H26   S    
C12   C23   S    
O21   P6    S    
C23   H51   S    
C57   H10   S    
C4    H19   S    
C43   C44   A    
C56   H7    S    
C18   C19   A    
C47   C48   A    
C40   C41   A    
C44   H49   S    
O9    P5    S    
O30   H56   S    
C23   H23   S    
O5    P4    S    
C58   H12   S    
C20   C21   A    
S2    O28   D    
Ba1   O1    S    
O2    P2    S    
C3    H18   S    
C25   C26   A    
Ba2   O14   S    
