data_mof_unit_63528.cif
_audit_creation_date              2012-10-26T20:49:18-0400
_audit_creation_method            fapswitch 2.2
_symmetry_space_group_name_H-M    P1
_symmetry_Int_Tables_number       1
_space_group_crystal_system       triclinic
_cell_length_a                    19.429417
_cell_length_b                    18.243096
_cell_length_c                    19.42719
_cell_angle_alpha                 89.948498
_cell_angle_beta                  93.492202
_cell_angle_gamma                 90.071104
_cell_volume                      6873.22603274

loop_
_atom_site_label
_atom_site_type_symbol
_atom_type_description
_atom_site_fract_x
_atom_site_fract_y
_atom_site_fract_z
_atom_type_partial_charge
C1    C     C_R   0.368074 0.500008 0.499921 0.545503
C2    C     C_R   0.963216 0.446133 0.461144 -0.110559
C3    C     C_R   0.073221 0.501835 0.496434 0.030912
C4    C     C_R   0.928380 0.501775 0.494746 0.031970
C5    C     C_R   0.453857 0.722450 0.457112 0.225403
C6    C     C_R   0.546593 0.277486 0.542421 0.209483
C7    C     C_R   0.546160 0.722439 0.542909 0.217837
C8    C     C_R   0.453496 0.277277 0.457664 0.218276
C9    C     C_R   0.453823 0.799501 0.456544 -0.139412
C10   C     C_R   0.547158 0.200437 0.542574 -0.151317
C11   C     C_R   0.546449 0.799479 0.543304 -0.141328
C12   C     C_R   0.632376 0.500061 0.499167 0.554937
C13   C     C_R   0.453334 0.200239 0.457326 -0.147972
C14   C     C_R   0.500211 0.839299 0.499878 -0.024311
C15   C     C_R   0.500355 0.160569 0.499888 -0.037107
C16   C     C_R   0.512281 0.961434 0.561605 -0.106732
C17   C     C_R   0.488460 0.038530 0.438144 -0.108257
C18   C     C_R   0.488401 0.961530 0.438136 -0.106863
C19   C     C_R   0.512354 0.038434 0.561601 -0.108316
C20   C     C_R   0.500431 0.078228 0.499874 0.036001
C21   C     C_R   0.500300 0.921697 0.499870 0.037104
C22   C     C_R   0.503020 0.500099 0.367398 0.589542
C23   C     C_R   0.852378 0.501247 0.494606 0.030546
C24   C     C_R   0.496724 0.500029 0.632565 0.594168
C25   C     C_R   0.517936 0.567542 0.255498 0.227965
C26   C     C_R   0.493517 0.433717 0.746187 0.217630
C27   C     C_R   0.480210 0.567211 0.744118 0.226314
C28   C     C_R   0.505673 0.433888 0.253840 0.215729
C29   C     C_R   0.517673 0.566225 0.182755 -0.136693
C30   C     C_R   0.496641 0.434956 0.818167 -0.122400
C31   C     C_R   0.479868 0.565936 0.816819 -0.136624
C32   C     C_R   0.502079 0.435027 0.181867 -0.123107
C33   C     C_R   0.507136 0.500896 0.145896 -0.052325
C34   C     C_R   0.149265 0.501673 0.497399 0.028920
C35   C     C_R   0.490754 0.500766 0.853911 -0.051902
C36   C     C_R   0.508469 0.500564 0.291244 0.037518
C37   C     C_R   0.490597 0.500362 0.708631 0.038024
C38   C     C_R   0.494415 0.501017 0.929950 0.355174
C39   C     C_R   0.503158 0.501077 0.069851 0.355018
C40   C     C_R   0.744946 0.434380 0.501112 -0.118208
C41   C     C_R   0.260665 0.523357 0.557535 -0.123157
C42   C     C_R   0.254495 0.478556 0.439880 -0.096905
C43   C     C_R   0.743553 0.566684 0.490266 -0.109181
C44   C     C_R   0.816554 0.434864 0.500591 -0.115286
C45   C     C_R   0.707867 0.500352 0.496971 0.024840
C46   C     C_R   0.188916 0.523495 0.556885 -0.113730
C47   C     C_R   0.182807 0.479606 0.438751 -0.107421
C48   C     C_R   0.815120 0.567104 0.488853 -0.114550
C49   C     C_3   0.513687 0.697030 0.263196 0.027904
C50   C     C_3   0.574897 0.738245 0.235382 -0.273785
C51   C     C_3   0.551987 0.810429 0.201591 -0.480646
C52   C     C_3   0.431622 0.330307 0.718942 0.019035
C53   C     C_3   0.425339 0.268063 0.666401 -0.237401
C54   C     C_3   0.359923 0.223182 0.673813 -0.486881
C55   C     C_3   0.483931 0.696638 0.735870 0.029682
C56   C     C_R   0.293378 0.500241 0.499258 0.041142
C57   C     C_3   0.422548 0.737829 0.763099 -0.274751
C58   C     C_3   0.445224 0.810365 0.796337 -0.480380
C59   C     C_3   0.569380 0.332194 0.282079 0.020140
C60   C     C_3   0.576648 0.270469 0.335178 -0.238593
C61   C     C_3   0.643296 0.227583 0.328867 -0.490823
C62   C     C_R   0.966670 0.557579 0.529030 -0.108023
C63   C     C_R   0.034927 0.445902 0.462360 -0.109977
C64   C     C_R   0.038372 0.557842 0.529525 -0.108761
Cu1   Cu    Cu3+1 0.500000 0.573360 0.500000 1.070742
Cu2   Cu    Cu3+1 0.500000 0.426640 0.500000 1.032726
H1    H     H_    0.526698 0.615749 0.154234 0.134089
H2    H     H_    0.164566 0.539751 0.603143 0.109205
H3    H     H_    0.153694 0.464114 0.391710 0.114958
H4    H     H_    0.841210 0.618953 0.482644 0.111092
H5    H     H_    0.941288 0.600657 0.556172 0.111196
H6    H     H_    0.060376 0.401466 0.437174 0.108452
H7    H     H_    0.066458 0.602224 0.555397 0.108796
H8    H     H_    0.935068 0.402943 0.433500 0.103878
H9    H     H_    0.416429 0.828159 0.422850 0.120284
H10   H     H_    0.584824 0.171800 0.575975 0.127076
H11   H     H_    0.583860 0.828112 0.577027 0.120111
H12   H     H_    0.503223 0.383679 0.845898 0.152959
H13   H     H_    0.415687 0.171441 0.424003 0.128196
H14   H     H_    0.520465 0.932985 0.610343 0.102042
H15   H     H_    0.480226 0.067039 0.389440 0.104865
H16   H     H_    0.480146 0.933154 0.389404 0.101635
H17   H     H_    0.520594 0.066860 0.610310 0.104954
H18   H     H_    0.493402 0.731486 0.304385 0.172145
H19   H     H_    0.470088 0.690978 0.223611 0.131129
H20   H     H_    0.613403 0.749933 0.278681 0.177664
H21   H     H_    0.600514 0.704209 0.197159 0.166115
H22   H     H_    0.597444 0.839338 0.182576 0.154736
H23   H     H_    0.470155 0.615375 0.845093 0.133931
H24   H     H_    0.527712 0.846213 0.239486 0.147078
H25   H     H_    0.514514 0.799971 0.157187 0.156992
H26   H     H_    0.386832 0.367932 0.708709 0.118680
H27   H     H_    0.429693 0.306751 0.771655 0.131621
H28   H     H_    0.423887 0.291624 0.613642 0.196693
H29   H     H_    0.470870 0.231383 0.673465 0.183048
H30   H     H_    0.360396 0.197847 0.725853 0.150043
H31   H     H_    0.357032 0.178900 0.634545 0.157695
H32   H     H_    0.313630 0.258556 0.665757 0.155001
H33   H     H_    0.504445 0.730926 0.694589 0.174112
H34   H     H_    0.495895 0.383620 0.154338 0.153357
H35   H     H_    0.527295 0.690909 0.775761 0.132410
H36   H     H_    0.384165 0.749028 0.719577 0.179037
H37   H     H_    0.396862 0.703983 0.801523 0.164631
H38   H     H_    0.399645 0.839235 0.814949 0.154703
H39   H     H_    0.469565 0.845956 0.758222 0.147513
H40   H     H_    0.482577 0.800404 0.840942 0.156918
H41   H     H_    0.613282 0.371067 0.292364 0.119768
H42   H     H_    0.572257 0.308441 0.229584 0.131990
H43   H     H_    0.576975 0.294382 0.387701 0.194338
H44   H     H_    0.532093 0.232382 0.327974 0.182847
H45   H     H_    0.718835 0.382301 0.505198 0.150722
H46   H     H_    0.644085 0.202034 0.277045 0.151389
H47   H     H_    0.646831 0.183574 0.368458 0.156079
H48   H     H_    0.688616 0.264402 0.337224 0.149459
H49   H     H_    0.290677 0.540302 0.603645 0.115322
H50   H     H_    0.279596 0.462161 0.394093 0.146875
H51   H     H_    0.716245 0.618329 0.485714 0.154328
H52   H     H_    0.843880 0.383287 0.505874 0.112077
I1    I     I_    0.377558 0.674171 0.388217 -0.363909
I2    I     I_    0.620796 0.325154 0.613603 -0.315567
I3    I     I_    0.621722 0.674191 0.612551 -0.378673
I4    I     I_    0.378330 0.324614 0.387530 -0.327287
N1    N     N_R   0.501075 0.437082 0.034249 -0.230852
N2    N     N_R   0.496414 0.565063 0.965526 -0.233249
N3    N     N_R   0.496922 0.437055 0.965707 -0.230884
N4    N     N_R   0.500662 0.565090 0.034118 -0.233489
N5    N     N_R   0.500000 0.683620 0.500000 -0.199692
N6    N     N_R   0.500000 0.316380 0.500000 -0.232004
O1    O     O_R   0.400190 0.561980 0.499990 -0.476842
O2    O     O_3   0.495143 0.366964 0.712594 -0.522662
O3    O     O_3   0.461575 0.629501 0.705452 -0.544725
O4    O     O_3   0.504963 0.367109 0.287578 -0.524363
O5    O     O_R   0.599810 0.438020 0.500010 -0.501163
O6    O     O_R   0.599810 0.561980 0.500010 -0.487384
O7    O     O_R   0.400190 0.438020 0.499990 -0.494453
O8    O     O_R   0.499990 0.561970 0.400150 -0.442269
O9    O     O_R   0.500010 0.438030 0.599850 -0.447383
O10   O     O_R   0.500010 0.561970 0.599850 -0.439598
O11   O     O_R   0.499990 0.438030 0.400150 -0.451103
O12   O     O_3   0.536194 0.630100 0.293921 -0.543187

loop_
_geom_bond_atom_site_label_1
_geom_bond_atom_site_label_2
_ccdc_geom_bond_type
C13   H13   S    
C16   C21   A    
C29   C33   A    
C53   H29   S    
C18   C21   A    
C27   O3    S    
C19   C20   A    
C7    N5    A    
C3    C64   A    
C52   C53   S    
C5    C9    A    
C57   H36   S    
C8    C13   A    
C30   C35   A    
C5    I1    S    
Cu1   N5    S    
C14   C21   S    
C1    C56   S    
C41   H49   S    
C1    O1    A    
C10   C15   A    
C51   H24   S    
C11   C14   A    
N1    N3    A    
C4    C62   A    
C17   C20   A    
C39   N1    A    
C49   C50   S    
C47   H3    S    
C62   C64   A    
C60   H43   S    
C11   H11   S    
C42   C56   A    
C29   H1    S    
C10   H10   S    
C8    N6    A    
Cu2   O11   S    
C31   H23   S    
C41   C46   A    
C54   H31   S    
C34   C46   A    
C43   C48   A    
C54   H30   S    
Cu1   O6    S    
C2    H8    S    
C51   H25   S    
C59   C60   S    
C39   N4    A    
C12   O6    A    
C15   C20   S    
C7    I3    S    
C19   H17   S    
C6    I2    S    
C7    C11   A    
C40   H45   S    
C25   C29   A    
C40   C45   A    
C57   H37   S    
C59   O4    S    
C27   C31   A    
C49   H19   S    
C28   C32   A    
C25   O12   S    
C24   C37   S    
C4    C23   S    
C3    C34   S    
C24   O10   A    
C53   C54   S    
C22   O11   A    
C16   H14   S    
C59   H41   S    
C23   C44   A    
C32   H34   S    
C22   O8    A    
C60   C61   S    
C28   O4    S    
C2    C4    A    
C9    C14   A    
C41   C56   A    
C46   H2    S    
Cu2   O5    S    
C44   H52   S    
C64   H7    S    
C5    N5    A    
C17   C18   A    
C52   H27   S    
C50   C51   S    
C33   C39   S    
C43   C45   A    
C50   H21   S    
C43   H51   S    
Cu1   O10   S    
C42   H50   S    
C26   C30   A    
C55   O3    S    
C12   O5    A    
C55   C57   S    
C61   H47   S    
C31   C35   A    
C52   H26   S    
C58   H38   S    
C38   N3    A    
C2    C63   A    
C49   H18   S    
N2    N4    A    
C23   C48   A    
C53   H28   S    
C48   H4    S    
C12   C45   S    
C26   O2    S    
C51   H22   S    
C6    C10   A    
Cu1   O1    S    
C26   C37   A    
C3    C63   A    
C24   O9    A    
C22   C36   S    
C55   H35   S    
C59   H42   S    
C58   H39   S    
C52   O2    S    
C32   C33   A    
C13   C15   A    
C6    N6    A    
C8    I4    S    
C57   C58   S    
Cu2   O9    S    
C27   C37   A    
C16   C19   A    
C18   H16   S    
Cu2   N6    S    
C62   H5    S    
C17   H15   S    
C42   C47   A    
Cu1   O8    S    
C60   H44   S    
C50   H20   S    
C25   C36   A    
Cu2   O7    S    
C30   H12   S    
C40   C44   A    
C63   H6    S    
C28   C36   A    
Cu1   Cu2   S    
C49   O12   S    
C55   H33   S    
C61   H48   S    
C35   C38   S    
C54   H32   S    
C34   C47   A    
C9    H9    S    
C58   H40   S    
C1    O7    A    
C61   H46   S    
C38   N2    A    
