data_mof_unit_37453.cif
_audit_creation_date              2012-12-10T17:43:33-0500
_audit_creation_method            fapswitch 2.2
_symmetry_space_group_name_H-M    P1
_symmetry_Int_Tables_number       1
_space_group_crystal_system       triclinic
_cell_length_a                    14.879147
_cell_length_b                    10.674939
_cell_length_c                    10.0
_cell_angle_alpha                 90.555542
_cell_angle_beta                  89.662048
_cell_angle_gamma                 93.073361
_cell_volume                      1585.95780308

loop_
_atom_site_label
_atom_site_type_symbol
_atom_type_description
_atom_site_fract_x
_atom_site_fract_y
_atom_site_fract_z
_atom_type_partial_charge
C1    C     C_R   0.506182 0.261274 0.499683 0.913621
C2    C     C_R   0.911738 0.616784 0.471850 0.045676
C3    C     C_R   0.944685 0.277615 0.545517 0.398784
C4    C     C_R   0.038104 0.278368 0.546669 -0.239101
C5    C     C_R   0.089327 0.389513 0.523575 0.026728
C6    C     C_R   0.047304 0.502260 0.497936 0.079963
C7    C     C_R   0.099377 0.614226 0.472828 0.146305
C8    C     C_R   0.057984 0.725729 0.447558 -0.217833
C9    C     C_R   0.964840 0.727240 0.447190 -0.109952
C10   C     C_R   0.182386 0.389886 0.525046 -0.173215
C11   C     C_R   0.232442 0.501006 0.500587 -0.053488
C12   C     C_R   0.327523 0.500212 0.500319 0.941211
C13   C     C_R   0.192359 0.612527 0.473602 -0.269641
C14   C     C_R   0.632746 0.141935 0.678429 -0.153802
C15   C     C_R   0.687897 0.081792 0.766697 -0.053636
C16   C     C_R   0.687450 0.951692 0.767857 -0.068075
C17   C     C_R   0.631597 0.881136 0.681048 -0.109316
C18   C     C_R   0.573296 0.940194 0.592656 0.120987
C19   C     C_R   0.573901 0.072107 0.591319 0.098221
C20   C     C_R   0.517487 0.129378 0.498894 -0.101293
C21   C     C_R   0.468616 0.059213 0.403693 -0.144162
C22   C     C_R   0.466929 0.931963 0.405918 -0.195385
C23   C     C_R   0.506078 0.739305 0.500772 0.882441
C24   C     C_R   0.516078 0.872339 0.501690 -0.068977
C25   C     C_R   0.342960 0.410661 0.134769 0.464030
C26   C     C_R   0.262124 0.418166 0.066320 -0.262479
C27   C     C_R   0.263584 0.413354 0.927989 -0.273813
C28   C     C_R   0.345940 0.404076 0.863015 0.462986
C29   C     C_R   0.425452 0.450462 0.927910 0.036226
C30   C     C_R   0.424826 0.451744 0.071615 -0.032215
C31   C     C_R   0.569750 0.552376 0.069677 0.430014
C32   C     C_R   0.570007 0.550392 0.927701 -0.163190
C33   C     C_R   0.672644 0.501653 0.499573 0.917121
C34   C     C_R   0.817885 0.616798 0.472043 0.342734
C35   C     C_R   0.768291 0.504628 0.498256 -0.132464
C36   C     C_R   0.808923 0.392954 0.522154 -0.264073
C37   C     C_R   0.901946 0.390117 0.521880 0.038603
C38   C     C_R   0.953584 0.503046 0.497271 -0.047869
H1    H     H_    0.732613 0.136497 0.832409 0.164534
H2    H     H_    0.731774 0.905207 0.834548 0.166483
H3    H     H_    0.626692 0.593422 0.873785 0.172478
H4    H     H_    0.070733 0.191871 0.565414 0.193361
H5    H     H_    0.097680 0.811881 0.428347 0.167519
H6    H     H_    0.935312 0.815572 0.427548 0.229427
H7    H     H_    0.428577 0.101823 0.329518 0.229829
N1    N     N_R   0.499150 0.498800 0.142780 -0.140864
N2    N     N_R   0.499120 0.498720 0.857170 -0.130241
O1    O     O_R   0.500000 0.316780 0.614690 -0.572378
O2    O     O_R   0.499990 0.316750 0.385360 -0.577138
O3    O     O_R   0.367850 0.499980 0.614680 -0.602025
O4    O     O_R   0.367840 0.499960 0.385350 -0.601417
O5    O     O_R   0.500010 0.683250 0.614640 -0.643119
O6    O     O_R   0.500000 0.683220 0.385310 -0.582311
O7    O     O_R   0.632160 0.500040 0.614650 -0.656671
O8    O     O_R   0.632150 0.500020 0.385320 -0.539998
Zn1   Zn    Zn3+2 0.500010 0.500020 0.653130 0.985809
Zn2   Zn    Zn3+2 0.499990 0.499980 0.346870 1.055884
Cl1   Cl    Cl    0.761445 0.755741 0.441398 -0.575246
H8    H     H_    0.639168 0.243018 0.677514 0.153140
H9    H     H_    0.637355 0.780818 0.681904 0.170380
H10   H     H_    0.424651 0.879765 0.334384 0.170351
Cl2   Cl    Cl    0.659434 0.636335 0.147697 -0.528311
Cl3   Cl    Cl    0.337779 0.283333 0.243615 -0.632256
H11   H     H_    0.198722 0.396183 0.116979 0.204891
H12   H     H_    0.201511 0.387370 0.876123 0.200333
Cl4   Cl    Cl    0.346305 0.271681 0.757791 -0.597550
H13   H     H_    0.766990 0.308700 0.539776 0.188840
Cl5   Cl    Cl    0.884560 0.133154 0.573376 -0.618296
H14   H     H_    0.216016 0.304071 0.543312 0.195289
H15   H     H_    0.233707 0.697378 0.454176 0.137604

loop_
_geom_bond_atom_site_label_1
_geom_bond_atom_site_label_2
_ccdc_geom_bond_type
C33   O8    A    
C12   O3    A    
C23   C24   S    
C6    C38   A    
C1    O1    A    
C29   C30   A    
C27   H12   S    
O7    Zn1   S    
C2    C38   A    
C28   Cl4   S    
C19   C20   A    
C8    H5    S    
C1    C20   S    
C32   H3    S    
C2    C34   A    
C17   C18   A    
C23   O5    A    
C36   H13   S    
C5    C10   A    
C21   C22   A    
C22   H10   S    
C14   H8    S    
C11   C13   A    
C31   Cl2   S    
C15   H1    S    
C26   C27   A    
C37   C38   A    
C4    H4    S    
C33   O7    A    
C16   H2    S    
C18   C24   A    
C16   C17   A    
C13   H15   S    
C36   C37   A    
C33   C35   S    
C29   N2    A    
C23   O6    A    
C6    C7    A    
C21   H7    S    
O8    Zn2   S    
N1    Zn2   S    
C5    C6    A    
C32   N2    A    
C22   C24   A    
C7    C8    A    
C10   C11   A    
C17   H9    S    
C15   C16   A    
C28   C29   A    
C10   H14   S    
O5    Zn1   S    
O4    Zn2   S    
C7    C13   A    
C12   O4    A    
O2    Zn2   S    
C20   C21   A    
C3    C37   A    
C8    C9    A    
O1    Zn1   S    
C34   C35   A    
C25   Cl3   S    
C25   C30   A    
C34   Cl1   S    
C18   C19   A    
O6    Zn2   S    
C14   C15   A    
N2    Zn1   S    
C9    H6    S    
C26   H11   S    
C25   C26   A    
C2    C9    A    
C1    O2    A    
C14   C19   A    
C30   N1    A    
C31   C32   A    
O3    Zn1   S    
C3    C4    A    
C3    Cl5   S    
C11   C12   S    
C31   N1    A    
C4    C5    A    
C27   C28   A    
C35   C36   A    
