data_mof_unit_54678.cif
_audit_creation_date              2012-12-10T17:53:08-0500
_audit_creation_method            fapswitch 2.2
_symmetry_space_group_name_H-M    P1
_symmetry_Int_Tables_number       1
_space_group_crystal_system       triclinic
_cell_length_a                    14.666981
_cell_length_b                    14.672609
_cell_length_c                    27.774123
_cell_angle_alpha                 77.256392
_cell_angle_beta                  102.598487
_cell_angle_gamma                 114.556129
_cell_volume                      5248.41998872

loop_
_atom_site_label
_atom_site_type_symbol
_atom_type_description
_atom_site_fract_x
_atom_site_fract_y
_atom_site_fract_z
_atom_type_partial_charge
C1    C     C_R   0.880422 0.312315 0.508210 0.793993
C2    C     C_R   0.119609 0.687739 0.491516 0.791992
C3    C     C_R   0.011682 0.494511 0.900150 -0.050822
C4    C     C_R   0.021794 0.492719 0.104737 -0.050730
C5    C     C_R   0.982972 0.402830 0.881838 -0.013890
C6    C     C_R   0.082501 0.580758 0.126580 -0.012405
C7    C     C_R   0.958278 0.311902 0.914794 -0.174365
C8    C     C_R   0.141755 0.667198 0.097537 -0.174417
C9    C     C_R   0.037560 0.585997 0.867124 -0.071620
C10   C     C_R   0.963258 0.405476 0.134094 -0.071708
C11   C     C_R   0.995723 0.495951 0.645260 -0.119088
C12   C     C_R   0.005198 0.503417 0.354455 -0.125053
C13   C     C_R   0.965808 0.400901 0.032848 -0.018194
C14   C     C_R   0.053311 0.587662 0.970485 -0.018810
C15   C     C_R   0.068869 0.584467 0.023077 0.067358
C16   C     C_R   0.976903 0.400869 0.983224 0.067401
C17   C     C_R   0.018867 0.492511 0.053441 0.019585
C18   C     C_R   0.013984 0.494468 0.951412 0.019948
C19   C     C_R   0.902840 0.314373 0.062466 0.230097
C20   C     C_R   0.073542 0.679414 0.936113 0.229062
C21   C     C_R   0.902319 0.318402 0.112367 -0.192723
C22   C     C_R   0.064842 0.676874 0.885112 -0.191516
C23   C     C_R   0.998212 0.498317 0.592403 0.829718
C24   C     C_R   0.001708 0.501801 0.407404 0.827429
C25   C     C_R   0.955832 0.311003 0.964649 -0.171013
C26   C     C_R   0.135436 0.668850 0.046719 -0.171205
C27   C     C_R   0.813045 0.204969 0.510946 -0.050903
C28   C     C_R   0.187072 0.795251 0.485551 -0.054326
C29   C     C_R   0.784114 0.028755 0.516019 -0.199177
C30   C     C_R   0.215542 0.973074 0.466921 -0.196600
C31   C     C_R   0.850769 0.129305 0.516671 -0.190906
C32   C     C_R   0.149049 0.871859 0.471696 -0.193323
C33   C     C_R   0.708590 0.179070 0.505298 -0.256880
C34   C     C_R   0.291706 0.820787 0.493762 -0.252589
C35   C     C_R   0.639587 0.079161 0.501840 0.092777
C36   C     C_R   0.360324 0.921990 0.487327 0.091533
C37   C     C_R   0.679132 0.003197 0.508555 0.172423
C38   C     C_R   0.320595 0.998670 0.474963 0.164601
C39   C     C_R   0.532859 0.052796 0.492115 0.063036
C40   C     C_R   0.466984 0.948867 0.493752 0.073985
C41   C     C_R   0.509821 0.875543 0.500515 -0.231242
C42   C     C_R   0.489896 0.126951 0.479340 -0.225622
C43   C     C_R   0.613747 0.902587 0.507437 -0.246727
C44   C     C_R   0.385885 0.100082 0.470687 -0.231502
C45   C     C_R   0.981257 0.404570 0.830939 0.581854
C46   C     C_R   0.082634 0.580052 0.177177 0.582136
C47   C     C_R   0.725302 0.680630 0.421542 0.157651
C48   C     C_R   0.278919 0.322962 0.578750 0.145604
C49   C     C_R   0.803270 0.645177 0.434130 0.021427
C50   C     C_R   0.200879 0.358603 0.568073 -0.007121
C51   C     C_R   0.710555 0.506155 0.489159 -0.004800
C52   C     C_R   0.285758 0.490927 0.507799 0.007796
C53   C     C_R   0.625861 0.534893 0.477582 -0.085265
C54   C     C_R   0.369255 0.460816 0.516957 -0.093249
C55   C     C_R   0.634360 0.625920 0.443635 0.044970
C56   C     C_R   0.361847 0.370584 0.550890 0.045058
C57   C     C_R   0.535324 0.477673 0.500254 0.044768
C58   C     C_R   0.457676 0.515775 0.492561 0.055565
C59   C     C_R   0.470795 0.607999 0.460808 -0.279010
C60   C     C_R   0.519036 0.381881 0.529255 -0.278174
C61   C     C_R   0.553915 0.660103 0.434988 0.251566
C62   C     C_R   0.435114 0.328864 0.554819 0.262259
C63   C     C_R   0.032321 0.584155 0.816238 0.538001
C64   C     C_R   0.963531 0.408778 0.184290 0.538630
C65   C     C_R   0.089704 0.538538 0.725947 -0.166204
C66   C     C_R   0.054063 0.440776 0.294256 -0.168183
C67   C     C_R   0.087656 0.539340 0.675623 -0.267421
C68   C     C_R   0.048524 0.442659 0.343311 -0.271208
C69   C     C_R   0.904290 0.448586 0.666321 0.155041
C70   C     C_R   0.968541 0.565090 0.314899 0.156562
C71   C     C_R   0.906577 0.449479 0.717250 0.281663
C72   C     C_R   0.972820 0.561361 0.265166 0.274867
C73   C     C_R   0.999922 0.494411 0.746972 0.280157
C74   C     C_R   0.016158 0.499266 0.255099 0.282682
Cu1   Cu    Cu3+1 0.081740 0.475690 0.513040 0.933095
Cu2   Cu    Cu3+1 0.918260 0.524310 0.486960 0.931180
H1    H     H_    0.317912 0.759998 0.506401 0.151348
H2    H     H_    0.683063 0.238506 0.504207 0.141753
H3    H     H_    0.068247 0.853680 0.465073 0.149546
H4    H     H_    0.931461 0.147839 0.521224 0.151791
H5    H     H_    0.814592 0.971027 0.520684 0.133064
H6    H     H_    0.184850 0.031465 0.456948 0.131980
H7    H     H_    0.465313 0.796341 0.499004 0.138855
H8    H     H_    0.534346 0.207124 0.474146 0.145326
H9    H     H_    0.280906 0.552592 0.479586 0.134670
H10   H     H_    0.712826 0.443007 0.516992 0.128644
H11   H     H_    0.135933 0.320963 0.587854 0.133269
H12   H     H_    0.872483 0.687176 0.417948 0.150491
H13   H     H_    0.416646 0.642705 0.454537 0.131424
H14   H     H_    0.568855 0.344122 0.530803 0.142260
H15   H     H_    0.940287 0.240773 0.902186 0.184782
H16   H     H_    0.192636 0.734464 0.113837 0.184612
H17   H     H_    0.077632 0.395455 0.372737 0.177920
H18   H     H_    0.158267 0.574700 0.660195 0.173022
H19   H     H_    0.087775 0.393337 0.286548 0.164164
H20   H     H_    0.161511 0.572349 0.748852 0.164093
H21   H     H_    0.851894 0.253424 0.133972 0.194225
H22   H     H_    0.077758 0.746523 0.859240 0.194665
H23   H     H_    0.941905 0.239432 0.988584 0.186993
H24   H     H_    0.186780 0.735734 0.026950 0.186303
H25   H     H_    0.643105 0.844005 0.511958 0.146112
H26   H     H_    0.356383 0.159404 0.460866 0.144802
N1    N     N_R   0.004332 0.494275 0.799174 -0.445270
N2    N     N_R   0.021793 0.495613 0.204597 -0.445012
N3    N     N_R   0.795430 0.560780 0.467350 -0.199744
N4    N     N_R   0.204570 0.439220 0.532650 -0.191360
O1    O     O_R   0.977900 0.338120 0.517190 -0.590489
O2    O     O_R   0.022100 0.661880 0.482810 -0.592551
O3    O     O_R   0.839850 0.379180 0.495160 -0.584492
O4    O     O_R   0.160150 0.620820 0.504840 -0.589487
O5    O     O_R   0.069030 0.479490 0.580750 -0.578584
O6    O     O_R   0.930970 0.520510 0.419250 -0.580306
O7    O     O_R   0.930970 0.520550 0.558720 -0.580231
O8    O     O_R   0.069030 0.479450 0.441280 -0.583217
O9    O     O_2   0.956898 0.317458 0.813308 -0.546187
O10   O     O_2   0.142348 0.663254 0.198754 -0.548654
O11   O     O_2   0.904812 0.326476 0.212378 -0.551953
O12   O     O_2   0.054305 0.671361 0.783964 -0.551524
N5    N     N_2   0.810293 0.397388 0.637549 -0.448861
H27   H     H_    0.790865 0.440561 0.605682 0.270197
C75   C     C_3   0.795399 0.297235 0.630272 -0.693182
H28   H     H_    0.855107 0.300928 0.610428 0.217042
H29   H     H_    0.720923 0.263004 0.607532 0.217967
H30   H     H_    0.796987 0.247932 0.666815 0.244426
N6    N     N_2   0.927953 0.631772 0.323780 -0.439858
H31   H     H_    0.866589 0.598187 0.342913 0.275690
C76   C     C_3   0.002422 0.726235 0.339047 -0.679561
H32   H     H_    0.044355 0.712556 0.376505 0.222213
H33   H     H_    0.963863 0.776334 0.340614 0.228489
H34   H     H_    0.056889 0.765544 0.311735 0.238664
N7    N     N_2   0.555559 0.748999 0.401349 -0.437333
H35   H     H_    0.545781 0.800568 0.417527 0.260923
C77   C     C_3   0.488457 0.729528 0.354800 -0.689767
H36   H     H_    0.500992 0.802001 0.329150 0.237586
H37   H     H_    0.408069 0.694856 0.361305 0.230570
H38   H     H_    0.504070 0.678088 0.336713 0.232985
N8    N     N_2   0.418197 0.228483 0.580148 -0.390988
H39   H     H_    0.361208 0.171843 0.562139 0.263063
C78   C     C_3   0.503784 0.204390 0.606615 -0.676451
H40   H     H_    0.477059 0.136235 0.634860 0.240000
H41   H     H_    0.559825 0.267948 0.626278 0.240185
H42   H     H_    0.539676 0.187281 0.580325 0.212812
N9    N     N_2   0.743515 0.772251 0.387553 -0.434290
H43   H     H_    0.689504 0.772829 0.356998 0.291563
C79   C     C_3   0.793746 0.864244 0.409884 -0.655150
H44   H     H_    0.808578 0.930937 0.380135 0.231700
H45   H     H_    0.867412 0.866793 0.432079 0.213183
H46   H     H_    0.745788 0.868583 0.434511 0.233361
N10   N     N_2   0.273761 0.241191 0.618219 -0.415335
H47   H     H_    0.200993 0.190632 0.622776 0.241041
C80   C     C_3   0.333624 0.272412 0.664907 -0.621464
H48   H     H_    0.330728 0.204396 0.692693 0.226630
H49   H     H_    0.303157 0.317292 0.679410 0.208151
H50   H     H_    0.414027 0.318640 0.659937 0.243967
N11   N     N_2   0.815460 0.405089 0.738985 -0.404483
H51   H     H_    0.762296 0.340752 0.725216 0.280664
C81   C     C_3   0.772139 0.476203 0.741087 -0.675723
H52   H     H_    0.704699 0.436554 0.760762 0.226105
H53   H     H_    0.748447 0.508885 0.702762 0.227129
H54   H     H_    0.827651 0.538133 0.761857 0.247991
N12   N     N_2   0.933536 0.619938 0.224845 -0.406675
H55   H     H_    0.944997 0.690415 0.231721 0.283602
C82   C     C_3   0.830433 0.565819 0.203379 -0.669942
H56   H     H_    0.807818 0.614994 0.170712 0.227020
H57   H     H_    0.778327 0.544541 0.231284 0.228411
H58   H     H_    0.823585 0.496506 0.190494 0.245358
N13   N     N_2   0.828087 0.229814 0.040397 -0.441761
H59   H     H_    0.756983 0.232105 0.032588 0.262057
C83   C     C_3   0.827451 0.131085 0.063910 -0.717793
H60   H     H_    0.780766 0.074759 0.038357 0.236424
H61   H     H_    0.794015 0.106855 0.099090 0.228447
H62   H     H_    0.905538 0.132296 0.071761 0.238068
N14   N     N_2   0.086279 0.771097 0.951297 -0.441301
H63   H     H_    0.020520 0.784377 0.944063 0.262916
C84   C     C_3   0.173880 0.859952 0.937529 -0.716176
H64   H     H_    0.186651 0.919880 0.959534 0.237055
H65   H     H_    0.161503 0.889840 0.897351 0.229212
H66   H     H_    0.242653 0.841857 0.945770 0.236696

loop_
_geom_bond_atom_site_label_1
_geom_bond_atom_site_label_2
_ccdc_geom_bond_type
C66   C68   A    
Cu1   O1    S    
C81   H52   S    
C22   H22   S    
N11   C81   S    
C8    C26   A    
C83   H60   S    
C14   C18   A    
C82   H56   S    
C24   O6    A    
C48   C56   A    
C76   H33   S    
C79   H44   S    
C31   H4    S    
C84   H65   S    
N14   H63   S    
C27   C33   A    
C24   O8    A    
C12   C68   A    
Cu2   N3    S    
C42   C44   A    
C74   N2    S    
C52   H9    S    
C82   H57   S    
N10   C80   S    
C34   H1    S    
C54   C58   A    
C78   H42   S    
C9    C22   A    
N9    H43   S    
C41   H7    S    
C47   N9    S    
C65   C73   A    
C30   C38   A    
C3    C18   A    
C60   C62   A    
C59   H13   S    
C80   H50   S    
C11   C23   S    
C46   O10   S    
C69   C71   A    
C75   H30   S    
C45   N1    A    
C1    O3    A    
C25   H23   S    
C65   H20   S    
C20   N14   S    
C11   C67   A    
Cu2   O3    S    
C65   C67   A    
C77   H38   S    
C72   N12   S    
C8    H16   S    
C39   C42   A    
C63   N1    A    
C51   N3    A    
C1    C27   S    
N14   C84   S    
C80   H48   S    
C28   C34   A    
Cu2   O2    S    
C48   N10   S    
C77   H37   S    
C41   C43   A    
C49   H12   S    
C19   N13   S    
C51   H10   S    
N12   C82   S    
C52   C54   A    
N12   H55   S    
C84   H66   S    
C5    C7    A    
C53   C55   A    
C10   C21   A    
C78   H40   S    
C54   C56   A    
C59   C61   A    
C70   C72   A    
C13   C19   A    
C27   C31   A    
C14   C20   A    
C28   C32   A    
C82   H58   S    
C42   H8    S    
C72   C74   A    
C39   C40   A    
C71   C73   A    
C63   O12   S    
C53   C57   A    
C57   C60   A    
C6    C8    A    
N7    C77   S    
C58   C59   A    
C5    C45   A    
C69   N5    S    
C64   O11   S    
N13   C83   S    
C51   C53   A    
C30   H6    S    
C35   C39   A    
Cu1   Cu2   S    
C43   H25   S    
C38   C44   A    
C3    C9    A    
C23   O7    A    
C21   H21   S    
C45   O9    S    
C84   H64   S    
C36   C40   A    
Cu2   O6    S    
C71   N11   S    
Cu2   O7    S    
Cu1   O8    S    
N6    C76   S    
C48   C50   A    
N8    C78   S    
C75   H28   S    
N5    C75   S    
C50   H11   S    
C1    O1    A    
C4    C17   A    
C70   N6    S    
C4    C6    A    
C40   C41   A    
C20   C22   A    
C29   H5    S    
C81   H54   S    
C77   H36   S    
C83   H62   S    
C56   C62   A    
C37   C43   A    
C4    C10   A    
C76   H32   S    
C3    C5    A    
C7    H15   S    
N13   H59   S    
C79   H46   S    
C47   C55   A    
C83   H61   S    
C16   C25   A    
N9    C79   S    
C12   C70   A    
C2    O4    A    
Cu1   O4    S    
C44   H26   S    
C6    C46   A    
C35   C37   A    
C9    C63   A    
Cu1   O5    S    
C16   C18   A    
C64   N2    A    
C15   C26   A    
C49   N3    A    
N5    H27   S    
C11   C69   A    
C15   C17   A    
C60   H14   S    
C47   C49   A    
C23   O5    A    
N8    H39   S    
C12   C24   S    
C10   C64   A    
C68   H17   S    
C7    C25   A    
C13   C17   A    
C36   C38   A    
C76   H34   S    
C29   C31   A    
N10   H47   S    
C32   H3    S    
C30   C32   A    
C78   H41   S    
C57   C58   A    
N6    H31   S    
C46   N2    A    
C79   H45   S    
C55   C61   A    
C2    O2    A    
C33   C35   A    
C34   C36   A    
C80   H49   S    
C62   N8    S    
C67   H18   S    
C33   H2    S    
C75   H29   S    
C61   N7    S    
C52   N4    A    
C73   N1    S    
Cu1   N4    S    
C81   H53   S    
C13   C16   A    
C29   C37   A    
N11   H51   S    
C50   N4    A    
C14   C15   A    
C2    C28   S    
N7    H35   S    
C26   H24   S    
C66   H19   S    
C19   C21   A    
C66   C74   A    
