data_mof_unit_58808.cif
_audit_creation_date              2012-12-10T18:58:45-0500
_audit_creation_method            fapswitch 2.2
_symmetry_space_group_name_H-M    P1
_symmetry_Int_Tables_number       1
_space_group_crystal_system       triclinic
_cell_length_a                    13.087282
_cell_length_b                    10.776083
_cell_length_c                    9.57079
_cell_angle_alpha                 91.368554
_cell_angle_beta                  96.161666
_cell_angle_gamma                 92.187596
_cell_volume                      1340.45748661

loop_
_atom_site_label
_atom_site_type_symbol
_atom_type_description
_atom_site_fract_x
_atom_site_fract_y
_atom_site_fract_z
_atom_type_partial_charge
C1    C     C_R   0.497143 0.262407 0.497914 0.845466
C2    C     C_R   0.026641 0.496637 0.567807 0.017441
C3    C     C_R   0.970785 0.500884 0.433249 0.018076
C4    C     C_R   0.863504 0.497934 0.422879 -0.300976
C5    C     C_R   0.866942 0.471957 0.674222 0.505859
C6    C     C_R   0.973602 0.481088 0.686828 -0.253833
C7    C     C_R   0.409051 0.057329 0.510049 -0.059241
C8    C     C_R   0.497748 0.128752 0.491649 -0.208674
C9    C     C_R   0.584996 0.069183 0.452039 0.494833
C10   C     C_R   0.586608 0.938001 0.458710 -0.324103
C11   C     C_R   0.502761 0.870304 0.502912 -0.122913
C12   C     C_R   0.300562 0.504855 0.473996 0.828526
C13   C     C_R   0.413508 0.931119 0.520942 -0.007352
C14   C     C_3   0.337933 0.925216 0.627863 -0.058542
C15   C     C_3   0.329171 0.065173 0.611416 0.345654
C16   C     C_R   0.512790 0.608559 0.077532 0.118157
C17   C     C_R   0.470094 0.395459 0.066932 0.563212
C18   C     C_R   0.469968 0.396952 0.917340 -0.182842
C19   C     C_R   0.512497 0.608383 0.931253 0.170972
C20   C     C_3   0.595871 0.707999 0.937263 -0.078258
C21   C     C_3   0.596077 0.709831 0.098006 -0.118393
C22   C     C_R   0.501769 0.737303 0.501677 0.819987
C23   C     C_R   0.699007 0.495769 0.526400 0.840595
C24   C     C_R   0.811176 0.488616 0.542366 -0.135797
C25   C     C_R   0.187061 0.508445 0.459652 -0.233617
C26   C     C_R   0.023098 0.510105 0.312162 0.066272
C27   C     C_R   0.130524 0.507811 0.324774 0.442495
C28   C     C_R   0.134339 0.507632 0.581632 0.043177
Cu1   Cu    Cu3+1 0.499990 0.499980 0.640670 0.967120
Cu2   Cu    Cu3+1 0.500010 0.500020 0.359330 1.000197
H1    H     H_    0.819928 0.502908 0.321420 0.170430
H2    H     H_    0.353589 0.121788 0.709282 0.079133
H3    H     H_    0.443719 0.315541 0.854022 0.149116
H4    H     H_    0.569910 0.795286 0.888764 0.134113
H5    H     H_    0.568724 0.798417 0.139989 0.149600
H6    H     H_    0.013399 0.473828 0.791154 0.162081
H7    H     H_    0.654023 0.889092 0.436613 0.140977
H8    H     H_    0.266631 0.868623 0.591734 0.190836
N1    N     N_R   0.500660 0.500930 0.148010 -0.222280
N2    N     N_R   0.500660 0.500890 0.852110 -0.190462
O1    O     O_R   0.500000 0.319640 0.618810 -0.619972
O2    O     O_R   0.500010 0.319680 0.381230 -0.501162
O3    O     O_R   0.348990 0.499960 0.599490 -0.559326
O4    O     O_R   0.349000 0.500000 0.361910 -0.529470
O5    O     O_R   0.499990 0.680320 0.618770 -0.583882
O6    O     O_R   0.500000 0.680360 0.381190 -0.586272
O7    O     O_R   0.651000 0.500000 0.638090 -0.512554
O8    O     O_R   0.651010 0.500040 0.400510 -0.612032
N3    N     N_3   0.382704 0.895304 0.769200 -0.617816
H9    H     H_    0.456529 0.936844 0.789976 0.205381
H10   H     H_    0.388750 0.799119 0.773282 0.250894
O9    O     O_3   0.230770 0.089084 0.544144 -0.564818
C29   C     C_3   0.222926 0.217190 0.525222 -0.291537
H11   H     H_    0.238143 0.270121 0.626924 0.162757
H12   H     H_    0.143306 0.234940 0.480247 0.183581
H13   H     H_    0.275765 0.249920 0.449321 0.149512
O10   O     O_3   0.429272 0.293186 0.130038 -0.561506
C30   C     C_3   0.470912 0.181781 0.085198 -0.335043
H14   H     H_    0.462293 0.111103 0.165943 0.203989
H15   H     H_    0.554528 0.192801 0.073214 0.142432
H16   H     H_    0.427227 0.144992 0.986052 0.153742
N4    N     N_3   0.689784 0.665413 0.884378 -0.488420
H17   H     H_    0.749579 0.730259 0.916827 0.236065
H18   H     H_    0.709312 0.580362 0.927639 0.283064
N5    N     N_3   0.693133 0.673262 0.173190 -0.590712
H19   H     H_    0.692344 0.696617 0.279575 0.244412
H20   H     H_    0.699698 0.577232 0.163454 0.235395
O11   O     O_3   0.818392 0.452441 0.793331 -0.584394
C31   C     C_3   0.807960 0.323396 0.812145 -0.318847
H21   H     H_    0.884419 0.281520 0.832217 0.155794
H22   H     H_    0.761852 0.275822 0.720264 0.188188
H23   H     H_    0.766326 0.307640 0.905633 0.172016
N6    N     N_3   0.969239 0.522102 0.174530 -0.553095
H24   H     H_    0.920029 0.443964 0.150864 0.208914
H25   H     H_    0.925966 0.601693 0.174114 0.237813
O12   O     O_3   0.180342 0.516357 0.204553 -0.539483
C32   C     C_3   0.180724 0.397070 0.140293 -0.213958
H26   H     H_    0.101851 0.362665 0.099079 0.149309
H27   H     H_    0.217309 0.328964 0.213502 0.161583
H28   H     H_    0.226640 0.403180 0.049604 0.184173
N7    N     N_3   0.190568 0.519405 0.719389 -0.548972
H29   H     H_    0.178930 0.438437 0.774561 0.204660
H30   H     H_    0.165171 0.595819 0.773439 0.238919
O13   O     O_3   0.669894 0.142529 0.423729 -0.587900
C33   C     C_3   0.720156 0.090503 0.314245 -0.320950
H31   H     H_    0.665300 0.048112 0.227541 0.141684
H32   H     H_    0.775552 0.021516 0.356334 0.175643
H33   H     H_    0.764988 0.165836 0.268471 0.185157

loop_
_geom_bond_atom_site_label_1
_geom_bond_atom_site_label_2
_ccdc_geom_bond_type
C16   C21   S    
C1    C8    S    
N6    H24   S    
C19   C20   S    
N7    H29   S    
C7    C8    A    
C29   H11   S    
C25   C28   A    
C26   C27   A    
N4    H17   S    
Cu1   O7    S    
C10   H7    S    
Cu2   O8    S    
C12   O3    A    
C33   H31   S    
C5    C6    A    
C4    C24   A    
C33   H33   S    
C14   N3    S    
C30   H15   S    
C26   N6    S    
C17   N1    A    
C31   H22   S    
C18   N2    A    
N4    H18   S    
C21   N5    S    
C8    C9    A    
N3    H10   S    
C23   C24   S    
C9    C10   A    
C20   H4    S    
C30   H16   S    
C29   H12   S    
C13   C14   S    
Cu1   O3    S    
N6    H25   S    
Cu2   O4    S    
C2    C6    A    
C5    O11   S    
N7    H30   S    
C32   H27   S    
C23   O7    A    
C33   H32   S    
C15   H2    S    
O12   C32   S    
C19   N2    A    
O11   C31   S    
C16   N1    A    
N5    H20   S    
C30   H14   S    
C32   H26   S    
Cu1   O5    S    
C31   H23   S    
Cu1   Cu2   S    
C14   H8    S    
C17   C18   A    
C15   O9    S    
O13   C33   S    
C1    O1    A    
C22   O6    A    
N5    H19   S    
C27   O12   S    
O9    C29   S    
C29   H13   S    
C23   O8    A    
Cu1   O1    S    
C28   N7    S    
Cu2   O6    S    
C3    C26   A    
C21   H5    S    
C25   C27   A    
C11   C22   S    
C12   C25   S    
C2    C3    A    
C12   O4    A    
C11   C13   A    
O10   C30   S    
C5    C24   A    
C32   H28   S    
C16   C19   A    
Cu1   N2    S    
C7    C15   S    
C6    H6    S    
Cu2   N1    S    
C20   N4    S    
C31   H21   S    
C18   H3    S    
C4    H1    S    
C10   C11   A    
C9    O13   S    
C1    O2    A    
C7    C13   A    
C22   O5    A    
C20   C21   S    
N3    H9    S    
C14   C15   S    
Cu2   O2    S    
C2    C28   A    
C3    C4    A    
C17   O10   S    
