data_mof_unit_14220.cif
_audit_creation_date              2013-03-05T15:43:09-0500
_audit_creation_method            fapswitch 2.2
_symmetry_space_group_name_H-M    P1
_symmetry_Int_Tables_number       1
_space_group_crystal_system       triclinic
_cell_length_a                    6.947719
_cell_length_b                    14.000882
_cell_length_c                    17.927811
_cell_angle_alpha                 113.638387
_cell_angle_beta                  95.550097
_cell_angle_gamma                 90.55992
_cell_volume                      1587.84373921

loop_
_atom_site_label
_atom_site_type_symbol
_atom_site_description
_atom_site_fract_x
_atom_site_fract_y
_atom_site_fract_z
_atom_type_partial_charge
O1    O     O_R   0.484560 0.544530 0.414330 -0.574557
O2    O     O_R   0.197040 0.638810 0.585080 -0.556144
O3    O     O_R   0.026800 0.455470 0.585670 -0.485975
C1    C     C_R   0.375247 0.677353 0.614422 0.913006
O4    O     O_R   0.155000 0.556150 0.414940 -0.575043
O5    O     O_R   0.984450 0.372220 0.414320 -0.558516
C2    C     C_R   0.318043 0.564920 0.386626 0.812393
O6    O     O_R   0.526900 0.627780 0.585680 -0.529819
O7    O     O_3   0.339170 0.439750 0.499990 -0.201916
V1    V     V_3+5 0.064350 0.511180 0.500000 1.174839
O8    O     O_R   0.654880 0.361190 0.414920 -0.562925
C3    C     C_R   0.816584 0.324324 0.386428 0.836248
O9    O     O_R   0.696930 0.443850 0.585060 -0.499452
C4    C     C_R   0.873572 0.429035 0.610036 0.897289
V2    V     V_3+5 0.564340 0.488820 0.500000 1.204137
O10   O     O_3   0.839390 0.560250 0.500010 -0.306229
C5    C     C_R   0.040830 0.866062 0.825066 -0.111255
C6    C     C_R   0.910040 0.391423 0.677220 -0.072717
C7    C     C_R   0.934176 0.824079 0.682212 -0.069356
C8    C     C_R   0.973689 0.793153 0.746633 -0.063198
C9    C     C_R   0.058058 0.973061 0.839105 -0.114867
C10   C     C_R   0.014480 0.007155 0.773962 0.062127
C11   C     C_R   0.957242 0.929219 0.694624 0.046582
C12   C     C_R   0.023144 0.114895 0.784153 0.029421
C13   C     C_R   0.977185 0.141638 0.714834 0.038959
C14   C     C_R   0.935509 0.059484 0.637045 -0.088885
C15   C     C_R   0.923109 0.956007 0.627563 -0.116102
C16   C     C_R   0.073499 0.196879 0.861393 -0.093786
C17   C     C_R   0.076784 0.300555 0.871364 -0.098737
C18   C     C_R   0.026014 0.327772 0.805429 0.042340
C19   C     C_R   0.972810 0.249612 0.725842 0.058211
C20   C     C_R   0.027488 0.433669 0.819382 -0.099518
C21   C     C_R   0.971784 0.464805 0.756244 -0.004253
C22   C     C_R   0.914093 0.283800 0.661753 -0.107499
H1    H     H_    0.884167 0.895924 0.566646 0.065500
H2    H     H_    0.871182 0.229252 0.599656 0.066415
H3    H     H_    0.979179 0.547306 0.769290 0.127102
H4    H     H_    0.117531 0.360656 0.932123 0.063538
H5    H     H_    0.885324 0.765105 0.621932 0.104921
H6    H     H_    0.954357 0.711317 0.734871 0.114238
H7    H     H_    0.104430 0.027126 0.900994 0.042615
H8    H     H_    0.907474 0.072967 0.582006 0.076233
H9    H     H_    0.111573 0.183417 0.915901 0.067771
H10   H     H_    0.072505 0.493169 0.879886 0.109283
H11   H     H_    0.113806 0.224452 0.309457 0.121360
H12   H     H_    0.834781 0.033801 0.193266 0.116526
C23   C     C_2   0.136461 0.037960 0.184347 -0.232730
C24   C     C_2   0.973110 0.077668 0.217044 -0.099965
H13   H     H_    0.673969 0.176431 0.293945 0.064629
C25   C     C_2   0.812034 0.220409 0.318218 -0.224706
C26   C     C_2   0.975449 0.180625 0.285624 -0.089779
H14   H     H_    0.274499 0.081981 0.208566 0.064955
C27   C     C_R   0.413766 0.782506 0.686158 -0.127966
C28   C     C_R   0.544612 0.462167 0.836161 -0.221172
C29   C     C_R   0.522705 0.884427 0.831366 -0.081933
C30   C     C_R   0.458682 0.790180 0.766513 -0.033337
C31   C     C_R   0.427834 0.875591 0.674341 -0.134168
C32   C     C_R   0.485740 0.974435 0.741283 0.070509
C33   C     C_R   0.530517 0.977121 0.820297 0.039873
C34   C     C_R   0.498365 0.070665 0.732345 0.035136
C35   C     C_R   0.535057 0.169837 0.802327 0.053407
C36   C     C_R   0.575682 0.167296 0.879694 -0.096752
C37   C     C_R   0.577361 0.072304 0.888097 -0.116097
C38   C     C_R   0.482676 0.069334 0.654247 -0.102660
C39   C     C_R   0.479490 0.159741 0.643444 -0.072861
C40   C     C_R   0.484697 0.257150 0.709785 -0.015925
C41   C     C_R   0.528514 0.266620 0.791002 0.036972
C42   C     C_R   0.448256 0.344408 0.693691 0.191662
C43   C     C_R   0.484723 0.445352 0.754661 0.334610
C44   C     C_R   0.560663 0.371443 0.854699 -0.190512
H15   H     H_    0.610787 0.073468 0.948780 0.066959
H16   H     H_    0.598447 0.383929 0.917860 0.069296
H17   H     H_    0.475198 0.150495 0.580549 0.123193
H18   H     H_    0.559726 0.885707 0.891632 0.133001
H19   H     H_    0.436830 0.725557 0.782193 0.183655
H20   H     H_    0.387005 0.868125 0.612697 0.039928
H21   H     H_    0.607710 0.237866 0.934428 0.067674
H22   H     H_    0.480216 0.999109 0.599211 0.068975
H23   H     H_    0.333780 0.666960 0.195179 0.114254
H24   H     H_    0.615378 0.591213 0.307456 0.111278
C45   C     C_2   0.315106 0.601981 0.319229 -0.227454
C46   C     C_2   0.476859 0.610992 0.285246 -0.097277
H25   H     H_    0.772235 0.636738 0.206083 0.065509
C47   C     C_2   0.634042 0.656275 0.183399 -0.229715
C48   C     C_2   0.472326 0.647199 0.217381 -0.095826
H26   H     H_    0.176961 0.621542 0.296521 0.065711
O11   O     O_R   0.421600 0.630430 0.917010 -0.545987
O12   O     O_R   0.793840 0.702190 0.087630 -0.568766
O13   O     O_R   0.964010 0.886170 0.088190 -0.559930
C49   C     C_R   0.630919 0.693408 0.116037 0.822098
O14   O     O_R   0.751460 0.619510 0.917500 -0.544439
O15   O     O_R   0.921330 0.802900 0.916840 -0.549233
C50   C     C_R   0.575490 0.574854 0.900017 0.863347
O16   O     O_R   0.464290 0.713700 0.088350 -0.565679
O17   O     O_3   0.609200 0.818520 0.002630 -0.288648
V3    V     V_3+5 0.884140 0.747190 0.002530 1.117803
O18   O     O_R   0.251150 0.814630 0.917340 -0.574101
C51   C     C_R   0.074710 0.828967 0.892303 0.817297
O19   O     O_R   0.293530 0.897310 0.087470 -0.562796
C52   C     C_R   0.131874 0.934085 0.116073 0.841990
V4    V     V_3+5 0.384070 0.769710 0.002370 1.112218
O20   O     O_3   0.109180 0.698190 0.002460 -0.285928
N1    N     N_R   0.472024 0.531412 0.732214 0.070447
O21   O     O_R   0.305399 0.553753 0.705791 -0.403629
O22   O     O_R   0.628671 0.584992 0.735325 -0.451846
Br1   Br    Br    0.332956 0.320032 0.586679 -0.554874

loop_
_geom_bond_atom_site_label_1
_geom_bond_atom_site_label_2
_geom_bond_distance
_ccdc_geom_bond_type
C13   C19   1.444998 A    
C40   C42   1.383647 A    
C29   C30   1.396074 A    
O12   V3    2.016540 S    
V4    O20   2.148202 S    
V3    O20   1.713444 S    
C1    C27   1.516709 S    
C4    C6    1.498146 S    
C36   H21   1.079160 S    
O2    C1    1.316895 A    
O17   V3    2.163971 S    
C1    O6    1.299972 A    
C45   C46   1.356969 D    
O15   C51   1.293873 A    
C14   C15   1.390143 A    
C36   C37   1.397254 A    
C42   Br1   1.900290 S    
C31   H20   1.076515 S    
C16   C17   1.389227 A    
C29   C33   1.390629 A    
O5    C3    1.289554 A    
C18   C19   1.417013 A    
C8    H6    1.083081 S    
H11   C26   1.087151 S    
C32   C34   1.422022 A    
V2    O10   2.148118 S    
O18   C51   1.309623 A    
O15   V3    2.017152 S    
C5    C8    1.396282 A    
C39   H17   1.079540 S    
C28   C50   1.530768 S    
O14   V3    1.969736 S    
O11   V4    1.976500 S    
C29   H18   1.079089 S    
O8    V2    1.984236 S    
C24   C26   1.471128 S    
C23   C24   1.349230 D    
O16   V4    2.028132 S    
C42   C43   1.398932 A    
C17   H4    1.084160 S    
O1    V2    2.019650 S    
C11   C15   1.396605 A    
O7    V1    2.164050 S    
C45   H26   1.086694 S    
C40   C41   1.410306 A    
C30   H19   1.063136 S    
O9    C4    1.312572 A    
C47   C49   1.492586 S    
C49   O16   1.294497 A    
C43   N1    1.416195 S    
H12   C24   1.087133 S    
O13   C52   1.289623 A    
C47   C48   1.356974 D    
H24   C46   1.086713 S    
O4    C2    1.309362 A    
C27   C31   1.405666 A    
C15   H1    1.084077 S    
C13   C14   1.407393 A    
C21   H3    1.082320 S    
C23   C52   1.475909 S    
C34   C35   1.449562 A    
C7    C11   1.402836 A    
C17   C18   1.396467 A    
O14   C50   1.318201 A    
C35   C41   1.448978 A    
H25   C47   1.086683 S    
C28   C44   1.438897 A    
C25   C26   1.349234 D    
C20   H10   1.083060 S    
C19   C22   1.438708 A    
N1    O22   1.299646 A    
C12   C13   1.444050 A    
C6    C22   1.419663 A    
O3    C4    1.293461 A    
C7    H5    1.082978 S    
C9    H7    1.077221 S    
O19   V4    1.984144 S    
O12   C49   1.309483 A    
H13   C25   1.086954 S    
O6    V2    1.975593 S    
O9    V2    2.019909 S    
C10   C12   1.444831 A    
O2    V1    1.969676 S    
H23   C48   1.086716 S    
C14   H8    1.077085 S    
C5    C51   1.492553 S    
C27   C30   1.404451 A    
C2    C45   1.492583 S    
O1    C2    1.294465 A    
C38   H22   1.076570 S    
C12   C16   1.407574 A    
C37   H15   1.083785 S    
O5    V1    1.967294 S    
C3    C25   1.475809 S    
O8    C3    1.304008 A    
C23   H14   1.086959 S    
C46   C48   1.491889 S    
C16   H9    1.076615 S    
C33   C37   1.405459 A    
O19   C52   1.304030 A    
C34   C38   1.386387 A    
C41   C44   1.451930 A    
C20   C21   1.391165 A    
C7    C8    1.392382 A    
C32   C33   1.405918 A    
O4    V1    2.016557 S    
O3    V1    2.017316 S    
V1    O10   1.713413 S    
C38   C39   1.355185 A    
C18   C20   1.400967 A    
C31   C32   1.442628 A    
C28   C43   1.402876 A    
O13   V3    1.967313 S    
O11   C50   1.315523 A    
C22   H2    1.077519 S    
O7    V2    1.702423 S    
C35   C36   1.403133 A    
C6    C21   1.397612 A    
C5    C9    1.417823 A    
C39   C40   1.402058 A    
N1    O21   1.297017 A    
C10   C11   1.417534 A    
C44   H16   1.079148 S    
C9    C10   1.436990 A    
O18   V4    2.019913 S    
O17   V4    1.699620 S    
