data_mof_unit_66838.cif
_audit_creation_date              2012-12-11T14:35:06-0500
_audit_creation_method            fapswitch 2.2
_symmetry_space_group_name_H-M    P1
_symmetry_Int_Tables_number       1
_space_group_crystal_system       triclinic
_cell_length_a                    8.330503
_cell_length_b                    14.944217
_cell_length_c                    16.531173
_cell_angle_alpha                 108.978139
_cell_angle_beta                  97.966681
_cell_angle_gamma                 80.824722
_cell_volume                      1912.93276391

loop_
_atom_site_label
_atom_site_type_symbol
_atom_type_description
_atom_site_fract_x
_atom_site_fract_y
_atom_site_fract_z
_atom_type_partial_charge
Ba1   Ba    Ba6+2 0.364960 0.465930 0.541880 1.643919
Ba2   Ba    Ba6+2 0.824870 0.533990 0.458110 1.650381
C1    C     C_3   0.403275 0.247016 0.870338 0.169696
C2    C     C_R   0.898506 0.535418 0.752492 -0.287843
C3    C     C_2   0.484614 0.391400 0.134499 0.066280
C4    C     C_3   0.786672 0.306890 0.756523 0.300965
C5    C     C_2   0.455207 0.420703 0.217880 0.068935
C6    C     C_2   0.173993 0.493919 0.187920 0.019259
C7    C     C_3   0.188019 0.444655 0.092410 -0.053784
C8    C     C_3   0.366232 0.425875 0.070327 -0.065464
C9    C     C_2   0.069897 0.489466 0.033268 -0.100207
C10   C     C_2   0.112227 0.505159 0.963304 -0.116251
C11   C     C_R   0.835964 0.581250 0.923443 0.001484
C12   C     C_3   0.353995 0.271144 0.783934 0.537759
C13   C     C_R   0.990200 0.534871 0.899038 -0.025541
C14   C     C_R   0.715581 0.605395 0.863930 -0.127524
C15   C     C_R   0.745999 0.581753 0.777952 0.027476
C16   C     C_3   0.834205 0.296015 0.845665 -0.081421
C17   C     C_R   0.022763 0.514069 0.812274 0.070560
C18   C     C_R   0.272335 0.766159 0.489375 -0.077436
C19   C     C_R   0.339950 0.813960 0.444339 0.024303
C20   C     C_R   0.266111 0.904898 0.443077 -0.141218
C21   C     C_R   0.126048 0.949896 0.487897 0.001905
C22   C     C_R   0.055616 0.896130 0.526885 -0.164964
C23   C     C_3   0.012550 0.716674 0.723876 0.267490
C24   C     C_R   0.125200 0.804924 0.525329 0.084967
C25   C     C_R   0.905590 0.092124 0.532557 -0.162107
C26   C     C_R   0.843831 0.187175 0.542890 0.006231
C27   C     C_R   0.072702 0.206737 0.478751 0.085671
C28   C     C_3   0.573745 0.217257 0.318454 0.265743
C29   C     C_R   0.138462 0.112312 0.470541 -0.111322
C30   C     C_R   0.055047 0.051836 0.495815 0.006615
C31   C     C_R   0.926796 0.244118 0.515843 -0.251995
C32   C     C_3   0.574608 0.111180 0.266003 0.224598
C33   C     C_3   0.438173 0.797233 0.746119 0.489305
C34   C     C_3   0.022933 0.758393 0.822225 -0.120315
C35   C     C_3   0.485357 0.846226 0.842476 -0.025790
C36   C     C_3   0.131531 0.299592 0.276456 0.418865
C37   C     C_3   0.100509 0.252409 0.179572 -0.035016
C38   C     C_3   0.609083 0.019432 0.369276 -0.254536
C39   C     C_3   0.468105 0.004251 0.128560 -0.223696
C40   C     C_3   0.486140 0.907511 0.666667 -0.204720
C41   C     C_3   0.707426 0.911213 0.947445 -0.287370
C42   C     C_3   0.971354 0.116025 0.079436 -0.257915
C43   C     C_3   0.205066 0.132023 0.704351 -0.184636
C44   C     C_3   0.283138 0.186220 0.969756 -0.204450
C45   C     C_3   0.492563 0.695300 0.223674 0.415252
C46   C     C_3   0.168672 0.740650 0.955194 -0.260095
C47   C     C_3   0.054558 0.965390 0.243783 -0.192422
C48   C     C_3   0.525295 0.707501 0.137974 -0.120187
C49   C     C_3   0.938782 0.738237 0.262525 0.334827
C50   C     C_3   0.922376 0.819907 0.221988 0.163792
C51   C     C_2   0.300798 0.481506 0.245042 -0.281286
H1    H     H_    0.453311 0.306608 0.774374 0.047186
H2    H     H_    0.887895 0.697344 0.699831 0.037655
H3    H     H_    0.101326 0.651238 0.704492 0.061716
H4    H     H_    0.907107 0.751212 0.844152 0.105710
H5    H     H_    0.037505 0.835594 0.842738 0.116371
H6    H     H_    0.459529 0.308622 0.916586 0.044384
H7    H     H_    0.908218 0.353332 0.884245 0.078526
H8    H     H_    0.563492 0.628018 0.230350 0.098883
H9    H     H_    0.427998 0.758935 0.118848 0.085459
H10   H     H_    0.639810 0.738214 0.145851 0.138491
H11   H     H_    0.064240 0.728041 0.293331 -0.005051
H12   H     H_    0.703276 0.079465 0.256211 0.072274
H13   H     H_    0.856576 0.759572 0.314626 0.061363
H14   H     H_    0.791679 0.849145 0.215471 0.047228
H15   H     H_    0.709239 0.376611 0.765312 0.030299
H16   H     H_    0.598249 0.641226 0.884912 0.085714
H17   H     H_    0.287227 0.511392 0.313212 0.065116
H18   H     H_    0.920517 0.515862 0.685608 0.064748
H19   H     H_    0.941644 0.500178 0.043807 0.111687
H20   H     H_    0.238656 0.489792 0.949639 0.108277
H21   H     H_    0.832580 0.052107 0.553458 0.074959
H22   H     H_    0.320510 0.938867 0.407194 0.082263
H23   H     H_    0.336684 0.756238 0.740796 0.024268
H24   H     H_    0.253989 0.087830 0.443983 0.061688
H25   H     H_    0.898828 0.308145 0.727780 0.011583
H26   H     H_    0.949336 0.923558 0.561669 0.070104
H27   H     H_    0.876348 0.317327 0.522832 0.071172
H28   H     H_    0.723176 0.305874 0.879059 0.056312
H29   H     H_    0.630385 0.224436 0.384815 0.012848
H30   H     H_    0.447198 0.250066 0.320533 0.062807
H31   H     H_    0.385247 0.089101 0.328923 0.216823
H32   H     H_    0.550110 0.029835 0.428360 0.126651
H33   H     H_    0.724951 0.051305 0.387555 0.077630
H34   H     H_    0.394725 0.909227 0.868073 0.036226
H35   H     H_    0.636995 0.942095 0.336782 0.155209
H36   H     H_    0.523151 0.140560 0.149033 0.185364
H37   H     H_    0.404414 0.004570 0.065008 0.081583
H38   H     H_    0.393928 0.970084 0.158201 0.136840
H39   H     H_    0.590191 0.961853 0.119400 0.090135
H40   H     H_    0.276420 0.914903 0.727265 0.164946
H41   H     H_    0.417273 0.938103 0.617641 0.089417
H42   H     H_    0.582452 0.852489 0.634234 0.162852
H43   H     H_    0.542220 0.965794 0.716985 0.069316
H44   H     H_    0.668963 0.916786 0.823018 0.215291
H45   H     H_    0.480861 0.795143 0.877824 0.028729
H46   H     H_    0.837724 0.921817 0.952608 0.101368
H47   H     H_    0.698530 0.859629 0.981723 0.113047
H48   H     H_    0.636613 0.980977 0.977838 0.116611
H49   H     H_    0.613731 0.164441 0.823094 0.166896
H50   H     H_    0.470448 0.100840 0.828468 0.178768
H51   H     H_    0.863397 0.223817 0.177249 0.254585
H52   H     H_    0.886791 0.065429 0.078806 0.101897
H53   H     H_    0.094018 0.075368 0.067193 0.115663
H54   H     H_    0.924941 0.148863 0.028098 0.100264
H55   H     H_    0.447537 0.142908 0.694758 0.197177
H56   H     H_    0.238788 0.338591 0.290379 -0.176626
H57   H     H_    0.214733 0.067149 0.648434 0.087149
H58   H     H_    0.087247 0.175052 0.695227 0.148422
H59   H     H_    0.208367 0.108473 0.761535 0.126061
H60   H     H_    0.183022 0.298827 0.925070 0.226910
H61   H     H_    0.165354 0.191238 0.995442 0.088113
H62   H     H_    0.370022 0.218667 0.024174 0.095495
H63   H     H_    0.325612 0.109499 0.940592 0.117088
H64   H     H_    0.267539 0.700210 0.838966 0.205500
H65   H     H_    0.264108 0.692981 0.979890 0.138675
H66   H     H_    0.050977 0.737537 0.977356 0.132677
H67   H     H_    0.028330 0.352530 0.299491 0.089959
H68   H     H_    0.201081 0.814706 0.980494 0.093122
H69   H     H_    0.259527 0.759073 0.224663 0.209208
H70   H     H_    0.276013 0.643556 0.166667 0.149390
H71   H     H_    0.425830 0.590849 0.053619 0.173486
H72   H     H_    0.624599 0.567693 0.087440 0.208320
H73   H     H_    0.956795 0.928961 0.335566 0.176705
H74   H     H_    0.104877 0.024660 0.295997 0.108315
H75   H     H_    0.946295 0.995203 0.209418 0.101093
H76   H     H_    0.150565 0.931284 0.199249 0.124925
H77   H     H_    0.918950 0.728953 0.097244 0.197558
H78   H     H_    0.217015 0.212296 0.155099 0.082414
H79   H     H_    0.949036 0.837787 0.106822 0.149109
H80   H     H_    0.685586 0.369096 0.071456 0.191823
H81   H     H_    0.611503 0.269264 0.065874 0.155891
H82   H     H_    0.477951 0.693021 0.530823 0.221954
H83   H     H_    0.351085 0.624287 0.450110 0.195711
H84   H     H_    0.874752 0.148379 0.795010 0.200013
H85   H     H_    0.926674 0.192418 0.900299 0.174199
H86   H     H_    0.059715 0.307549 0.147004 0.033302
N1    N     N_2   0.501571 0.062136 0.311796 -0.435522
N2    N     N_3   0.318956 0.691865 0.223825 -0.541325
N3    N     N_3   0.538191 0.617380 0.068066 -0.518524
N4    N     N_2   0.010657 0.896612 0.279148 -0.442954
N5    N     N_3   0.982885 0.784650 0.136427 -0.495419
N6    N     N_3   0.635916 0.335964 0.107331 -0.472884
N7    N     N_3   0.357836 0.682161 0.506049 -0.453402
N8    N     N_3   0.929209 0.203760 0.841452 -0.482739
N9    N     N_2   0.484914 0.101170 0.182142 -0.421319
N10   N     N_2   0.374927 0.867644 0.702078 -0.442389
N11   N     N_2   0.648167 0.874815 0.857981 -0.409783
N12   N     N_3   0.525298 0.162417 0.860828 -0.523144
N13   N     N_2   0.976891 0.188665 0.162160 -0.392426
N14   N     N_2   0.339204 0.185419 0.710641 -0.406342
N15   N     N_2   0.260006 0.236162 0.906322 -0.383700
N16   N     N_2   0.156715 0.708407 0.862632 -0.440499
O1    O     O_2   0.426270 0.593440 0.713420 -0.506062
O2    O     O_2   0.673162 0.810148 0.448685 -0.497911
O3    O     O_3   0.541535 0.774128 0.292044 -0.624573
O4    O     O_3   0.647730 0.570260 0.604850 -0.459525
O5    O     O_3   0.070240 0.381690 0.454200 -0.493804
O6    O     O_2   0.845720 0.730180 0.545110 -0.453456
O7    O     O_3   0.043365 0.785581 0.689300 -0.667054
O8    O     O_2   0.845511 0.485649 0.192370 -0.492749
O9    O     O_3   0.894274 0.654140 0.199764 -0.628728
O10   O     O_3   0.203920 0.417520 0.657950 -0.459947
O11   O     O_2   0.370301 0.479923 0.813715 -0.527211
O12   O     O_3   0.155151 0.228600 0.316743 -0.645965
O13   O     O_3   0.572800 0.738477 0.706070 -0.627680
O14   O     O_3   0.203866 0.330836 0.788704 -0.644523
O15   O     O_2   0.343970 0.269780 0.454840 -0.477966
O16   O     O_3   0.615710 0.361880 0.613490 -0.475963
O17   O     O_2   0.509351 0.191155 0.561272 -0.478589
O18   O     O_3   0.698775 0.232013 0.704766 -0.641616
O19   O     O_2   0.763420 0.406520 0.286530 -0.438986
O20   O     O_3   0.541980 0.429670 0.395140 -0.495778
O21   O     O_3   0.985790 0.582400 0.342040 -0.484098
O22   O     O_3   0.664110 0.259990 0.279413 -0.664175
O23   O     O_3   0.119470 0.618230 0.545790 -0.456548
O24   O     O_3   0.574000 0.638040 0.386500 -0.490872
P1    P     P_3+3 0.589930 0.617420 0.700180 0.977421
P2    P     P_3+3 0.161520 0.277720 0.428790 0.979695
P3    P     P_3+3 0.663634 0.241138 0.601072 0.945055
P4    P     P_3+3 0.599780 0.382500 0.299810 0.988522
P5    P     P_3+3 0.530425 0.758901 0.392388 0.939015
P6    P     P_3+3 0.208989 0.439425 0.768912 0.939941
P7    P     P_3+3 0.032140 0.737651 0.577518 0.977625
P8    P     P_3+3 0.976935 0.553586 0.230561 0.928810

loop_
_geom_bond_atom_site_label_1
_geom_bond_atom_site_label_2
_ccdc_geom_bond_type
H79   N5    S    
C19   P5    S    
H36   N9    S    
O11   P6    D    
O1    P1    D    
Ba1   O15   S    
O16   P3    S    
H40   N10   S    
C23   H3    S    
O4    P1    S    
O9    P8    S    
C6    C51   D    
C43   H59   S    
O12   P2    S    
C42   H52   S    
C13   C17   A    
C50   N5    S    
C27   P2    S    
C44   H62   S    
C40   H43   S    
C33   C35   S    
C41   H46   S    
C34   H5    S    
C36   C37   S    
Ba1   P1    S    
C4    H25   S    
C26   C31   A    
C27   C31   A    
H73   N4    S    
C16   H28   S    
Ba2   O6    S    
O8    P8    D    
Ba1   Ba2   S    
C38   H33   S    
C28   H30   S    
H81   N6    S    
C40   N10   S    
C26   P3    S    
Ba2   O21   S    
C2    C17   A    
C32   N9    S    
H55   N14   S    
Ba2   O4    S    
H64   N16   S    
C21   C22   A    
O2    P5    D    
C46   H66   S    
C25   H21   S    
H77   N5    S    
C7    C8    S    
C35   N11   S    
H50   N12   S    
H49   N12   S    
Ba2   P4    S    
C36   H67   S    
C4    H15   S    
C39   H37   S    
C40   H41   S    
C10   H20   S    
C27   C29   A    
C48   H10   S    
H71   N3    S    
C20   H22   S    
C12   O14   S    
C47   H74   S    
C51   H17   S    
C32   H12   S    
C35   H45   S    
C35   H34   S    
C29   H24   S    
C45   C48   S    
C3    C5    D    
C6    P8    S    
C36   O12   S    
C44   N15   S    
C4    C16   S    
C37   H86   S    
C33   H23   S    
C50   N4    S    
C3    N6    S    
C28   C32   S    
C49   C50   S    
Ba1   O4    S    
C41   H47   S    
C17   P6    S    
C34   H4    S    
C46   H68   S    
O7    P7    S    
C44   H61   S    
C9    H19   S    
C6    C7    S    
C46   H65   S    
O13   P1    S    
C47   H76   S    
C37   N13   S    
Ba1   O16   S    
C1    N15   S    
O10   P6    S    
C40   H42   S    
C49   H13   S    
C38   H32   S    
C28   H29   S    
Ba1   O1    S    
C41   H48   S    
O6    P7    D    
Ba2   O20   S    
Ba1   O23   S    
C22   H26   S    
C29   C30   A    
C10   C13   S    
Ba1   O10   S    
H85   N8    S    
H44   N11   S    
H82   N7    S    
H70   N2    S    
C33   O13   S    
C49   O9    S    
C42   N13   S    
C36   H56   S    
C7    C9    S    
C1    C12   S    
C2    C15   A    
C15   P1    S    
C16   H7    S    
C39   H38   S    
C46   N16   S    
O18   P3    S    
C16   N8    S    
C11   C13   A    
C12   N14   S    
C48   H9    S    
C18   N7    S    
H72   N3    S    
C43   N14   S    
Ba2   O24   S    
C5    C51   S    
H60   N15   S    
O5    P2    S    
O21   P8    S    
O20   P4    S    
O24   P5    S    
C42   H54   S    
C47   H75   S    
C45   N2    S    
Ba1   O20   S    
Ba1   P2    S    
C12   H1    S    
C25   C30   A    
C43   H57   S    
H84   N8    S    
Ba1   O5    S    
C49   H11   S    
C23   H2    S    
C50   H14   S    
O19   P4    D    
C45   H8    S    
C9    C10   D    
C43   H58   S    
C31   H27   S    
C4    O18   S    
C42   H53   S    
C33   N10   S    
C14   H16   S    
C1    N12   S    
C44   H63   S    
C21   C30   S    
C38   H35   S    
O14   P6    S    
C3    C8    S    
O15   P2    D    
O22   P4    S    
Ba2   O19   S    
C24   P7    S    
C22   C24   A    
H51   N13   S    
C14   C15   A    
C39   N9    S    
C18   C24   A    
C47   N4    S    
C32   N1    S    
C28   O22   S    
C38   N1    S    
C5    P4    S    
C37   H78   S    
C23   O7    S    
C23   C34   S    
O23   P7    S    
O17   P3    D    
C39   H39   S    
H80   N6    S    
C18   C19   A    
H31   N1    S    
Ba2   O5    S    
C11   C14   A    
C25   C26   A    
C20   C21   A    
Ba2   O23   S    
H69   N2    S    
C19   C20   A    
O3    P5    S    
C2    H18   S    
H83   N7    S    
C48   N3    S    
C34   N16   S    
C41   N11   S    
C45   O3    S    
C1    H6    S    
