data_mof_unit_55791.cif
_audit_creation_date              2012-12-11T16:28:05-0500
_audit_creation_method            fapswitch 2.2
_symmetry_space_group_name_H-M    P1
_symmetry_Int_Tables_number       1
_space_group_crystal_system       triclinic
_cell_length_a                    29.995896
_cell_length_b                    22.444907
_cell_length_c                    17.958442
_cell_angle_alpha                 90.000071
_cell_angle_beta                  122.912292
_cell_angle_gamma                 90.0
_cell_volume                      10150.1093512

loop_
_atom_site_label
_atom_site_type_symbol
_atom_type_description
_atom_site_fract_x
_atom_site_fract_y
_atom_site_fract_z
_atom_type_partial_charge
C1    C     C_R   0.544487 0.580200 0.743586 -0.148056
C2    C     C_R   0.682549 0.345950 0.425899 0.570849
C3    C     C_R   0.800531 0.626758 0.032745 -0.205729
C4    C     C_R   0.231581 0.707148 0.821718 -0.215381
C5    C     C_R   0.699469 0.126759 0.967255 -0.205729
C6    C     C_R   0.768419 0.707148 0.178283 -0.215381
C7    C     C_R   0.300531 0.126758 0.032745 -0.205729
C8    C     C_R   0.783900 0.189736 0.857051 -0.227834
C9    C     C_R   0.148063 0.646380 0.934777 -0.224560
C10   C     C_R   0.216100 0.189736 0.142950 -0.227834
C11   C     C_R   0.851937 0.646379 0.065223 -0.224561
C12   C     C_R   0.283900 0.689736 0.857051 -0.227833
C13   C     C_R   0.634936 0.717336 0.420713 0.591303
C14   C     C_R   0.648063 0.146380 0.934777 -0.224560
C15   C     C_R   0.716100 0.689736 0.142950 -0.227833
C16   C     C_R   0.351937 0.146380 0.065223 -0.224560
C17   C     C_R   0.574642 0.609413 0.424345 -0.115376
C18   C     C_R   0.405312 0.418350 0.575855 -0.100084
C19   C     C_R   0.425358 0.609413 0.575655 -0.115376
C20   C     C_R   0.594688 0.418350 0.424145 -0.100081
C21   C     C_R   0.074642 0.109413 0.424345 -0.115376
C22   C     C_R   0.905312 0.918350 0.575855 -0.100086
C23   C     C_R   0.925358 0.109413 0.575655 -0.115375
C24   C     C_R   0.317451 0.345950 0.574100 0.570849
C25   C     C_R   0.094688 0.918350 0.424145 -0.100084
C26   C     C_R   0.381832 0.581638 0.257272 -0.135048
C27   C     C_R   0.606862 0.391618 0.707574 -0.124520
C28   C     C_R   0.618168 0.581638 0.742728 -0.135048
C29   C     C_R   0.393138 0.391618 0.292426 -0.124519
C30   C     C_R   0.881832 0.081638 0.257272 -0.135048
C31   C     C_R   0.106862 0.891618 0.707574 -0.124520
C32   C     C_R   0.118168 0.081638 0.742728 -0.135048
C33   C     C_R   0.893138 0.891618 0.292426 -0.124519
C34   C     C_R   0.597837 0.595736 0.794054 0.053716
C35   C     C_R   0.865064 0.217336 0.579287 0.591303
C36   C     C_R   0.422269 0.359193 0.266619 0.054978
C37   C     C_R   0.402163 0.595736 0.205946 0.053716
C38   C     C_R   0.577731 0.359194 0.733381 0.054978
C39   C     C_R   0.097837 0.095736 0.794054 0.053715
C40   C     C_R   0.922269 0.859193 0.266619 0.054978
C41   C     C_R   0.902163 0.095736 0.205946 0.053715
C42   C     C_R   0.077731 0.859194 0.733381 0.054978
C43   C     C_R   0.611571 0.642653 0.496652 0.177473
C44   C     C_R   0.355657 0.404021 0.504349 0.187028
C45   C     C_R   0.388429 0.642653 0.503348 0.177474
C46   C     C_R   0.182549 0.845950 0.425899 0.570851
C47   C     C_R   0.644343 0.404021 0.495651 0.187034
C48   C     C_R   0.111571 0.142653 0.496652 0.177474
C49   C     C_R   0.855657 0.904021 0.504349 0.187026
C50   C     C_R   0.888429 0.142653 0.503348 0.177473
C51   C     C_R   0.144343 0.904021 0.495651 0.187028
C52   C     C_R   0.331942 0.798563 0.438614 0.479930
C53   C     C_R   0.784712 0.390992 0.549266 0.446266
C54   C     C_R   0.668058 0.798563 0.561387 0.479930
C55   C     C_R   0.215288 0.390992 0.450734 0.446266
C56   C     C_R   0.831942 0.298563 0.438613 0.479930
C57   C     C_R   0.134936 0.217336 0.420714 0.591303
C58   C     C_R   0.284713 0.890992 0.549266 0.446267
C59   C     C_R   0.168058 0.298563 0.561386 0.479931
C60   C     C_R   0.715288 0.890992 0.450734 0.446265
C61   C     C_R   0.357480 0.745614 0.441082 0.350180
C62   C     C_R   0.740164 0.414055 0.546903 0.303206
C63   C     C_R   0.642520 0.745614 0.558918 0.350181
C64   C     C_R   0.259836 0.414055 0.453097 0.303207
C65   C     C_R   0.857480 0.245614 0.441082 0.350180
C66   C     C_R   0.240164 0.914055 0.546904 0.303208
C67   C     C_R   0.142520 0.245614 0.558918 0.350180
C68   C     C_R   0.817451 0.845950 0.574100 0.570850
C69   C     C_R   0.759836 0.914055 0.453097 0.303208
C70   C     C_R   0.370612 0.702863 0.508100 -0.303785
C71   C     C_R   0.689747 0.388006 0.489754 -0.284157
C72   C     C_R   0.629388 0.702863 0.491900 -0.303786
C73   C     C_R   0.310253 0.388006 0.510245 -0.284158
C74   C     C_R   0.870612 0.202863 0.508100 -0.303786
C75   C     C_R   0.189747 0.888006 0.489755 -0.284159
C76   C     C_R   0.129388 0.202863 0.491900 -0.303785
C77   C     C_R   0.810253 0.888005 0.510245 -0.284159
C78   C     C_3   0.341534 0.888606 0.391281 -0.178596
C79   C     C_R   0.339791 0.770254 0.575769 -0.388167
C80   C     C_3   0.850396 0.402704 0.697357 -0.145162
C81   C     C_3   0.658466 0.888606 0.608721 -0.178598
C82   C     C_3   0.149604 0.402704 0.302643 -0.145162
C83   C     C_3   0.841534 0.388606 0.391280 -0.178598
C84   C     C_3   0.350396 0.902704 0.697357 -0.145164
C85   C     C_3   0.158466 0.388607 0.608718 -0.178593
C86   C     C_3   0.649604 0.902705 0.302644 -0.145164
C87   C     C_3   0.418340 0.743795 0.402344 0.209397
C88   C     C_3   0.423000 0.747551 0.321892 -0.203972
C89   C     C_3   0.480851 0.749994 0.349379 -1.094236
C90   C     C_R   0.725874 0.327951 0.422867 -0.354938
C91   C     C_3   0.744757 0.514584 0.562240 0.227742
C92   C     C_3   0.759328 0.565117 0.628650 -0.271022
C93   C     C_3   0.759146 0.625281 0.588845 -1.010373
C94   C     C_3   0.581660 0.743795 0.597656 0.209395
C95   C     C_3   0.577001 0.747551 0.678109 -0.203970
C96   C     C_3   0.519149 0.749994 0.650622 -1.094235
C97   C     C_3   0.255243 0.514584 0.437760 0.227743
C98   C     C_3   0.240672 0.565117 0.371350 -0.271022
C99   C     C_3   0.240853 0.625281 0.411156 -1.010376
C100  C     C_3   0.918340 0.243794 0.402344 0.209396
C101  C     C_R   0.660210 0.770254 0.424231 -0.388169
C102  C     C_3   0.923000 0.247551 0.321892 -0.203972
C103  C     C_3   0.980851 0.249994 0.349379 -1.094238
C104  C     C_3   0.244757 0.014584 0.562240 0.227743
C105  C     C_3   0.259328 0.065117 0.628650 -0.271022
C106  C     C_3   0.259147 0.125281 0.588845 -1.010377
C107  C     C_3   0.081660 0.243795 0.597656 0.209398
C108  C     C_3   0.077001 0.247551 0.678108 -0.203970
C109  C     C_3   0.019149 0.249995 0.650622 -1.094235
C110  C     C_3   0.755243 0.014584 0.437761 0.227743
C111  C     C_3   0.740672 0.065117 0.371351 -0.271020
C112  C     C_R   0.467806 0.392496 0.292468 -0.132899
C113  C     C_R   0.274126 0.327950 0.577132 -0.354934
C114  C     C_3   0.740854 0.125281 0.411157 -1.010381
C115  C     C_3   0.410594 0.697131 0.728426 -0.294208
C116  C     C_3   0.629063 0.266580 0.399612 -0.245160
C117  C     C_3   0.589406 0.697131 0.271574 -0.294207
C118  C     C_3   0.370938 0.266582 0.600381 -0.245160
C119  C     C_3   0.910594 0.197132 0.728426 -0.294208
C120  C     C_3   0.129062 0.766582 0.399617 -0.245162
C121  C     C_3   0.089406 0.197131 0.271574 -0.294208
C122  C     C_3   0.870939 0.766583 0.600377 -0.245170
C123  C     C_R   0.839791 0.270255 0.575769 -0.388167
C124  C     C_R   0.225874 0.827951 0.422867 -0.354935
C125  C     C_R   0.160210 0.270254 0.424231 -0.388169
C126  C     C_R   0.774126 0.827950 0.577132 -0.354931
C127  C     C_R   0.320744 0.809000 0.504033 -0.046388
C128  C     C_R   0.776946 0.347608 0.486977 -0.039604
C129  C     C_R   0.679256 0.808999 0.495967 -0.046387
C130  C     C_R   0.223054 0.347608 0.513023 -0.039611
C131  C     C_R   0.820744 0.309000 0.504033 -0.046388
C132  C     C_R   0.455513 0.580200 0.256414 -0.148056
C133  C     C_R   0.276946 0.847608 0.486977 -0.039609
C134  C     C_R   0.179256 0.309000 0.495967 -0.046386
C135  C     C_R   0.723054 0.847608 0.513023 -0.039607
C136  C     C_R   0.371142 0.613867 0.111474 0.129174
C137  C     C_R   0.591775 0.299807 0.776192 0.130056
C138  C     C_R   0.628858 0.613867 0.888526 0.129174
C139  C     C_R   0.408225 0.299807 0.223809 0.130057
C140  C     C_R   0.871142 0.113867 0.111474 0.129174
C141  C     C_R   0.091775 0.799807 0.776192 0.130056
C142  C     C_R   0.128858 0.113867 0.888526 0.129174
C143  C     C_R   0.532194 0.392496 0.707532 -0.132897
C144  C     C_R   0.908225 0.799807 0.223809 0.130056
C145  C     C_R   0.366874 0.651461 0.980966 -0.211648
C146  C     C_R   0.579296 0.220454 0.854948 -0.206997
C147  C     C_R   0.633126 0.651461 0.019034 -0.211649
C148  C     C_R   0.420704 0.220453 0.145053 -0.206997
C149  C     C_R   0.866874 0.151461 0.980966 -0.211647
C150  C     C_R   0.079296 0.720454 0.854948 -0.206996
C151  C     C_R   0.133126 0.151461 0.019034 -0.211648
C152  C     C_R   0.920704 0.720453 0.145053 -0.206997
C153  C     C_R   0.396331 0.629077 0.067226 -0.170080
C154  C     C_R   0.044487 0.080200 0.743586 -0.148055
C155  C     C_R   0.562035 0.273298 0.806405 -0.170673
C156  C     C_R   0.603669 0.629077 0.932774 -0.170080
C157  C     C_R   0.437965 0.273297 0.193596 -0.170673
C158  C     C_R   0.896331 0.129077 0.067226 -0.170081
C159  C     C_R   0.062035 0.773298 0.806405 -0.170673
C160  C     C_R   0.103669 0.129077 0.932774 -0.170080
C161  C     C_R   0.937965 0.773297 0.193596 -0.170673
C162  C     C_R   0.315717 0.618438 0.066034 -0.252640
C163  C     C_R   0.636715 0.270096 0.789577 -0.254271
C164  C     C_R   0.684283 0.618438 0.933966 -0.252641
C165  C     C_R   0.967806 0.892496 0.292468 -0.132899
C166  C     C_R   0.363285 0.270095 0.210424 -0.254271
C167  C     C_R   0.815717 0.118438 0.066034 -0.252640
C168  C     C_R   0.136715 0.770096 0.789577 -0.254271
C169  C     C_R   0.184283 0.118438 0.933966 -0.252641
C170  C     C_R   0.863285 0.770096 0.210424 -0.254271
C171  C     C_R   0.285314 0.641305 0.979476 0.080856
C172  C     C_R   0.655512 0.217602 0.839980 0.079816
C173  C     C_R   0.714687 0.641304 0.020524 0.080856
C174  C     C_R   0.344488 0.217602 0.160021 0.079816
C175  C     C_R   0.785314 0.141304 0.979476 0.080856
C176  C     C_R   0.955513 0.080200 0.256414 -0.148056
C177  C     C_R   0.155512 0.717602 0.839980 0.079816
C178  C     C_R   0.214687 0.141304 0.020524 0.080856
C179  C     C_R   0.844489 0.717602 0.160021 0.079816
C180  C     C_R   0.311959 0.660011 0.938274 0.190381
C181  C     C_R   0.627073 0.194063 0.875533 0.186554
C182  C     C_R   0.688041 0.660011 0.061726 0.190381
C183  C     C_R   0.372927 0.194062 0.124468 0.186554
C184  C     C_R   0.811959 0.160011 0.938274 0.190381
C185  C     C_R   0.127073 0.694063 0.875533 0.186553
C186  C     C_R   0.188041 0.160011 0.061726 0.190381
C187  C     C_R   0.032194 0.892496 0.707532 -0.132898
C188  C     C_R   0.872927 0.694062 0.124468 0.186553
C189  C     C_R   0.230049 0.652245 0.937212 0.072517
C190  C     C_R   0.705066 0.192154 0.864464 0.072181
C191  C     C_R   0.769951 0.652245 0.062788 0.072518
C192  C     C_R   0.294934 0.192154 0.135537 0.072181
C193  C     C_R   0.730049 0.152245 0.937212 0.072517
C194  C     C_R   0.205066 0.692154 0.864464 0.072181
C195  C     C_R   0.269951 0.152245 0.062788 0.072517
C196  C     C_R   0.794934 0.692154 0.135537 0.072181
C197  C     C_R   0.625777 0.609443 0.572155 -0.137351
C198  C     C_R   0.365064 0.717336 0.579287 0.591302
C199  C     C_R   0.355123 0.418891 0.428976 -0.144629
C200  C     C_R   0.374223 0.609443 0.427845 -0.137351
C201  C     C_R   0.644877 0.418891 0.571024 -0.144628
C202  C     C_R   0.125777 0.109443 0.572155 -0.137350
C203  C     C_R   0.855123 0.918891 0.428976 -0.144628
C204  C     C_R   0.874223 0.109443 0.427845 -0.137351
C205  C     C_R   0.144876 0.918891 0.571024 -0.144628
C206  C     C_R   0.731581 0.207148 0.821718 -0.215380
C207  C     C_R   0.199469 0.626759 0.967255 -0.205729
C208  C     C_R   0.268419 0.207148 0.178283 -0.215380
H1    H     H_    0.518429 0.576077 0.767472 0.093135
H2    H     H_    0.296809 0.608385 0.100905 0.118422
H3    H     H_    0.164582 0.414986 0.562573 0.150021
H4    H     H_    0.172313 0.416222 0.668681 0.163746
H5    H     H_    0.669598 0.863851 0.294103 0.093011
H6    H     H_    0.657407 0.943747 0.277070 0.170811
H7    H     H_    0.606244 0.894205 0.260950 0.136882
H8    H     H_    0.443040 0.706036 0.444979 0.106582
H9    H     H_    0.433910 0.786187 0.440472 0.069211
H10   H     H_    0.403717 0.708088 0.278856 0.210869
H11   H     H_    0.401990 0.788052 0.282803 0.201567
H12   H     H_    0.500943 0.789607 0.391668 0.264195
H13   H     H_    0.340773 0.290587 0.233776 0.114750
H14   H     H_    0.482573 0.753044 0.289309 0.275677
H15   H     H_    0.502044 0.709028 0.386310 0.270132
H16   H     H_    0.703955 0.522465 0.503233 0.110563
H17   H     H_    0.773657 0.514956 0.541361 0.116000
H18   H     H_    0.730521 0.566120 0.649278 0.197572
H19   H     H_    0.799518 0.556945 0.688600 0.198217
H20   H     H_    0.790893 0.626644 0.574755 0.261257
H21   H     H_    0.766335 0.661483 0.636297 0.271631
H22   H     H_    0.720257 0.633053 0.526273 0.290150
H23   H     H_    0.556960 0.706036 0.555022 0.106583
H24   H     H_    0.703191 0.608384 0.899095 0.118422
H25   H     H_    0.566090 0.786186 0.559528 0.069211
H26   H     H_    0.596283 0.708089 0.721145 0.210869
H27   H     H_    0.598010 0.788053 0.717197 0.201567
H28   H     H_    0.499057 0.789607 0.608333 0.264194
H29   H     H_    0.517427 0.753044 0.710693 0.275676
H30   H     H_    0.497956 0.709027 0.613691 0.270132
H31   H     H_    0.296044 0.522465 0.496767 0.110563
H32   H     H_    0.226342 0.514956 0.458638 0.116000
H33   H     H_    0.269479 0.566120 0.350722 0.197572
H34   H     H_    0.200482 0.556945 0.311400 0.198217
H35   H     H_    0.159227 0.790587 0.766224 0.114750
H36   H     H_    0.209107 0.626644 0.425245 0.261257
H37   H     H_    0.233665 0.661483 0.363703 0.271630
H38   H     H_    0.279743 0.633053 0.473727 0.290152
H39   H     H_    0.943040 0.206036 0.444979 0.106583
H40   H     H_    0.933910 0.286186 0.440472 0.069211
H41   H     H_    0.903717 0.208088 0.278855 0.210869
H42   H     H_    0.901990 0.288052 0.282803 0.201568
H43   H     H_    0.000943 0.289607 0.391668 0.264195
H44   H     H_    0.982573 0.253044 0.289308 0.275677
H45   H     H_    0.002044 0.209028 0.386310 0.270133
H46   H     H_    0.796809 0.108385 0.100905 0.118422
H47   H     H_    0.203956 0.022465 0.503233 0.110563
H48   H     H_    0.273657 0.014956 0.541362 0.116000
H49   H     H_    0.230521 0.066120 0.649278 0.197572
H50   H     H_    0.299518 0.056945 0.688600 0.198217
H51   H     H_    0.290893 0.126644 0.574755 0.261257
H52   H     H_    0.266335 0.161483 0.636297 0.271630
H53   H     H_    0.220257 0.133053 0.526274 0.290151
H54   H     H_    0.056960 0.206037 0.555021 0.106582
H55   H     H_    0.066091 0.286187 0.559529 0.069213
H56   H     H_    0.096283 0.208088 0.721144 0.210869
H57   H     H_    0.840773 0.790587 0.233776 0.114750
H58   H     H_    0.098011 0.288052 0.717198 0.201567
H59   H     H_    0.999057 0.289608 0.608333 0.264194
H60   H     H_    0.017427 0.253045 0.710692 0.275676
H61   H     H_    0.997956 0.209028 0.613690 0.270132
H62   H     H_    0.796045 0.022465 0.496768 0.110563
H63   H     H_    0.726343 0.014956 0.458639 0.116000
H64   H     H_    0.769479 0.066120 0.350723 0.197573
H65   H     H_    0.700482 0.056945 0.311401 0.198216
H66   H     H_    0.709108 0.126644 0.425247 0.261257
H67   H     H_    0.733666 0.161483 0.363705 0.271629
H68   H     H_    0.203191 0.108384 0.899095 0.118422
H69   H     H_    0.779743 0.133053 0.473728 0.290153
H70   H     H_    0.390158 0.727080 0.749905 0.144707
H71   H     H_    0.445003 0.720281 0.733506 0.133770
H72   H     H_    0.426701 0.659071 0.775339 0.166499
H73   H     H_    0.634571 0.271599 0.465824 0.133242
H74   H     H_    0.657968 0.233774 0.403124 0.142969
H75   H     H_    0.588618 0.248456 0.353578 0.170190
H76   H     H_    0.609842 0.727079 0.250095 0.144707
H77   H     H_    0.554997 0.720281 0.266494 0.133770
H78   H     H_    0.573299 0.659071 0.224661 0.166499
H79   H     H_    0.526487 0.294166 0.795573 0.129153
H80   H     H_    0.365436 0.271607 0.534174 0.133244
H81   H     H_    0.342030 0.233775 0.596856 0.142965
H82   H     H_    0.411381 0.248456 0.646419 0.170191
H83   H     H_    0.890158 0.227080 0.749905 0.144707
H84   H     H_    0.945003 0.220282 0.733506 0.133770
H85   H     H_    0.926702 0.159072 0.775340 0.166499
H86   H     H_    0.134564 0.771607 0.465824 0.133245
H87   H     H_    0.157970 0.733776 0.403142 0.142965
H88   H     H_    0.088619 0.748456 0.353579 0.170191
H89   H     H_    0.109842 0.227079 0.250096 0.144707
H90   H     H_    0.438968 0.625892 0.099958 0.110418
H91   H     H_    0.054998 0.220281 0.266494 0.133770
H92   H     H_    0.073299 0.159071 0.224661 0.166499
H93   H     H_    0.865442 0.771612 0.534175 0.133249
H94   H     H_    0.842028 0.733777 0.596842 0.142964
H95   H     H_    0.911380 0.748455 0.646418 0.170193
H96   H     H_    0.473513 0.294166 0.204427 0.129153
H97   H     H_    0.499419 0.380757 0.283444 0.110578
H98   H     H_    0.561032 0.625892 0.900042 0.110418
H99   H     H_    0.026487 0.794166 0.795573 0.129154
H100  H     H_    0.938968 0.125892 0.099958 0.110418
H101  H     H_    0.973514 0.794165 0.204427 0.129153
H102  H     H_    0.061032 0.125892 0.900042 0.110418
H103  H     H_    0.387446 0.664900 0.949350 0.118489
H104  H     H_    0.556794 0.202031 0.880531 0.127523
H105  H     H_    0.612554 0.664900 0.050651 0.118490
H106  H     H_    0.443207 0.202030 0.119470 0.127523
H107  H     H_    0.887446 0.164900 0.949350 0.118489
H108  H     H_    0.481571 0.576077 0.232528 0.093136
H109  H     H_    0.056794 0.702031 0.880531 0.127523
H110  H     H_    0.112554 0.164900 0.050651 0.118489
H111  H     H_    0.943207 0.702030 0.119470 0.127523
H112  H     H_    0.712382 0.231879 0.760291 0.129822
H113  H     H_    0.214446 0.591148 0.015421 0.130841
H114  H     H_    0.287619 0.231879 0.239710 0.129821
H115  H     H_    0.785554 0.591148 0.984580 0.130841
H116  H     H_    0.212382 0.731879 0.760291 0.129821
H117  H     H_    0.714446 0.091148 0.015421 0.130841
H118  H     H_    0.787619 0.731879 0.239710 0.129821
H119  H     H_    0.500581 0.380757 0.716556 0.110577
H120  H     H_    0.285554 0.091148 0.984580 0.130841
H121  H     H_    0.653659 0.622128 0.640222 0.149157
H122  H     H_    0.320492 0.421510 0.362128 0.141549
H123  H     H_    0.346341 0.622128 0.359778 0.149157
H124  H     H_    0.679508 0.421510 0.637872 0.141549
H125  H     H_    0.153659 0.122127 0.640222 0.149157
H126  H     H_    0.820492 0.921510 0.362128 0.141549
H127  H     H_    0.846341 0.122128 0.359778 0.149157
H128  H     H_    0.179508 0.921510 0.637872 0.141549
H129  H     H_    0.553371 0.622424 0.355690 0.148496
H130  H     H_    0.018429 0.076077 0.767472 0.093135
H131  H     H_    0.416131 0.422511 0.643722 0.129343
H132  H     H_    0.446629 0.622424 0.644310 0.148496
H133  H     H_    0.583869 0.422512 0.356278 0.129343
H134  H     H_    0.053371 0.122424 0.355690 0.148496
H135  H     H_    0.916131 0.922511 0.643722 0.129343
H136  H     H_    0.946629 0.122424 0.644310 0.148496
H137  H     H_    0.083869 0.922511 0.356278 0.129344
H138  H     H_    0.340618 0.578790 0.235861 0.090227
H139  H     H_    0.644541 0.380557 0.716936 0.088654
H140  H     H_    0.659382 0.578790 0.764139 0.090226
H141  H     H_    0.999419 0.880757 0.283444 0.110578
H142  H     H_    0.355459 0.380557 0.283064 0.088653
H143  H     H_    0.840618 0.078790 0.235861 0.090227
H144  H     H_    0.144541 0.880557 0.716936 0.088654
H145  H     H_    0.159382 0.078790 0.764139 0.090227
H146  H     H_    0.855459 0.880557 0.283064 0.088653
H147  H     H_    0.828674 0.277211 0.623256 0.167144
H148  H     H_    0.220274 0.793592 0.376061 0.192181
H149  H     H_    0.171326 0.277211 0.376744 0.167145
H150  H     H_    0.779726 0.793591 0.623938 0.192182
H151  H     H_    0.328674 0.777211 0.623257 0.167144
H152  H     H_    0.981571 0.076077 0.232528 0.093136
H153  H     H_    0.720274 0.293593 0.376061 0.192179
H154  H     H_    0.671326 0.777211 0.376744 0.167144
H155  H     H_    0.279726 0.293592 0.623938 0.192180
H156  H     H_    0.803432 0.202980 0.823588 0.130936
H157  H     H_    0.126108 0.626825 0.960657 0.131403
H158  H     H_    0.196569 0.202980 0.176413 0.130936
H159  H     H_    0.873892 0.626825 0.039344 0.131404
H160  H     H_    0.303432 0.702980 0.823587 0.130935
H161  H     H_    0.626108 0.126825 0.960657 0.131403
H162  H     H_    0.696569 0.702980 0.176413 0.130935
H163  H     H_    0.000581 0.880757 0.716556 0.110577
H164  H     H_    0.373892 0.126825 0.039343 0.131403
H165  H     H_    0.384594 0.879714 0.421752 0.105691
H166  H     H_    0.335421 0.914985 0.437429 0.150020
H167  H     H_    0.327686 0.916222 0.331319 0.163747
H168  H     H_    0.830401 0.363851 0.705897 0.093011
H169  H     H_    0.842593 0.443746 0.722931 0.170811
H170  H     H_    0.893756 0.394205 0.739051 0.136882
H171  H     H_    0.615406 0.879714 0.578252 0.105693
H172  H     H_    0.664578 0.914984 0.562570 0.150020
H173  H     H_    0.672316 0.916223 0.668682 0.163747
H174  H     H_    0.659227 0.290587 0.766224 0.114750
H175  H     H_    0.169599 0.363851 0.294103 0.093011
H176  H     H_    0.157407 0.443746 0.277070 0.170811
H177  H     H_    0.106244 0.394205 0.260949 0.136882
H178  H     H_    0.884594 0.379713 0.421748 0.105693
H179  H     H_    0.835423 0.414984 0.437430 0.150019
H180  H     H_    0.827684 0.416223 0.331318 0.163747
H181  H     H_    0.330401 0.863851 0.705897 0.093011
H182  H     H_    0.342593 0.943747 0.722931 0.170811
H183  H     H_    0.393756 0.894205 0.739051 0.136882
H184  H     H_    0.115405 0.379716 0.578243 0.105689
N1    N     N_R   0.532910 0.558440 0.665240 -0.042169
N2    N     N_R   0.402970 0.441090 0.454460 -0.049515
N3    N     N_R   0.402970 0.558910 0.454460 -0.052917
N4    N     N_R   0.597030 0.441090 0.545540 -0.049515
N5    N     N_R   0.097030 0.058910 0.545540 -0.052917
N6    N     N_R   0.902970 0.941090 0.454460 -0.049515
N7    N     N_R   0.902970 0.058910 0.454460 -0.052916
N8    N     N_R   0.097030 0.941090 0.545540 -0.049515
N9    N     N_R   0.566200 0.559270 0.454460 -0.056619
N10   N     N_R   0.433800 0.440730 0.545540 -0.055181
N11   N     N_R   0.433800 0.559270 0.545540 -0.056619
N12   N     N_R   0.467090 0.441560 0.334760 -0.038542
N13   N     N_R   0.566200 0.440730 0.454460 -0.055182
N14   N     N_R   0.066200 0.059270 0.454460 -0.056619
N15   N     N_R   0.933800 0.940730 0.545540 -0.055181
N16   N     N_R   0.933800 0.059270 0.545540 -0.056619
N17   N     N_R   0.066200 0.940730 0.454460 -0.055181
N18   N     N_R   0.421050 0.559750 0.334770 -0.039487
N19   N     N_R   0.578950 0.440250 0.665230 -0.037484
N20   N     N_R   0.578950 0.559750 0.665230 -0.039487
N21   N     N_R   0.421050 0.440250 0.334770 -0.037484
N22   N     N_R   0.921050 0.059750 0.334770 -0.039487
N23   N     N_R   0.467090 0.558440 0.334760 -0.042169
N24   N     N_R   0.078950 0.940250 0.665230 -0.037484
N25   N     N_R   0.078950 0.059750 0.665230 -0.039487
N26   N     N_R   0.921050 0.940250 0.334770 -0.037484
N27   N     N_R   0.532910 0.441560 0.665240 -0.038542
N28   N     N_R   0.032910 0.058440 0.665240 -0.042169
N29   N     N_R   0.967090 0.941560 0.334760 -0.038541
N30   N     N_R   0.967090 0.058440 0.334760 -0.042169
N31   N     N_R   0.032910 0.941560 0.665240 -0.038542
N32   N     N_R   0.597030 0.558910 0.545540 -0.052917
Ni1   Ni    Ni4+2 0.483090 0.500000 0.604440 0.209280
Ni2   Ni    Ni4+2 0.516910 0.500000 0.395560 0.209280
Ni3   Ni    Ni4+2 0.983090 1.000000 0.604440 0.209280
Ni4   Ni    Ni4+2 0.016910 1.000000 0.395560 0.209280
Ni5   Ni    Ni4+2 0.586780 0.500000 0.604440 0.210408
Ni6   Ni    Ni4+2 0.413220 0.500000 0.395560 0.210408
Ni7   Ni    Ni4+2 0.086780 1.000000 0.604440 0.210408
Ni8   Ni    Ni4+2 0.913220 1.000000 0.395560 0.210408
O1    O     O_3   0.311805 0.835374 0.365385 -0.578728
O2    O     O_3   0.746385 0.460086 0.602910 -0.664660
O3    O     O_3   0.635469 0.734230 0.627564 -0.626374
O4    O     O_3   0.253615 0.460086 0.397090 -0.664659
O5    O     O_3   0.864531 0.234230 0.372436 -0.626374
O6    O     O_3   0.246385 0.960086 0.602910 -0.664660
O7    O     O_3   0.135469 0.234230 0.627564 -0.626374
O8    O     O_3   0.753615 0.960086 0.397091 -0.664660
O9    O     O_3   0.374633 0.674714 0.642300 -0.611922
O10   O     O_3   0.633071 0.321870 0.366378 -0.611308
O11   O     O_3   0.625367 0.674714 0.357700 -0.611922
O12   O     O_3   0.835884 0.411491 0.608940 -0.618228
O13   O     O_3   0.366929 0.321869 0.633621 -0.611306
O14   O     O_3   0.874633 0.174715 0.642300 -0.611923
O15   O     O_3   0.133071 0.821869 0.366378 -0.611306
O16   O     O_3   0.125368 0.174714 0.357700 -0.611922
O17   O     O_3   0.866928 0.821868 0.633621 -0.611304
O18   O     O_3   0.688195 0.835374 0.634616 -0.578727
O19   O     O_3   0.164116 0.411491 0.391060 -0.618229
O20   O     O_3   0.811805 0.335373 0.365384 -0.578727
O21   O     O_3   0.335884 0.911491 0.608940 -0.618228
O22   O     O_3   0.188194 0.335374 0.634615 -0.578728
O23   O     O_3   0.664116 0.911491 0.391061 -0.618228
O24   O     O_3   0.364531 0.734230 0.372436 -0.626373

loop_
_geom_bond_atom_site_label_1
_geom_bond_atom_site_label_2
_ccdc_geom_bond_type
C61   C70   A    
C17   N9    A    
C204  N7    A    
C31   C42   A    
C96   H29   S    
C150  C185  A    
C6    C196  A    
C18   H131  S    
C80   O12   S    
C136  C162  A    
C82   H177  S    
C4    C194  A    
C82   H176  S    
C124  C133  A    
C57   C76   A    
C23   H136  S    
N25   Ni7   S    
C203  H126  S    
N26   Ni8   S    
C54   C63   A    
C12   H160  S    
C108  C109  S    
C187  H163  S    
N24   N31   A    
C119  H83   S    
N8    N17   A    
C2    C90   A    
C22   N15   A    
C109  H61   S    
C81   H173  S    
C189  C194  A    
C190  C206  A    
C162  C171  A    
N4    Ni5   S    
C94   H23   S    
C62   O2    S    
C4    C12   A    
C25   H137  S    
C60   O23   S    
C204  H127  S    
C152  C188  A    
C21   C48   A    
C33   N26   A    
C56   O20   S    
C46   C124  A    
C116  H73   S    
C130  C134  S    
C111  H64   S    
C109  H60   S    
C166  H13   S    
C104  C105  S    
C202  N5    A    
C114  H67   S    
C10   H158  S    
C17   H129  S    
N32   Ni5   S    
C166  C174  A    
C150  C159  A    
C39   C154  A    
C192  C195  A    
C9    C207  A    
N16   Ni3   S    
C179  C188  A    
C162  H2    S    
C172  C190  A    
C173  C191  A    
N13   Ni2   S    
N1    N20   A    
C45   C200  A    
C104  O6    S    
C23   N16   A    
C17   C43   A    
C53   C128  A    
C18   C44   A    
C164  C173  A    
C26   C37   A    
C80   H170  S    
C99   H38   S    
C108  H58   S    
C163  C172  A    
C47   C71   S    
C22   C49   A    
C41   C176  A    
C173  C182  A    
C115  O9    S    
C2    C71   A    
C91   O2    S    
N22   N30   A    
C28   N20   A    
C33   H146  S    
C68   C77   A    
C79   C127  A    
C141  C168  A    
C5    H117  S    
C146  C181  A    
C122  H94   S    
C24   O13   S    
C13   C72   A    
C31   N24   A    
C88   H11   S    
C164  H24   S    
C103  H43   S    
C132  H108  S    
C120  H86   S    
C100  H39   S    
C136  C153  A    
C8    H156  S    
C61   O24   S    
C108  H56   S    
C152  H111  S    
N27   Ni1   S    
C98   H34   S    
C20   C47   A    
C3    C11   A    
C165  H141  S    
C178  C186  A    
C78   H165  S    
C206  H112  S    
C88   C89   S    
C139  C157  A    
C98   C99   S    
C117  O11   S    
C158  H100  S    
C116  H75   S    
C29   N21   A    
C91   H16   S    
C116  O10   S    
C175  C193  A    
C200  N3    A    
C42   C187  A    
C151  C186  A    
C2    O10   S    
C105  H50   S    
C38   C143  A    
C48   C76   S    
C69   C77   A    
C86   H6    S    
C97   C98   S    
C177  C185  A    
C28   H140  S    
C197  H121  S    
N3    N11   A    
C54   O18   S    
C124  H148  S    
C50   C74   S    
C57   C125  A    
C26   N18   A    
C122  O17   S    
C19   H132  S    
C15   C182  A    
C48   C202  A    
C121  H92   S    
N8    Ni7   S    
C99   H36   S    
C6    H118  S    
C10   C208  A    
C41   C140  S    
C59   C67   A    
C191  C196  A    
C172  C181  A    
C141  C159  A    
C3    H115  S    
C92   H19   S    
C18   N10   A    
C149  C184  A    
N12   Ni2   S    
C107  C108  S    
C118  H81   S    
C203  N6    A    
C111  C114  S    
C14   H161  S    
C149  C158  A    
C152  C161  A    
C114  H69   S    
N19   Ni5   S    
C140  C167  A    
C83   H180  S    
C70   C198  A    
C79   C198  A    
C147  H105  S    
C170  H57   S    
C44   C73   S    
C169  H68   S    
C85   H3    S    
C46   C75   A    
C126  H150  S    
C1    C34   A    
C97   H31   S    
C33   C40   A    
C113  C130  A    
C69   O8    S    
C1    H1    S    
C11   C188  A    
C56   C131  A    
C120  H88   S    
C91   C92   S    
C137  C163  A    
N31   Ni3   S    
C148  H106  S    
C34   C138  S    
C151  H110  S    
C65   C74   A    
C202  H125  S    
N6    N15   A    
C55   O19   S    
C80   H168  S    
N2    Ni6   S    
N26   N29   A    
C55   C130  A    
C42   C141  S    
C205  N8    A    
C65   O5    S    
C40   C165  A    
C115  H70   S    
N22   Ni8   S    
C12   C180  A    
N1    Ni1   S    
C106  H51   S    
C64   O4    S    
N10   Ni1   S    
C26   H138  S    
C87   H8    S    
C117  H77   S    
C128  C131  S    
C176  N30   A    
C32   H145  S    
C167  C175  A    
C83   O20   S    
N9    Ni2   S    
C81   O18   S    
C96   H30   S    
C54   C129  A    
C89   H15   S    
C19   C45   A    
C68   O17   S    
C59   C134  A    
C207  H113  S    
C170  C179  A    
C117  H76   S    
C35   C123  A    
C60   C69   A    
C148  C183  A    
C10   C186  A    
C49   C77   S    
C62   C71   A    
C78   H167  S    
C148  C157  A    
C102  C103  S    
C36   C139  S    
C84   H181  S    
C123  H147  S    
C81   H172  S    
C92   H18   S    
C27   N19   A    
C83   H178  S    
C205  H128  S    
N5    Ni7   S    
N28   Ni3   S    
C198  O9    S    
C13   C101  A    
N11   Ni1   S    
C174  C192  A    
N9    N32   A    
C101  C129  A    
C125  C134  A    
C115  H72   S    
C199  H122  S    
C87   C88   S    
C49   C203  A    
C35   C74   A    
N23   Ni2   S    
C144  C161  A    
C102  H41   S    
C119  H85   S    
C116  H74   S    
C109  H59   S    
C32   N25   A    
C15   H162  S    
C63   O3    S    
C21   N14   A    
C150  H109  S    
N30   Ni4   S    
C100  O5    S    
C30   H143  S    
C104  H47   S    
C35   O14   S    
C24   C73   A    
C27   C38   A    
C138  C156  A    
C168  C177  A    
C144  C170  A    
N15   Ni3   S    
C32   C39   A    
C30   N22   A    
C165  N29   A    
C190  C193  A    
C52   C127  A    
C146  C155  A    
C112  H97   S    
C36   C112  A    
C121  H89   S    
C95   H26   S    
C84   O21   S    
C99   H37   S    
C118  H80   S    
C28   C34   A    
C110  H62   S    
C179  C196  A    
C58   C133  A    
N20   Ni5   S    
C82   H175  S    
C177  C194  A    
N18   Ni6   S    
C122  H95   S    
C85   O22   S    
C187  N31   A    
C23   C50   A    
C156  H98   S    
C110  C111  S    
C119  H84   S    
C84   H183  S    
C100  H40   S    
C201  N4    A    
C78   O1    S    
C39   C142  S    
C121  O16   S    
C51   C205  A    
C37   C136  S    
C154  H130  S    
C8    C206  A    
C147  C156  A    
C5    C14   A    
C142  C169  A    
N2    N10   A    
C147  C182  A    
C160  H102  S    
C7    C16   A    
C78   H166  S    
C126  C135  A    
C103  H45   S    
C118  O13   S    
C157  H96   S    
C7    C195  A    
C14   C181  A    
C20   N13   A    
C114  H66   S    
C5    C193  A    
C115  H71   S    
C52   O1    S    
C105  H49   S    
C123  C131  A    
C45   C70   S    
C127  C133  S    
C174  C183  A    
C163  H174  S    
C37   C132  A    
C94   H25   S    
C27   H139  S    
C105  C106  S    
C66   O6    S    
N18   N23   A    
C89   H12   S    
C87   O24   S    
C189  C207  A    
C66   C75   A    
N17   Ni4   S    
C143  N27   A    
C92   C93   S    
C121  H91   S    
C38   C137  S    
C107  H54   S    
C80   H169  S    
C94   C95   S    
C201  H124  S    
C132  N23   A    
C110  O8    S    
C63   C72   A    
C57   O16   S    
C120  O15   S    
C118  H82   S    
C175  C184  A    
C145  C180  A    
C153  H90   S    
C83   H179  S    
C43   C72   S    
C122  H93   S    
C143  H119  S    
C95   C96   S    
C20   H133  S    
C16   C183  A    
C22   H135  S    
C29   C36   A    
C137  C155  A    
C82   O19   S    
C67   O7    S    
C103  H44   S    
C51   C75   S    
C199  N2    A    
C9    C185  A    
C110  H63   S    
C168  H35   S    
C107  O7    S    
C56   C65   A    
C1    N1    A    
C171  C189  A    
C101  H154  S    
C21   H134  S    
C98   H33   S    
C6    C15   A    
C86   H7    S    
C58   C66   A    
C90   H153  S    
C88   H10   S    
N21   Ni6   S    
C140  C158  A    
C8    C184  A    
C87   H9    S    
C24   C113  A    
C167  H46   S    
C129  C135  S    
C91   H17   S    
C106  H52   S    
C192  C208  A    
C95   H27   S    
N7    Ni8   S    
N5    N14   A    
C149  H107  S    
C125  H149  S    
C94   O3    S    
N14   Ni4   S    
C197  N32   A    
C85   H184  S    
C176  H152  S    
C43   C197  A    
C89   H14   S    
C93   H22   S    
N6    Ni8   S    
N19   N27   A    
C25   N17   A    
C106  H53   S    
C139  C166  A    
C25   C51   A    
C58   O21   S    
C13   O11   S    
C3    C191  A    
C53   C62   A    
C145  H103  S    
C119  O14   S    
C146  H104  S    
C46   O15   S    
C64   C73   A    
C55   C64   A    
C47   C201  A    
C100  C102  S    
C96   H28   S    
C30   C41   A    
C60   C135  A    
C84   H182  S    
C81   H171  S    
C154  N28   A    
N7    N16   A    
C53   O12   S    
C200  H123  S    
C161  H101  S    
C29   H142  S    
C171  C180  A    
C59   O22   S    
C155  H79   S    
C31   H144  S    
C85   H4    S    
C68   C126  A    
C169  C178  A    
N25   N28   A    
C113  H155  S    
C93   H21   S    
C97   H32   S    
C102  H42   S    
C120  H87   S    
C142  C160  A    
C97   O4    S    
C52   C61   A    
C107  H55   S    
C50   C204  A    
C208  H114  S    
C178  C195  A    
C104  H48   S    
C40   C144  S    
C86   O23   S    
C151  C160  A    
C86   H5    S    
C145  C153  A    
C93   H20   S    
C79   H151  S    
N29   Ni4   S    
C16   H164  S    
N24   Ni7   S    
N12   N21   A    
C111  H65   S    
C9    H157  S    
C11   H159  S    
C112  N12   A    
C44   C199  A    
C159  H99   S    
C7    H120  S    
C4    H116  S    
C90   C128  A    
N3    Ni6   S    
C138  C164  A    
C67   C76   A    
C117  H78   S    
N4    N13   A    
C19   N11   A    
