data_mof_unit_27516.cif
_audit_creation_date              2012-10-26T21:11:04-0400
_audit_creation_method            fapswitch 2.2
_symmetry_space_group_name_H-M    P1
_symmetry_Int_Tables_number       1
_space_group_crystal_system       triclinic
_cell_length_a                    10.945211
_cell_length_b                    10.943868
_cell_length_c                    13.134316
_cell_angle_alpha                 91.682758
_cell_angle_beta                  91.969058
_cell_angle_gamma                 87.732412
_cell_volume                      1570.48888253

loop_
_atom_site_label
_atom_site_type_symbol
_atom_type_description
_atom_site_fract_x
_atom_site_fract_y
_atom_site_fract_z
_atom_type_partial_charge
C1    C     C_R   0.494117 0.259838 0.498265 0.611025
C2    C     C_R   0.487615 0.857823 0.761154 0.280323
C3    C     C_R   0.597124 0.118934 0.327074 -0.036780
C4    C     C_R   0.409223 0.881122 0.674796 -0.036686
C5    C     C_R   0.719788 0.157151 0.328954 0.008540
C6    C     C_R   0.284187 0.851996 0.675819 0.011826
C7    C     C_R   0.763137 0.214315 0.242174 0.030806
C8    C     C_R   0.239607 0.794553 0.762068 0.023504
C9    C     C_R   0.682780 0.238505 0.159401 -0.172463
C10   C     C_R   0.319350 0.771522 0.845651 -0.197425
C11   C     C_R   0.564681 0.931342 0.423531 -0.040736
C12   C     C_R   0.507715 0.739964 0.501879 0.596543
C13   C     C_R   0.440627 0.068378 0.577779 -0.022817
C14   C     C_R   0.512854 0.872780 0.505116 -0.003168
C15   C     C_R   0.491422 0.126940 0.495726 0.007324
C16   C     C_R   0.259334 0.500689 0.498224 0.568255
C17   C     C_R   0.740612 0.496588 0.501714 0.580629
C18   C     C_R   0.456610 0.941559 0.584738 -0.113511
C19   C     C_R   0.549410 0.058339 0.416878 -0.118309
C20   C     C_1   0.500098 0.500467 0.173618 0.122019
C21   C     C_1   0.500058 0.499781 0.826392 0.142903
C22   C     C_1   0.500195 0.500387 0.050691 -0.030014
C23   C     C_R   0.872963 0.496498 0.504038 0.025567
C24   C     C_1   0.500183 0.500011 0.949325 -0.016496
C25   C     C_R   0.104978 0.600210 0.136559 0.012464
C26   C     C_R   0.904691 0.365520 0.855805 0.046135
C27   C     C_R   0.077679 0.602076 0.241556 0.210836
C28   C     C_R   0.924889 0.372835 0.750077 0.143301
C29   C     C_R   0.105840 0.498402 0.300547 0.010401
C30   C     C_R   0.895023 0.482133 0.698841 0.039547
C31   C     C_R   0.170718 0.396024 0.256956 0.213380
C32   C     C_R   0.833380 0.580633 0.750941 0.231923
C33   C     C_R   0.203860 0.398701 0.155472 0.009406
C34   C     C_R   0.126956 0.497835 0.495862 0.000569
C35   C     C_R   0.807875 0.569655 0.853525 -0.083345
C36   C     C_R   0.169154 0.496747 0.093817 0.164535
C37   C     C_R   0.845415 0.464873 0.907419 0.201039
C38   C     C_R   0.929392 0.496780 0.410065 -0.034040
C39   C     C_R   0.070581 0.495667 0.589726 -0.025133
C40   C     C_2   0.798233 0.140117 0.423011 0.295383
C41   C     C_2   0.203057 0.885741 0.587214 0.318152
C42   C     C_2   0.892609 0.243600 0.231193 0.321653
C43   C     C_2   0.112855 0.752692 0.767973 0.264746
C44   C     C_2   0.641110 0.862514 0.347373 0.259991
C45   C     C_R   0.944317 0.494472 0.595512 0.042983
C46   C     C_2   0.364602 0.137056 0.654339 0.279875
C47   C     C_2   0.064023 0.703880 0.072046 0.222975
C48   C     C_2   0.954784 0.258252 0.912854 0.305610
C49   C     C_R   0.055640 0.496405 0.404315 0.013133
C50   C     C_R   0.562956 0.201036 0.158194 -0.060818
C51   C     C_R   0.440882 0.803763 0.845419 -0.050892
C52   C     C_R   0.518909 0.140180 0.240122 0.280094
Cu1   Cu    Cu3+1 0.499990 0.499990 0.592680 1.062700
Cu2   Cu    Cu3+1 0.500010 0.500010 0.407320 1.058601
H1    H     H_    0.253214 0.320271 0.122430 0.197522
H2    H     H_    0.787708 0.537062 0.035345 0.335734
H3    H     H_    0.782425 0.066217 0.473607 0.139387
H4    H     H_    0.232083 0.864303 0.510328 0.101334
H5    H     H_    0.915220 0.323052 0.189082 0.143445
H6    H     H_    0.080437 0.721667 0.839491 0.095248
H7    H     H_    0.636952 0.887800 0.268034 0.128728
H8    H     H_    0.371566 0.113561 0.734072 0.113727
H9    H     H_    0.125023 0.739355 0.018088 0.083545
H10   H     H_    0.031065 0.203023 0.883765 0.128086
H11   H     H_    0.043702 0.777993 0.254166 0.371544
H12   H     H_    0.761745 0.645908 0.892609 0.171618
H13   H     H_    0.955166 0.198320 0.724689 0.342203
H14   H     H_    0.165989 0.294835 0.377065 0.364310
H15   H     H_    0.821611 0.688211 0.634311 0.359580
H16   H     H_    0.377553 0.060801 0.292953 0.351471
H17   H     H_    0.633452 0.923390 0.703503 0.348819
H18   H     H_    0.874725 0.496747 0.339559 0.153970
H19   H     H_    0.125339 0.494179 0.660183 0.163288
H20   H     H_    0.713726 0.283567 0.093394 0.200026
H21   H     H_    0.288229 0.726294 0.911523 0.104709
H22   H     H_    0.503588 0.218839 0.092177 0.148688
H23   H     H_    0.500121 0.784961 0.911316 0.148815
H24   H     H_    0.149171 0.545965 0.952055 0.312361
N1    N     N_1   0.500030 0.500030 0.268070 -0.172735
N2    N     N_1   0.499970 0.499970 0.731930 -0.167873
O1    O     O_R   0.499980 0.319630 0.578260 -0.481482
O2    O     O_3   0.828906 0.459853 0.011002 -0.683133
O3    O     O_2   0.877979 0.211115 0.447533 -0.450020
O4    O     O_2   0.107271 0.944583 0.599249 -0.393565
O5    O     O_2   0.975085 0.175328 0.263220 -0.403801
O6    O     O_2   0.043943 0.748619 0.693287 -0.464989
O7    O     O_2   0.713697 0.780895 0.373697 -0.454590
O8    O     O_2   0.289279 0.216233 0.627972 -0.445361
O9    O     O_2   0.960734 0.749417 0.077821 -0.465270
O10   O     O_2   0.911865 0.229647 0.992804 -0.468408
O11   O     O_3   0.023003 0.703332 0.289535 -0.636851
O12   O     O_R   0.500020 0.680370 0.421740 -0.480745
O13   O     O_3   0.976695 0.276029 0.694397 -0.635324
O14   O     O_3   0.202591 0.291116 0.309285 -0.610572
O15   O     O_3   0.797908 0.689730 0.706230 -0.608169
O16   O     O_3   0.398969 0.104883 0.231864 -0.656765
O17   O     O_3   0.609588 0.886491 0.767282 -0.645917
O18   O     O_R   0.500000 0.319650 0.421740 -0.483751
O19   O     O_R   0.500000 0.680350 0.578260 -0.491306
O20   O     O_R   0.319630 0.500000 0.578260 -0.489910
O21   O     O_R   0.680370 0.500000 0.421740 -0.486333
O22   O     O_R   0.319650 0.500020 0.421740 -0.495627
O23   O     O_R   0.680350 0.499980 0.578260 -0.498476
O24   O     O_3   0.197279 0.484858 0.992121 -0.713247

loop_
_geom_bond_atom_site_label_1
_geom_bond_atom_site_label_2
_ccdc_geom_bond_type
C33   H1    S    
C23   C45   A    
C27   C29   A    
C14   C18   A    
C30   C45   S    
H16   O16   S    
C8    C43   S    
C38   C49   A    
C29   C49   S    
Cu1   Cu2   S    
Cu1   O19   S    
C15   C19   A    
H17   O17   S    
C11   C19   A    
C17   C23   S    
C13   C18   A    
C46   H8    S    
C35   C37   A    
C41   H4    S    
C47   H9    S    
C13   C46   S    
C11   C14   A    
C48   H10   S    
C1    O1    A    
C33   C36   A    
Cu1   O1    S    
C7    C42   S    
C17   O21   A    
C12   O19   A    
Cu2   O21   S    
C16   C34   S    
C2    O17   S    
C6    C41   S    
C50   C52   A    
C31   C33   A    
C3    C19   S    
C1    C15   S    
C44   O7    D    
C25   C47   S    
C26   C48   S    
C39   C45   A    
C4    C18   S    
C48   O10   D    
C47   O9    D    
C40   O3    D    
C10   C51   A    
C12   O12   A    
C46   O8    D    
Cu1   O20   S    
C38   H18   S    
H24   O24   S    
C34   C39   A    
C32   C35   A    
Cu1   N2    S    
C4    C6    A    
C5    C7    A    
C16   O20   A    
C6    C8    A    
C35   H12   S    
C3    C5    A    
C41   O4    D    
H14   O14   S    
C28   O13   S    
C1    O18   A    
C2    C4    A    
C51   H23   S    
Cu2   O12   S    
C50   H22   S    
C10   H21   S    
C11   C44   S    
C42   O5    D    
C27   O11   S    
C43   H6    S    
C16   O22   A    
C20   C22   S    
C13   C15   A    
C22   C24   T    
C37   O2    S    
C21   C24   S    
C9    H20   S    
C23   C38   A    
Cu2   N1    S    
H11   O11   S    
C34   C49   A    
C40   H3    S    
C20   N1    T    
C43   O6    D    
Cu2   O22   S    
C9    C50   A    
C12   C14   S    
H15   O15   S    
C42   H5    S    
C3    C52   A    
C26   C37   A    
H2    O2    S    
C44   H7    S    
C25   C27   A    
C31   O14   S    
C26   C28   A    
C36   O24   S    
C28   C30   A    
C17   O23   A    
C29   C31   A    
C30   C32   A    
Cu1   O23   S    
C21   N2    T    
C52   O16   S    
C39   H19   S    
C2    C51   A    
C25   C36   A    
C7    C9    A    
C32   O15   S    
C8    C10   A    
C5    C40   S    
H13   O13   S    
Cu2   O18   S    
