data_mof_unit_32703.cif
_audit_creation_date              2013-03-05T15:43:04-0500
_audit_creation_method            fapswitch 2.2
_symmetry_space_group_name_H-M    P1
_symmetry_Int_Tables_number       1
_space_group_crystal_system       triclinic
_cell_length_a                    9.691872
_cell_length_b                    10.920422
_cell_length_c                    15.490349
_cell_angle_alpha                 90.162441
_cell_angle_beta                  73.681671
_cell_angle_gamma                 90.664079
_cell_volume                      1573.33632563

loop_
_atom_site_label
_atom_site_type_symbol
_atom_site_description
_atom_site_fract_x
_atom_site_fract_y
_atom_site_fract_z
_atom_type_partial_charge
O1    O     O_R   0.117050 0.321960 0.499980 -0.577972
O2    O     O_R   0.882890 0.321920 0.500020 -0.548868
C1    C     C_R   0.000408 0.265315 0.496731 0.899109
O3    O     O_R   0.052910 0.500040 0.629810 -0.565510
O4    O     O_R   0.818750 0.499990 0.629840 -0.586332
C2    C     C_R   0.916751 0.502108 0.672134 0.790393
Cu1   Cu    Cu3+1 0.138640 0.500020 0.499980 0.979107
Cu2   Cu    Cu3+1 0.861360 0.499980 0.500020 0.970301
O5    O     O_R   0.117110 0.678080 0.499980 -0.587413
O6    O     O_R   0.882950 0.678040 0.500020 -0.578523
O7    O     O_R   0.181250 0.500010 0.370160 -0.562167
O8    O     O_R   0.947090 0.499960 0.370190 -0.571083
C3    C     C_R   0.002005 0.734754 0.497696 0.851186
C4    C     C_R   0.083122 0.497140 0.327919 0.848359
C5    C     C_R   0.869802 0.515606 0.770126 -0.052653
C6    C     C_R   0.128760 0.479155 0.230358 -0.123354
C7    C     C_R   0.904297 0.593431 0.908774 -0.114667
C8    C     C_R   0.957370 0.572774 0.816610 -0.153987
C9    C     C_R   0.729321 0.480981 0.816206 -0.235092
C10   C     C_R   0.668246 0.513551 0.906531 0.076056
C11   C     C_R   0.761613 0.561173 0.954385 0.193914
C12   C     C_R   0.520043 0.492101 0.951958 -0.046175
C13   C     C_R   0.475894 0.494659 0.047937 0.072074
C14   C     C_R   0.582135 0.517042 0.094600 -0.026561
C15   C     C_R   0.716813 0.563888 0.047846 -0.250253
C16   C     C_R   0.414177 0.467495 0.905716 -0.029136
C17   C     C_R   0.281135 0.417204 0.953025 -0.148246
C18   C     C_R   0.233755 0.423534 0.046818 -0.029768
C19   C     C_R   0.327317 0.475742 0.093204 0.079710
C20   C     C_R   0.092017 0.386856 0.095601 0.324061
C21   C     C_R   0.042112 0.414267 0.187337 -0.218464
C22   C     C_R   0.267750 0.513527 0.182349 -0.167663
H1    H     H_    0.793896 0.588161 0.084312 0.136255
H2    H     H_    0.328650 0.570850 0.215689 0.141532
H3    H     H_    0.935314 0.384349 0.225114 0.219081
H4    H     H_    0.208979 0.386962 0.915337 0.235208
H5    H     H_    0.975674 0.631870 0.944812 0.137773
H6    H     H_    0.066459 0.600683 0.781979 0.177020
H7    H     H_    0.670114 0.425562 0.780700 0.154048
C23   C     C_2   0.902159 0.931012 0.474553 -0.242633
C24   C     C_2   0.011034 0.866579 0.487832 -0.307464
H8    H     H_    0.804649 0.884494 0.470032 0.162902
H9    H     H_    0.113677 0.909403 0.485237 0.156433
C25   C     C_2   0.913739 0.063785 0.458820 0.009286
C26   C     C_2   0.997600 0.132677 0.497183 -0.316118
H10   H     H_    0.060317 0.091216 0.537070 0.131202
C27   C     C_2   0.398368 0.427856 0.550669 0.009499
N1    N     N_2   0.346430 0.498660 0.500980 -0.284917
H11   H     H_    0.325885 0.364357 0.595659 0.172211
H12   H     H_    0.413611 0.558769 0.457771 0.188704
C28   C     C_2   0.554192 0.427550 0.550470 -0.017290
N2    N     N_2   0.652550 0.498630 0.501000 -0.284363
H13   H     H_    0.584702 0.363533 0.595106 0.157057
H14   H     H_    0.625443 0.559804 0.458580 0.186255
N3    N     N_R   0.000640 0.315065 0.055769 0.115640
O9    O     O_R   0.932161 0.220357 0.098792 -0.312208
O10   O     O_R   0.963732 0.355992 0.986856 -0.384506
C29   C     C_2   0.830529 0.113299 0.399618 0.436398
H15   H     H_    0.735101 0.064699 0.394011 0.053983
O11   O     O_2   0.871803 0.203348 0.352544 -0.522216
C30   C     C_2   0.568779 0.475702 0.187898 0.395893
H16   H     H_    0.628371 0.522905 0.228051 0.044589
O12   O     O_2   0.498655 0.384271 0.218735 -0.495420
C31   C     C_2   0.428518 0.511253 0.812612 0.310995
H17   H     H_    0.504637 0.583793 0.783446 0.094560
O13   O     O_2   0.353166 0.469053 0.768193 -0.569773

loop_
_geom_bond_atom_site_label_1
_geom_bond_atom_site_label_2
_geom_bond_distance
_ccdc_geom_bond_type
O4    Cu2   1.935927 S    
C5    C9    1.396318 A    
N3    O9    1.301437 A    
C14   C15   1.394769 A    
C14   C30   1.485404 S    
C27   C28   1.509407 S    
C17   H4    1.077927 S    
C6    C22   1.391213 A    
C20   N3    1.438016 S    
Cu2   N2    2.019430 S    
C5    C8    1.398967 A    
C27   N1    1.293754 D    
Cu2   O8    1.948315 S    
Cu1   N1    2.018509 S    
C30   H16   1.085964 S    
C18   C20   1.422736 A    
C7    C8    1.393500 A    
C8    H6    1.083163 S    
Cu1   Cu2   2.687183 S    
C27   H11   1.084608 S    
C7    H5    1.084132 S    
C26   H10   1.084085 S    
C31   H17   1.084936 S    
C6    C21   1.396236 A    
Cu1   O7    1.935927 S    
C24   H9    1.084810 S    
C31   O13   1.221455 D    
C16   C17   1.398621 A    
O4    C2    1.296527 A    
C9    H7    1.079568 S    
O3    Cu1   1.948312 S    
C13   C19   1.426343 A    
N1    H12   1.024943 S    
C18   C19   1.419665 A    
N2    H14   1.025010 S    
O2    C1    1.290539 A    
C19   C22   1.401678 A    
C4    C6    1.463830 S    
N3    O10   1.299313 A    
C20   C21   1.399120 A    
O7    C4    1.297116 A    
C21   H3    1.083250 S    
C29   H15   1.085410 S    
O3    C2    1.298537 A    
C15   H1    1.085903 S    
C10   C12   1.427699 A    
C13   C14   1.433130 A    
C29   O11   1.220567 D    
C28   N2    1.293908 D    
Cu1   O5    1.958057 S    
C23   C25   1.468731 S    
O5    C3    1.291176 A    
C10   C11   1.415148 A    
Cu2   O6    1.953303 S    
C28   H13   1.084747 S    
C12   C16   1.429538 A    
C25   C29   1.487381 S    
C17   C18   1.397062 A    
C30   O12   1.221292 D    
C11   C15   1.390022 A    
C3    C24   1.447138 S    
C23   C24   1.338229 D    
C16   C31   1.489075 S    
O2    Cu2   1.958058 S    
C2    C5    1.464595 S    
O1    Cu1   1.953304 S    
C1    C26   1.448407 S    
C12   C13   1.427173 A    
C7    C11   1.405954 A    
C25   C26   1.354409 D    
C9    C10   1.403993 A    
O8    C4    1.297537 A    
C23   H8    1.087170 S    
O1    C1    1.295665 A    
O6    C3    1.294799 A    
C22   H2    1.080670 S    
