data_mof_unit_56617.cif
_audit_creation_date              2012-12-10T18:30:21-0500
_audit_creation_method            fapswitch 2.2
_symmetry_space_group_name_H-M    P1
_symmetry_Int_Tables_number       1
_space_group_crystal_system       triclinic
_cell_length_a                    14.905037
_cell_length_b                    14.156736
_cell_length_c                    15.493921
_cell_angle_alpha                 90.167402
_cell_angle_beta                  81.129026
_cell_angle_gamma                 103.400492
_cell_volume                      3140.43512761

loop_
_atom_site_label
_atom_site_type_symbol
_atom_type_description
_atom_site_fract_x
_atom_site_fract_y
_atom_site_fract_z
_atom_type_partial_charge
C1    C     C_R   0.559210 0.514302 0.337209 0.884858
C2    C     C_R   0.391167 0.455767 0.080114 -0.236870
C3    C     C_R   0.671274 0.532599 0.968162 -0.230138
C4    C     C_R   0.323426 0.426428 0.026972 -0.218523
C5    C     C_R   0.152696 0.321853 0.403092 -0.340344
C6    C     C_R   0.831048 0.634238 0.648042 -0.346988
C7    C     C_R   0.245311 0.366762 0.403829 -0.015389
C8    C     C_R   0.748673 0.617730 0.613855 -0.015225
C9    C     C_R   0.204011 0.494547 0.488903 0.217816
C10   C     C_R   0.792903 0.496687 0.521686 0.210276
C11   C     C_R   0.107286 0.447181 0.497413 -0.051356
C12   C     C_R   0.440687 0.487622 0.662246 0.892206
C13   C     C_R   0.876722 0.506040 0.558202 -0.050929
C14   C     C_R   0.081898 0.359922 0.451114 0.107359
C15   C     C_R   0.897293 0.579743 0.620113 0.108485
C16   C     C_R   0.499149 0.329329 0.499758 0.873897
C17   C     C_R   0.500912 0.670691 0.500177 0.892226
C18   C     C_R   0.035215 0.483982 0.546994 0.041724
C19   C     C_R   0.943036 0.449995 0.531722 0.040670
C20   C     C_R   0.918913 0.357704 0.496880 -0.255302
C21   C     C_R   0.050363 0.547479 0.615817 -0.254179
C22   C     C_R   0.986619 0.311461 0.455536 0.113281
C23   C     C_R   0.554775 0.522647 0.097272 0.011416
C24   C     C_R   0.983374 0.597299 0.652590 0.111827
C25   C     C_1   0.497803 0.227418 0.499180 -0.221928
C26   C     C_1   0.502627 0.772690 0.500418 -0.197895
C27   C     C_1   0.498362 0.142241 0.499110 -0.019637
C28   C     C_1   0.502610 0.858001 0.500231 -0.013751
C29   C     C_1   0.499996 0.042654 0.499383 0.000095
C30   C     C_1   0.501449 0.957710 0.499772 -0.001171
C31   C     C_R   0.595917 0.524813 0.242416 -0.139739
C32   C     C_R   0.401313 0.478727 0.755519 -0.115763
C33   C     C_R   0.714560 0.519230 0.114617 0.110257
C34   C     C_R   0.435928 0.499473 0.901366 0.019954
C35   C     C_R   0.278285 0.413723 0.878586 0.072486
C36   C     C_R   0.686066 0.513133 0.206172 0.008068
C37   C     C_R   0.313260 0.416722 0.787396 0.031741
C38   C     C_R   0.535068 0.540521 0.186398 0.011575
C39   C     C_R   0.454734 0.530996 0.813609 0.002828
C40   C     C_3   0.814056 0.513711 0.077669 -0.400880
C41   C     C_3   0.878288 0.615830 0.064448 -0.336948
C42   C     C_3   0.978330 0.612192 0.027397 -0.905515
C43   C     C_3   0.173697 0.376197 0.911242 -0.422133
C44   C     C_3   0.116022 0.438081 0.872900 -0.335165
C45   C     C_R   0.648189 0.525444 0.059621 0.074956
C46   C     C_3   0.011395 0.394725 0.897893 -0.906081
C47   C     C_3   0.958900 0.212546 0.414517 -0.424305
C48   C     C_3   0.853773 0.164484 0.426580 -0.358341
C49   C     C_3   0.835624 0.066092 0.383696 -0.867871
C50   C     C_3   0.003853 0.672200 0.722643 -0.423835
C51   C     C_3   0.100304 0.687861 0.751459 -0.359111
C52   C     C_3   0.113842 0.768356 0.817266 -0.884204
C53   C     C_R   0.343931 0.447545 0.936416 0.079910
C54   C     C_R   0.483567 0.502290 0.044714 0.088317
C55   C     C_R   0.507652 0.514830 0.953548 0.089259
C56   C     C_R   0.602604 0.529625 0.916310 -0.237647
H1    H     H_    0.742000 0.540516 0.935007 0.150492
H2    H     H_    0.841323 0.689495 0.696174 0.145593
H3    H     H_    0.527039 0.667818 0.839449 0.191354
H4    H     H_    0.580634 0.614861 0.755204 0.191048
H5    H     H_    0.459187 0.640813 0.168381 0.189528
H6    H     H_    0.399790 0.545211 0.236440 0.204308
H7    H     H_    0.302300 0.311718 0.698529 0.180484
H8    H     H_    0.199926 0.312621 0.756813 0.185155
H9    H     H_    0.766711 0.553853 0.300324 0.226459
H10   H     H_    0.717683 0.431105 0.298006 0.205230
H11   H     H_    0.004389 0.563931 0.068917 0.268981
H12   H     H_    0.257663 0.382269 0.058428 0.137558
H13   H     H_    0.981673 0.585370 0.959884 0.270197
H14   H     H_    0.024346 0.686270 0.025583 0.251078
H15   H     H_    0.852440 0.660069 0.018947 0.216661
H16   H     H_    0.878114 0.651986 0.128267 0.232928
H17   H     H_    0.841670 0.470059 0.122114 0.221744
H18   H     H_    0.816822 0.473824 0.015971 0.185621
H19   H     H_    0.992826 0.319979 0.873471 0.266149
H20   H     H_    0.990777 0.392546 0.970018 0.264403
H21   H     H_    0.971887 0.440013 0.867980 0.251374
H22   H     H_    0.132934 0.512610 0.898280 0.223329
H23   H     H_    0.846893 0.319905 0.506395 0.141755
H24   H     H_    0.132743 0.444256 0.800543 0.234713
H25   H     H_    0.151044 0.298516 0.895792 0.191821
H26   H     H_    0.155063 0.378798 0.982716 0.195043
H27   H     H_    0.861875 0.074933 0.312395 0.258188
H28   H     H_    0.870691 0.016106 0.413444 0.260567
H29   H     H_    0.759347 0.033304 0.393494 0.254756
H30   H     H_    0.825283 0.152931 0.497398 0.226122
H31   H     H_    0.816391 0.211811 0.396200 0.219563
H32   H     H_    0.985049 0.221487 0.343129 0.199349
H33   H     H_    0.994218 0.161879 0.443127 0.205158
H34   H     H_    0.112886 0.554119 0.643655 0.140672
H35   H     H_    0.113985 0.839014 0.786191 0.261186
H36   H     H_    0.057004 0.752033 0.874258 0.264128
H37   H     H_    0.181725 0.774495 0.840548 0.253256
H38   H     H_    0.106945 0.619720 0.782405 0.219496
H39   H     H_    0.156306 0.709083 0.693974 0.224297
H40   H     H_    0.997958 0.743417 0.696982 0.205965
H41   H     H_    0.949696 0.649861 0.781417 0.198087
H42   H     H_    0.836173 0.447778 0.401008 0.173176
H43   H     H_    0.739692 0.371038 0.462593 0.179553
H44   H     H_    0.192150 0.636098 0.504920 0.172999
H45   H     H_    0.624265 0.528616 0.846749 0.157977
H46   H     H_    0.252518 0.592712 0.577969 0.184523
H47   H     H_    0.372906 0.430603 0.147645 0.148100
H48   H     H_    0.697464 0.658977 0.636036 0.138619
H49   H     H_    0.299591 0.333068 0.372861 0.142352
H50   H     H_    0.138065 0.255736 0.367458 0.145459
N1    N     N_R   0.268300 0.449640 0.447270 -0.090793
N2    N     N_R   0.731700 0.550360 0.552730 -0.087098
N3    N     N_3   0.516133 0.624048 0.785787 -0.462666
N4    N     N_3   0.464634 0.592822 0.217459 -0.437959
N5    N     N_3   0.261749 0.358455 0.726498 -0.435455
N6    N     N_3   0.749754 0.494627 0.260651 -0.475228
N7    N     N_3   0.774841 0.442763 0.445502 -0.449649
N8    N     N_3   0.237586 0.592217 0.514280 -0.429286
O1    O     O_R   0.616880 0.525390 0.394380 -0.604680
O2    O     O_R   0.383120 0.474610 0.605620 -0.592776
O3    O     O_R   0.468100 0.493070 0.360490 -0.598586
O4    O     O_R   0.531900 0.506930 0.639510 -0.611904
O5    O     O_R   0.574410 0.389880 0.516950 -0.591120
O6    O     O_R   0.425590 0.610120 0.483050 -0.571762
O7    O     O_R   0.425630 0.357560 0.483060 -0.604078
O8    O     O_R   0.574370 0.642440 0.516940 -0.603097
Zn1   Zn    Zn3+2 0.599340 0.521580 0.522630 0.934003
Zn2   Zn    Zn3+2 0.400660 0.478420 0.477370 0.947252

loop_
_geom_bond_atom_site_label_1
_geom_bond_atom_site_label_2
_ccdc_geom_bond_type
C55   C56   A    
C11   C18   A    
C23   C45   A    
C4    C53   A    
C35   C53   A    
C18   C21   A    
C33   C45   A    
C41   C42   S    
C6    H2    S    
C10   N2    A    
C19   C20   A    
C42   H14   S    
C16   O7    A    
C50   H40   S    
C46   H20   S    
C9    N8    S    
C49   H28   S    
C35   C37   A    
O3    Zn2   S    
C56   H45   S    
C11   C14   A    
C27   C29   S    
C1    C31   S    
C33   C36   A    
C40   H17   S    
C18   C19   A    
C32   C39   A    
O7    Zn2   S    
H4    N3    S    
C17   O6    A    
C6    C15   A    
C36   N6    S    
C7    H49   S    
C38   N4    S    
C35   C43   S    
C41   H15   S    
C22   C47   S    
C34   C55   A    
C12   C32   S    
C47   H33   S    
N1    Zn2   S    
H5    N4    S    
C8    N2    A    
C46   H19   S    
C44   C46   S    
C21   H34   S    
C24   C50   S    
C33   C40   S    
O1    Zn1   S    
C13   C19   A    
C51   C52   S    
C49   H29   S    
C44   H24   S    
H44   N8    S    
C2    C54   A    
C16   O5    A    
C5    C7    A    
H42   N7    S    
C6    C8    A    
C3    C45   A    
C42   H13   S    
C34   C39   A    
C2    C4    A    
C43   C44   S    
H9    N6    S    
C29   C30   T    
H46   N8    S    
C9    C11   A    
C3    C56   A    
C47   C48   S    
H6    N4    S    
C50   C51   S    
C48   H31   S    
C52   H37   S    
C1    O3    A    
C32   C37   A    
C8    H48   S    
C5    C14   A    
C10   N7    S    
C41   H16   S    
C12   O4    A    
C3    H1    S    
C40   C41   S    
C20   C22   A    
C13   C15   A    
C42   H11   S    
C43   H25   S    
C7    N1    A    
C52   H36   S    
C9    N1    A    
C17   C26   S    
N2    Zn1   S    
C23   C54   A    
C4    H12   S    
C16   C25   S    
C54   C55   A    
C15   C24   A    
C50   H41   S    
O2    Zn2   S    
C20   H23   S    
C5    H50   S    
H8    N5    S    
C10   C13   A    
H43   N7    S    
C46   H21   S    
O5    Zn1   S    
C25   C27   T    
C23   C38   A    
C26   C28   T    
C31   C38   A    
C47   H32   S    
C14   C22   A    
C44   H22   S    
C49   H27   S    
C2    H47   S    
C48   C49   S    
C28   C30   S    
H3    N3    S    
C40   H18   S    
C48   H30   S    
O4    Zn1   S    
H7    N5    S    
C37   N5    S    
C51   H38   S    
C17   O8    A    
C39   N3    S    
C34   C53   A    
C21   C24   A    
C43   H26   S    
C31   C36   A    
C52   H35   S    
C1    O1    A    
H10   N6    S    
O8    Zn1   S    
O6    Zn2   S    
C51   H39   S    
C12   O2    A    
