data_mof_unit_60243.cif
_audit_creation_date              2012-12-10T21:34:09-0500
_audit_creation_method            fapswitch 2.2
_symmetry_space_group_name_H-M    P1
_symmetry_Int_Tables_number       1
_space_group_crystal_system       triclinic
_cell_length_a                    13.636021
_cell_length_b                    16.105041
_cell_length_c                    16.905465
_cell_angle_alpha                 87.974966
_cell_angle_beta                  90.435492
_cell_angle_gamma                 94.916216
_cell_volume                      3696.57948195

loop_
_atom_site_label
_atom_site_type_symbol
_atom_type_description
_atom_site_fract_x
_atom_site_fract_y
_atom_site_fract_z
_atom_type_partial_charge
C1    C     C_R   0.497648 0.510659 0.347180 0.870428
C2    C     C_R   0.498361 0.488890 0.652776 0.872030
C3    C     C_R   0.466874 0.595487 0.140142 -0.183990
C4    C     C_R   0.476601 0.397962 0.859465 -0.185114
C5    C     C_R   0.482518 0.592653 0.221428 -0.208518
C6    C     C_R   0.492510 0.404534 0.778380 -0.212089
C7    C     C_R   0.454273 0.232010 0.539698 -0.008365
C8    C     C_R   0.545636 0.768008 0.460256 -0.007354
C9    C     C_R   0.456886 0.145139 0.537411 -0.260535
C10   C     C_R   0.542988 0.854873 0.462558 -0.260564
C11   C     C_R   0.519589 0.110913 0.483428 0.327254
C12   C     C_R   0.480342 0.889076 0.516602 0.327537
C13   C     C_R   0.577705 0.166176 0.433515 -0.283308
C14   C     C_R   0.422311 0.833794 0.566559 -0.282832
C15   C     C_R   0.572768 0.252565 0.437771 0.023328
C16   C     C_R   0.427283 0.747408 0.562289 0.025526
C17   C     C_R   0.685091 0.515150 0.500723 0.910122
C18   C     C_R   0.314909 0.484849 0.499282 0.905994
C19   C     C_1   0.211779 0.472896 0.498277 -0.148983
C20   C     C_1   0.788229 0.527098 0.501753 -0.151246
C21   C     C_2   0.020687 0.464082 0.497008 0.116562
C22   C     C_2   0.979327 0.535898 0.503069 0.116686
C23   C     C_1   0.875644 0.534179 0.502547 0.040148
C24   C     C_1   0.124367 0.465807 0.497507 0.039910
C25   C     C_R   0.485073 0.515399 0.261914 -0.031340
C26   C     C_R   0.484970 0.481148 0.737809 -0.030903
C27   C     C_R   0.469970 0.441277 0.220977 -0.222853
C28   C     C_R   0.458666 0.550224 0.778309 -0.222031
C29   C     C_R   0.453867 0.444099 0.140349 -0.156428
C30   C     C_R   0.442331 0.543541 0.858789 -0.155497
C31   C     C_R   0.453765 0.521628 0.099066 0.327099
C32   C     C_R   0.453399 0.467496 0.900260 0.327062
H1    H     H_    0.450267 0.609577 0.747926 0.164462
H2    H     H_    0.470044 0.380798 0.251137 0.169232
H3    H     H_    0.422916 0.598296 0.888460 0.152838
H4    H     H_    0.443165 0.385580 0.110530 0.153335
H5    H     H_    0.467071 0.655285 0.108699 0.144392
H6    H     H_    0.485046 0.339294 0.891064 0.144436
H7    H     H_    0.493078 0.650554 0.252320 0.164166
H8    H     H_    0.511443 0.350197 0.747753 0.166137
H9    H     H_    0.593684 0.741928 0.418856 0.134837
H10   H     H_    0.406183 0.258111 0.581053 0.136355
H11   H     H_    0.589456 0.894363 0.422509 0.160010
H12   H     H_    0.410348 0.105662 0.577420 0.160181
H13   H     H_    0.626726 0.142354 0.391351 0.155937
H14   H     H_    0.373337 0.857595 0.608771 0.155147
H15   H     H_    0.617836 0.294670 0.399003 0.143760
H16   H     H_    0.382288 0.705284 0.601097 0.139021
N1    N     N_2   0.448037 0.528108 0.015924 -0.202771
N2    N     N_2   0.449319 0.460081 0.983380 -0.203767
N3    N     N_R   0.511670 0.283920 0.490320 -0.092173
N4    N     N_R   0.488330 0.716080 0.509680 -0.091224
N5    N     N_2   0.526887 0.022974 0.477006 -0.179692
N6    N     N_2   0.473028 0.977014 0.523035 -0.179663
O1    O     O_R   0.495820 0.577170 0.387320 -0.623805
O2    O     O_R   0.504180 0.422830 0.612680 -0.624009
O3    O     O_R   0.503320 0.438390 0.381110 -0.627949
O4    O     O_R   0.496680 0.561610 0.618890 -0.626447
O5    O     O_R   0.636060 0.579370 0.503570 -0.611586
O6    O     O_R   0.363940 0.420630 0.496430 -0.613653
O7    O     O_R   0.643560 0.440600 0.497360 -0.598188
O8    O     O_R   0.356440 0.559400 0.502640 -0.599685
Zn1   Zn    Zn3+2 0.495000 0.592660 0.504150 0.963373
Zn2   Zn    Zn3+2 0.505000 0.407340 0.495850 0.962079
I1    I     I_    0.060092 0.654076 0.513834 -0.356582
I2    I     I_    0.939944 0.345898 0.486251 -0.356235

loop_
_geom_bond_atom_site_label_1
_geom_bond_atom_site_label_2
_ccdc_geom_bond_type
C28   H1    S    
O7    Zn2   S    
C30   C32   A    
O2    Zn2   S    
C22   I1    S    
O8    Zn1   S    
C15   N3    A    
C21   I2    S    
C25   C27   A    
C9    C11   A    
C8    N4    A    
O5    Zn1   S    
C11   N5    S    
C20   C23   T    
C15   H15   S    
C3    C31   A    
C16   H16   S    
C28   C30   A    
C19   C24   T    
C1    O1    A    
C7    N3    A    
C2    C26   S    
C6    C26   A    
C21   C22   D    
C1    C25   S    
C11   C13   A    
C29   H4    S    
C32   N2    S    
C4    C32   A    
O1    Zn1   S    
C10   C12   A    
C30   H3    S    
C31   N1    S    
C5    C25   A    
C8    C10   A    
C17   O5    A    
O6    Zn2   S    
N1    N2    D    
C14   C16   A    
C13   C15   A    
C27   H2    S    
C2    O4    A    
C6    H8    S    
C21   C24   S    
C4    C6    A    
C27   C29   A    
C3    C5    A    
C17   C20   S    
C8    H9    S    
C13   H13   S    
O3    Zn2   S    
C29   C31   A    
C18   C19   S    
C7    H10   S    
C18   O6    A    
O4    Zn1   S    
C7    C9    A    
C5    H7    S    
C22   C23   S    
C18   O8    A    
C9    H12   S    
C2    O2    A    
C17   O7    A    
C10   H11   S    
N5    N6    D    
C26   C28   A    
C4    H6    S    
C12   N6    S    
N3    Zn2   S    
C16   N4    A    
C3    H5    S    
C12   C14   A    
C14   H14   S    
N4    Zn1   S    
C1    O3    A    
