data_mof_unit_43186.cif
_audit_creation_date              2012-12-10T17:43:54-0500
_audit_creation_method            fapswitch 2.2
_symmetry_space_group_name_H-M    P1
_symmetry_Int_Tables_number       1
_space_group_crystal_system       triclinic
_cell_length_a                    15.846725
_cell_length_b                    15.102701
_cell_length_c                    13.786099
_cell_angle_alpha                 90.613907
_cell_angle_beta                  91.119116
_cell_angle_gamma                 88.634997
_cell_volume                      3297.66547657

loop_
_atom_site_label
_atom_site_type_symbol
_atom_type_description
_atom_site_fract_x
_atom_site_fract_y
_atom_site_fract_z
_atom_type_partial_charge
C1    C     C_R   0.497635 0.328983 0.499412 0.865155
C2    C     C_R   0.501888 0.670889 0.500579 0.865479
C3    C     C_R   0.504281 0.767500 0.502945 -0.244209
C4    C     C_R   0.493138 0.232262 0.498149 -0.253307
C5    C     C_R   0.565535 0.812616 0.451325 -0.091969
C6    C     C_R   0.436478 0.188401 0.557983 -0.088865
C7    C     C_R   0.570800 0.905913 0.461775 -0.055701
C8    C     C_R   0.434594 0.094388 0.555380 -0.047335
C9    C     C_R   0.505247 0.953138 0.510892 -0.037306
C10   C     C_R   0.500825 0.046676 0.508069 -0.043375
C11   C     C_R   0.443978 0.907030 0.562600 -0.084117
C12   C     C_R   0.561175 0.092349 0.454864 -0.098606
C13   C     C_R   0.639390 0.953901 0.425304 -0.105108
C14   C     C_R   0.370705 0.046446 0.601215 -0.111047
C15   C     C_R   0.633358 0.046402 0.420014 0.384306
C16   C     C_R   0.381805 0.955116 0.614802 0.348337
C17   C     C_R   0.563668 0.456666 0.794752 0.588658
C18   C     C_R   0.432022 0.535046 0.203985 0.596972
C19   C     C_R   0.437172 0.544212 0.791731 -0.021410
C20   C     C_R   0.568765 0.467231 0.207866 -0.057351
C21   C     C_R   0.433646 0.544225 0.894641 -0.075817
C22   C     C_R   0.573191 0.469739 0.104716 -0.071263
C23   C     C_R   0.340025 0.499210 0.499255 0.837123
C24   C     C_R   0.660082 0.498778 0.500805 0.856483
C25   C     C_R   0.502087 0.504921 0.947866 0.049794
C26   C     C_R   0.503611 0.505930 0.051339 0.054637
C27   C     C_R   0.568937 0.463981 0.897631 -0.118524
C28   C     C_R   0.435343 0.543485 0.101403 -0.107695
C29   C     C_R   0.366157 0.584952 0.946448 -0.011191
C30   C     C_R   0.644437 0.437412 0.052764 -0.016771
C31   C     C_R   0.370322 0.587320 0.048346 -0.218324
C32   C     C_R   0.640404 0.433291 0.950642 -0.213585
C33   C     C_3   0.974197 0.416283 0.532103 0.419122
C34   C     C_3   0.026548 0.570607 0.467157 0.372676
C35   C     C_3   0.027464 0.427153 0.440445 -0.174429
C36   C     C_3   0.973415 0.559414 0.558742 -0.151764
C37   C     C_1   0.250745 0.496068 0.498015 -0.092610
C38   C     C_1   0.749645 0.496978 0.502310 -0.078945
C39   C     C_3   0.030607 0.480402 0.590416 -0.168128
C40   C     C_3   0.969916 0.506418 0.408591 -0.198469
C41   C     C_3   0.083999 0.491763 0.498846 -0.073062
C42   C     C_3   0.916730 0.494857 0.500673 -0.058282
C43   C     C_1   0.175435 0.493647 0.498021 0.143333
C44   C     C_1   0.825123 0.495642 0.502180 0.125408
C45   C     C_R   0.443872 0.813751 0.557997 0.398921
C46   C     C_R   0.549805 0.183922 0.440312 0.377422
Cu1   Cu    Cu3+1 0.500010 0.499990 0.597420 1.034132
Cu2   Cu    Cu3+1 0.499990 0.500010 0.402580 1.007482
H1    H     H_    0.319685 0.620659 0.086807 0.214578
H2    H     H_    0.695255 0.408799 0.912072 0.214852
H3    H     H_    0.391058 0.580539 0.748547 0.201231
H4    H     H_    0.619202 0.437195 0.250351 0.193989
N1    N     N_R   0.499960 0.499930 0.743810 -0.231610
N2    N     N_R   0.500040 0.500070 0.256190 -0.229037
O1    O     O_R   0.500020 0.370250 0.582280 -0.580759
O2    O     O_R   0.499980 0.629750 0.417720 -0.561229
O3    O     O_R   0.500010 0.370270 0.417740 -0.576408
O4    O     O_R   0.499990 0.629730 0.582260 -0.554667
O5    O     O_R   0.379080 0.499980 0.582260 -0.558176
O6    O     O_R   0.620920 0.500020 0.417740 -0.577594
O7    O     O_R   0.379070 0.500000 0.417710 -0.563343
O8    O     O_R   0.620930 0.500000 0.582290 -0.524262
C47   C     C_2   0.057709 0.353343 0.375204 0.883661
O9    O     O_2   0.006344 0.306434 0.333622 -0.566732
O10   O     O_R   0.144125 0.338352 0.362480 -0.772419
H5    H     H_    0.156468 0.286754 0.316896 0.339518
C48   C     C_2   0.941622 0.630593 0.626369 0.903371
O11   O     O_2   0.964986 0.706613 0.618343 -0.580659
O12   O     O_R   0.885943 0.608931 0.699268 -0.706887
H6    H     H_    0.868924 0.662080 0.740603 0.345006
C49   C     C_2   0.287121 0.620575 0.899502 0.802834
O13   O     O_2   0.259837 0.588183 0.823956 -0.601639
O14   O     O_R   0.240450 0.687942 0.945773 -0.772485
H7    H     H_    0.186910 0.705208 0.908421 0.347742
C50   C     C_2   0.725723 0.410537 0.100637 0.819196
O15   O     O_2   0.751585 0.450216 0.172581 -0.588010
O16   O     O_R   0.774757 0.341669 0.060595 -0.751614
H8    H     H_    0.829014 0.329809 0.098971 0.366777
O17   O     O_3   0.940504 0.337981 0.568871 -0.566106
C51   C     C_3   0.004994 0.272870 0.582962 0.047691
H9    H     H_    0.067194 0.300799 0.604254 0.152421
H10   H     H_    0.012892 0.233404 0.515209 0.169360
C52   C     C_3   0.979437 0.210800 0.662810 -0.725032
H11   H     H_    0.918663 0.179468 0.643138 0.235022
H12   H     H_    0.028780 0.158107 0.673132 0.215669
H13   H     H_    0.972156 0.248386 0.731949 0.274484
O18   O     O_3   0.063165 0.649888 0.437116 -0.601030
C53   C     C_3   0.002168 0.706663 0.393090 0.118754
H14   H     H_    0.938840 0.702960 0.426452 0.195526
H15   H     H_    0.996751 0.690085 0.314580 0.166626
C54   C     C_3   0.031257 0.801644 0.402718 -0.721171
H16   H     H_    0.984293 0.847109 0.367230 0.204967
H17   H     H_    0.037846 0.820484 0.480537 0.277662
H18   H     H_    0.093177 0.808413 0.367458 0.236848
C55   C     C_2   0.932123 0.521467 0.309193 0.889953
O19   O     O_2   0.958507 0.479091 0.239680 -0.544661
O20   O     O_R   0.866636 0.584162 0.296846 -0.782974
H19   H     H_    0.847653 0.590221 0.226557 0.365248
C56   C     C_2   0.063166 0.464288 0.691787 0.889376
O21   O     O_2   0.013301 0.457228 0.757600 -0.528435
O22   O     O_R   0.149922 0.455714 0.710233 -0.730472
H20   H     H_    0.163681 0.442629 0.780827 0.358538
O23   O     O_3   0.382925 0.766716 0.605029 -0.555135
C57   C     C_3   0.313982 0.752678 0.540409 0.080066
H21   H     H_    0.331876 0.704828 0.482020 0.122126
H22   H     H_    0.290740 0.815644 0.506597 0.163200
C58   C     C_3   0.241765 0.714367 0.596229 -0.684871
H23   H     H_    0.218986 0.762823 0.651450 0.271867
H24   H     H_    0.188770 0.699282 0.545590 0.240410
H25   H     H_    0.263111 0.652482 0.632895 0.259979
O24   O     O_3   0.600310 0.228174 0.376879 -0.561188
C59   C     C_3   0.568148 0.216766 0.281129 0.119961
H26   H     H_    0.517344 0.267165 0.266614 0.146417
H27   H     H_    0.542095 0.149718 0.266893 0.140742
C60   C     C_3   0.638795 0.229710 0.209978 -0.701789
H28   H     H_    0.682692 0.171346 0.210457 0.285573
H29   H     H_    0.612103 0.238123 0.135473 0.190581
H30   H     H_    0.674866 0.289055 0.230997 0.244486
C61   C     C_2   0.617834 0.762326 0.380230 0.903222
O25   O     O_2   0.614115 0.782067 0.294423 -0.569442
O26   O     O_R   0.671226 0.692968 0.411577 -0.742490
H31   H     H_    0.703625 0.664168 0.356454 0.358975
C62   C     C_2   0.384505 0.240948 0.627695 0.875938
O27   O     O_2   0.337196 0.300513 0.598602 -0.563743
O28   O     O_R   0.389877 0.221658 0.726613 -0.785163
H32   H     H_    0.351868 0.261877 0.766848 0.341059
C63   C     C_2   0.722328 0.911292 0.402688 0.883160
O29   O     O_2   0.757285 0.862178 0.461772 -0.590119
O30   O     O_R   0.761481 0.929534 0.315350 -0.694256
H33   H     H_    0.817973 0.897273 0.308971 0.328894
C64   C     C_2   0.286185 0.086487 0.622294 0.914200
O31   O     O_2   0.253256 0.074625 0.700443 -0.562760
O32   O     O_R   0.243565 0.136468 0.551045 -0.751964
H34   H     H_    0.186725 0.160296 0.573317 0.330282
O33   O     O_3   0.699214 0.091676 0.380337 -0.527997
C65   C     C_3   0.753434 0.121676 0.455660 0.080002
H35   H     H_    0.788001 0.064857 0.490099 0.137374
H36   H     H_    0.718327 0.159426 0.512401 0.140647
C66   C     C_3   0.817444 0.182972 0.413047 -0.644208
H37   H     H_    0.784627 0.241142 0.379494 0.266682
H38   H     H_    0.860699 0.206630 0.471249 0.219671
H39   H     H_    0.854910 0.147130 0.357132 0.255365
O34   O     O_3   0.327091 0.912346 0.674438 -0.539805
C67   C     C_3   0.364642 0.908035 0.768125 0.134455
H40   H     H_    0.371454 0.975617 0.800068 0.162980
H41   H     H_    0.427890 0.874091 0.766552 0.146919
C68   C     C_3   0.308810 0.855382 0.833284 -0.685348
H42   H     H_    0.302893 0.787252 0.803526 0.262291
H43   H     H_    0.337260 0.851832 0.907433 0.210897
H44   H     H_    0.245131 0.887399 0.837230 0.258946
O35   O     O_3   0.625636 0.410588 0.744437 -0.555752
C69   C     C_3   0.613398 0.318483 0.753000 0.070264
H45   H     H_    0.546950 0.300518 0.736326 0.175609
H46   H     H_    0.629678 0.295172 0.827311 0.142086
C70   C     C_3   0.670775 0.268997 0.682537 -0.742290
H47   H     H_    0.737953 0.280531 0.702220 0.264163
H48   H     H_    0.659053 0.196868 0.685307 0.188978
H49   H     H_    0.658366 0.292383 0.607436 0.241254
O36   O     O_3   0.361028 0.566045 0.251822 -0.568912
C71   C     C_3   0.292448 0.508453 0.233727 0.024385
H50   H     H_    0.297755 0.449622 0.281192 0.192097
H51   H     H_    0.288462 0.482270 0.158081 0.126251
C72   C     C_3   0.209816 0.558179 0.254188 -0.699922
H52   H     H_    0.197659 0.609760 0.198543 0.240433
H53   H     H_    0.156687 0.511495 0.252393 0.236461
H54   H     H_    0.212993 0.590960 0.326504 0.257445

loop_
_geom_bond_atom_site_label_1
_geom_bond_atom_site_label_2
_ccdc_geom_bond_type
O18   C53   S    
C47   O10   S    
O22   H20   S    
C70   H48   S    
C55   O19   D    
C41   C43   S    
O14   H7    S    
C36   C42   S    
C72   H52   S    
Cu1   O8    S    
C57   H22   S    
O20   H19   S    
C36   C48   S    
C62   O27   D    
C39   C41   S    
C4    C46   A    
O16   H8    S    
Cu2   N2    S    
C33   C39   S    
C5    C61   S    
C34   C40   S    
C33   C42   S    
C72   H53   S    
O34   C67   S    
C67   C68   S    
C8    C10   A    
C66   H39   S    
C62   O28   S    
C15   O33   S    
C60   H28   S    
Cu2   O2    S    
C57   H21   S    
C18   O36   S    
C45   O23   S    
C68   H42   S    
Cu1   O4    S    
O36   C71   S    
C60   H29   S    
C24   C38   S    
C58   H23   S    
C53   C54   S    
C9    C10   A    
C24   O6    A    
Cu1   N1    S    
C19   N1    A    
C40   C42   S    
C46   O24   S    
C70   H49   S    
C24   O8    A    
C58   H24   S    
C17   O35   S    
C34   C41   S    
C42   C44   S    
C6    C62   S    
C31   H1    S    
C65   C66   S    
C59   H27   S    
C59   H26   S    
Cu2   O6    S    
C14   C64   S    
C61   O26   S    
C66   H37   S    
C28   C31   A    
C48   O11   D    
C17   C27   A    
Cu1   Cu2   S    
O33   C65   S    
C68   H44   S    
C18   C28   A    
C20   N2    A    
C54   H16   S    
C5    C7    A    
C33   O17   S    
C6    C8    A    
C64   O32   S    
C25   C26   A    
C23   C37   S    
C21   C29   A    
C3    C45   A    
C47   O9    D    
C48   O12   S    
C71   H51   S    
C37   C43   T    
C23   O5    A    
C50   O15   D    
C71   C72   S    
C38   C44   T    
C1    O3    A    
C54   H17   S    
C67   H41   S    
C9    C11   A    
C11   C16   A    
C39   C56   S    
C52   H11   S    
C69   C70   S    
C7    C13   A    
O35   C69   S    
C60   H30   S    
C72   H54   S    
C63   O30   S    
C55   O20   S    
C52   H13   S    
C69   H45   S    
C50   O16   S    
C32   H2    S    
O26   H31   S    
C10   C12   A    
C12   C46   A    
C52   H12   S    
C53   H15   S    
C12   C15   A    
C13   C15   A    
O32   H34   S    
C58   H25   S    
C14   C16   A    
C11   C45   A    
C4    C6    A    
C40   C55   S    
C63   O29   D    
C17   N1    A    
C70   H47   S    
C65   H36   S    
Cu1   O1    S    
O30   H33   S    
C69   H46   S    
C7    C9    A    
C21   C25   A    
C8    C14   A    
C22   C30   A    
O24   C59   S    
C68   H43   S    
C27   C32   A    
C36   C39   S    
C20   C22   A    
C51   H9    S    
C3    C5    A    
C61   O25   D    
C2    O4    A    
C25   C27   A    
C26   C28   A    
C56   O21   D    
C67   H40   S    
C1    C4    S    
C71   H50   S    
C2    C3    S    
C1    O1    A    
C49   O13   D    
C20   H4    S    
C2    O2    A    
C54   H18   S    
C30   C32   A    
C30   C50   S    
C66   H38   S    
Cu2   O7    S    
O28   H32   S    
C16   O34   S    
C51   C52   S    
C33   C35   S    
C51   H10   S    
C35   C40   S    
C34   C36   S    
C34   O18   S    
C57   C58   S    
O12   H6    S    
C35   C41   S    
C18   N2    A    
Cu1   O5    S    
O17   C51   S    
C13   C63   S    
C19   H3    S    
C23   O7    A    
Cu2   O3    S    
C53   H14   S    
C29   C31   A    
O10   H5    S    
C22   C26   A    
C49   O14   S    
O23   C57   S    
C65   H35   S    
C35   C47   S    
C29   C49   S    
C56   O22   S    
C59   C60   S    
C64   O31   D    
C19   C21   A    
