data_mof_unit_28946.cif
_audit_creation_date              2012-12-11T16:37:13-0500
_audit_creation_method            fapswitch 2.2
_symmetry_space_group_name_H-M    P1
_symmetry_Int_Tables_number       1
_space_group_crystal_system       triclinic
_cell_length_a                    19.475188
_cell_length_b                    7.041785
_cell_length_c                    17.797884
_cell_angle_alpha                 90.771369
_cell_angle_beta                  108.316793
_cell_angle_gamma                 89.634469
_cell_volume                      2316.92024309

loop_
_atom_site_label
_atom_site_type_symbol
_atom_type_description
_atom_site_fract_x
_atom_site_fract_y
_atom_site_fract_z
_atom_type_partial_charge
O1    O     O_R   0.561710 0.369960 0.440200 -0.509323
O2    O     O_R   0.061710 0.630040 0.940200 -0.547043
O3    O     O_R   0.412630 0.033330 0.406330 -0.503369
O4    O     O_R   0.912630 0.966670 0.906330 -0.493751
O5    O     O_R   0.438290 0.869790 0.559800 -0.546853
O6    O     O_R   0.938290 0.130210 0.059800 -0.525503
C1    C     C_R   0.385200 0.202062 0.382423 0.784375
C2    C     C_R   0.884986 0.795714 0.882336 0.750824
O7    O     O_R   0.559570 0.039810 0.430640 -0.519180
O8    O     O_R   0.059570 0.960190 0.930640 -0.525505
O9    O     O_R   0.586280 0.876320 0.584290 -0.529398
O10   O     O_R   0.086280 0.123680 0.084290 -0.506512
C3    C     C_R   0.580868 0.208001 0.415807 0.839784
C4    C     C_R   0.082362 0.791177 0.917378 0.814069
O11   O     O_R   0.413720 0.363440 0.415710 -0.508564
O12   O     O_R   0.913720 0.636560 0.915710 -0.529000
O13   O     O_3   0.508590 0.205630 0.550380 -0.378764
O14   O     O_3   0.008590 0.794370 0.050380 -0.337225
V1    V     V_3+5 0.498410 0.928130 0.490650 1.824119
V2    V     V_3+5 0.998410 0.071870 0.990650 1.793356
O15   O     O_R   0.587370 0.546990 0.593670 -0.533550
O16   O     O_R   0.087370 0.453010 0.093670 -0.516837
C5    C     C_R   0.615941 0.717299 0.614156 0.847197
C6    C     C_R   0.113731 0.283609 0.117788 0.789457
O17   O     O_R   0.440430 0.540520 0.569360 -0.515338
O18   O     O_R   0.940430 0.459480 0.069360 -0.511779
C7    C     C_R   0.419368 0.709828 0.584509 0.842572
C8    C     C_R   0.922164 0.292259 0.088099 0.862271
V3    V     V_3+5 0.501590 0.428960 0.509350 1.838880
V4    V     V_3+5 0.001590 0.571040 0.009350 1.796378
O19   O     O_3   0.491410 0.701330 0.449620 -0.314045
O20   O     O_3   0.991410 0.298670 0.949620 -0.336291
C9    C     C_R   0.250896 0.822276 0.640578 0.521147
C10   C     C_R   0.765064 0.122334 0.150863 0.456814
C11   C     C_R   0.301148 0.809819 0.598831 -0.204442
C12   C     C_R   0.818206 0.139126 0.113910 -0.149390
H1    H     H_    0.287157 0.868079 0.539849 0.194300
H2    H     H_    0.821439 0.030374 0.071410 0.208378
C13   C     C_R   0.368663 0.721151 0.631903 -0.243097
C14   C     C_R   0.868182 0.287198 0.131643 -0.245114
C15   C     C_R   0.385404 0.643691 0.708676 0.421191
C16   C     C_R   0.863740 0.424596 0.188603 0.376560
C17   C     C_R   0.335483 0.660617 0.750775 -0.101790
C18   C     C_R   0.807985 0.412163 0.223011 -0.153643
H3    H     H_    0.348662 0.604074 0.809922 0.222599
H4    H     H_    0.808215 0.516463 0.267740 0.213910
C19   C     C_R   0.268630 0.751111 0.717963 0.022650
C20   C     C_R   0.755263 0.265506 0.204064 0.020773
C21   C     C_R   0.230809 0.919291 0.825787 0.357849
C22   C     C_R   0.701653 0.402206 0.306522 0.249736
C23   C     C_R   0.191644 0.914169 0.881692 0.341444
C24   C     C_R   0.679573 0.356865 0.371671 0.393327
C25   C     C_R   0.133306 0.783535 0.869646 -0.294106
C26   C     C_R   0.624708 0.219206 0.361130 -0.240646
C27   C     C_R   0.121488 0.646576 0.809165 -0.200549
C28   C     C_R   0.601084 0.121796 0.287912 -0.165815
H5    H     H_    0.078114 0.544577 0.800260 0.201290
H6    H     H_    0.551385 0.040868 0.272784 0.207083
C29   C     C_R   0.164759 0.637962 0.759779 0.468335
C30   C     C_R   0.636560 0.144615 0.230551 0.524794
C31   C     C_R   0.219385 0.773494 0.767062 -0.146754
C32   C     C_R   0.699033 0.261251 0.248451 -0.100034
C33   C     C_R   0.767336 0.624515 0.804474 -0.056097
C34   C     C_R   0.308078 0.344955 0.251881 -0.050216
C35   C     C_R   0.815920 0.777278 0.812320 -0.054806
C36   C     C_R   0.316869 0.211387 0.312018 -0.119900
C37   C     C_R   0.801584 0.893477 0.745294 -0.039522
C38   C     C_R   0.252897 0.120162 0.312532 -0.067998
H7    H     H_    0.843334 0.984298 0.739858 0.211222
H8    H     H_    0.253586 0.047723 0.365775 0.210427
C39   C     C_R   0.737668 0.874030 0.679945 0.380155
C40   C     C_R   0.185768 0.148598 0.251813 0.439598
C41   C     C_R   0.684606 0.738355 0.680326 -0.175260
C42   C     C_R   0.181106 0.267255 0.186572 -0.081043
C43   C     C_R   0.701571 0.611277 0.741996 0.029782
C44   C     C_R   0.244156 0.360976 0.186986 -0.125197
C45   C     C_3   0.707172 0.405258 0.728778 0.125296
C46   C     C_3   0.254271 0.568941 0.180806 0.110490
C47   C     C_3   0.780439 0.416708 0.792671 0.552454
C48   C     C_3   0.313188 0.556310 0.261164 0.579456
H9    H     H_    0.709082 0.371176 0.668699 0.177127
H10   H     H_    0.274268 0.592108 0.129723 0.175051
Cl1   Cl    Cl    0.167403 0.935175 0.595855 -0.407637
Cl2   Cl    Cl    0.722738 0.902315 0.132795 -0.424714
Cl3   Cl    Cl    0.732207 0.992038 0.592005 -0.486828
Cl4   Cl    Cl    0.106364 0.055896 0.264619 -0.410480
Cl5   Cl    Cl    0.634198 0.281554 0.747541 -0.384614
Cl6   Cl    Cl    0.180815 0.729085 0.170207 -0.475552
S1    S     S_3+6 0.856559 0.377488 0.752668 0.006293
O21   O     O_2   0.829566 0.296003 0.670438 -0.285479
O22   O     O_2   0.895523 0.557497 0.747224 -0.363050
O23   O     O_3   0.918842 0.228709 0.807372 -0.486051
H11   H     H_    0.955550 0.216379 0.779646 0.359750
S2    S     S_3+6 0.398051 0.641332 0.253242 0.043566
O24   O     O_2   0.460543 0.546445 0.312241 -0.321402
O25   O     O_2   0.403686 0.594317 0.172676 -0.311300
O26   O     O_3   0.404503 0.877522 0.266028 -0.489767
H12   H     H_    0.367480 0.929704 0.218984 0.359497
S3    S     S_3+6 0.782415 0.295496 0.880924 0.060505
O27   O     O_2   0.754623 0.096203 0.865059 -0.298322
O28   O     O_2   0.858407 0.290976 0.932179 -0.352945
O29   O     O_3   0.732477 0.413171 0.928513 -0.443402
H13   H     H_    0.765708 0.507063 0.963296 0.344475
S4    S     S_3+6 0.286452 0.628848 0.349433 0.021629
O30   O     O_2   0.343933 0.748705 0.403299 -0.333845
O31   O     O_2   0.216788 0.736959 0.328371 -0.285325
O32   O     O_3   0.274568 0.451252 0.406519 -0.529172
H14   H     H_    0.221621 0.438250 0.395084 0.383052
S5    S     S_3+6 0.468511 0.528534 0.754714 0.099916
O33   O     O_2   0.466992 0.335907 0.716843 -0.290258
O34   O     O_2   0.529455 0.643332 0.743945 -0.319003
O35   O     O_3   0.481416 0.502584 0.852010 -0.454021
H15   H     H_    0.527302 0.430587 0.872003 0.422381
S6    S     S_3+6 0.928786 0.607681 0.222541 0.115339
O36   O     O_2   0.003582 0.528011 0.237139 -0.260548
O37   O     O_2   0.915716 0.758760 0.160753 -0.339513
O38   O     O_3   0.923640 0.706239 0.307307 -0.422196
H16   H     H_    0.886486 0.807304 0.290717 0.376476
S7    S     S_3+6 0.293155 0.106950 0.827432 0.127232
O39   O     O_2   0.295989 0.146834 0.745765 -0.308971
O40   O     O_2   0.271849 0.287802 0.860121 -0.271584
O41   O     O_3   0.376051 0.040449 0.884367 -0.429452
H17   H     H_    0.408359 0.145538 0.880651 0.412283
S8    S     S_3+6 0.670557 0.627404 0.267891 0.100966
O42   O     O_2   0.729194 0.772937 0.298003 -0.288227
O43   O     O_2   0.647200 0.615105 0.179065 -0.256314
O44   O     O_3   0.598637 0.691962 0.295447 -0.457120
H18   H     H_    0.556613 0.683622 0.246656 0.410582
S9    S     S_3+6 0.219909 0.053556 0.970864 0.087716
O45   O     O_2   0.201593 0.954668 0.036176 -0.343912
O46   O     O_2   0.300270 0.085008 0.997666 -0.234511
O47   O     O_3   0.176935 0.264309 0.954560 -0.493103
H19   H     H_    0.200942 0.342743 0.002077 0.347053
S10   S     S_3+6 0.712751 0.499312 0.458461 0.119366
O48   O     O_2   0.664087 0.667742 0.454537 -0.293061
O49   O     O_2   0.715903 0.385623 0.529940 -0.316057
O50   O     O_3   0.796215 0.576487 0.466019 -0.432968
H20   H     H_    0.811599 0.652086 0.515829 0.415115
Cl7   Cl    Cl    0.148431 0.454438 0.688072 -0.421021
Cl8   Cl    Cl    0.584143 0.093035 0.132242 -0.364733

loop_
_geom_bond_atom_site_label_1
_geom_bond_atom_site_label_2
_ccdc_geom_bond_type
C36   C38   A    
C33   C35   A    
C27   C29   A    
C24   S10   S    
C25   C27   A    
O4    C2    A    
V1    O19   S    
S10   O50   S    
S4    O31   D    
S6    O36   D    
C23   S9    S    
C13   C15   A    
C33   C47   S    
S9    O46   D    
O9    V1    S    
C42   C44   A    
C48   S4    S    
C47   S3    S    
C11   H1    S    
C44   C46   S    
C3    C26   S    
O3    C1    A    
S5    O34   D    
C46   C48   S    
C37   C39   A    
C8    C14   S    
O12   V4    S    
C10   Cl2   S    
O26   H12   S    
O13   V3    S    
C30   C32   A    
O7    V1    S    
C43   C45   S    
O7    C3    A    
S4    O30   D    
C9    C11   A    
O5    C7    A    
C16   S6    S    
O6    C8    A    
C18   H4    S    
O47   H19   S    
C35   C37   A    
S3    O29   S    
C22   C24   A    
O32   H14   S    
O3    V1    S    
O14   V4    S    
C45   H9    S    
S1    O22   D    
C10   C12   A    
S9    O47   S    
S7    O40   D    
C2    C35   S    
C2    O12   A    
C39   Cl3   S    
C15   C17   A    
O29   H13   S    
C16   C18   A    
C5    C41   S    
C34   C48   S    
O35   H15   S    
C24   C26   A    
O11   V3    S    
C45   C47   S    
O17   V3    S    
C26   C28   A    
C29   C31   A    
C21   C31   A    
C7    C13   S    
C12   C14   A    
C22   S8    S    
C40   C42   A    
O8    C4    A    
S5    O35   S    
O8    V2    S    
C39   C41   A    
S10   O49   D    
C1    O11   A    
S2    O26   S    
C21   C23   A    
O15   V3    S    
C28   C30   A    
C23   C25   A    
C34   C36   A    
C11   C13   A    
C9    Cl1   S    
C46   H10   S    
C20   C32   S    
S3    O27   D    
C29   Cl7   S    
C38   C40   A    
O10   V2    S    
O1    V3    S    
C34   C44   A    
S1    O23   S    
S2    O25   D    
C17   H3    S    
C30   Cl8   S    
S8    O44   S    
S3    O28   D    
O18   V4    S    
O15   C5    A    
C22   C32   A    
O16   C6    A    
O1    C3    A    
C41   C43   A    
C48   S2    S    
O44   H18   S    
S8    O43   D    
S9    O45   D    
V2    O20   S    
S7    O41   S    
C46   Cl6   S    
O16   V4    S    
C14   C16   A    
C19   C31   S    
S6    O37   D    
S7    O39   D    
S10   O48   D    
O5    V1    S    
C40   Cl4   S    
O17   C7    A    
O6    V2    S    
O50   H20   S    
O10   C6    A    
O18   C8    A    
O2    V4    S    
C27   H5    S    
S1    O21   D    
V3    O19   S    
O38   H16   S    
C12   H2    S    
V4    O20   S    
C6    C42   S    
C21   S7    S    
C33   C43   A    
C9    C19   A    
O9    C5    A    
O23   H11   S    
O13   V1    S    
C28   H6    S    
O14   V2    S    
S2    O24   D    
O2    C4    A    
C47   S1    S    
S6    O38   S    
O4    V2    S    
C4    C25   S    
C10   C20   A    
C45   Cl5   S    
C38   H8    S    
C15   S5    S    
C37   H7    S    
O41   H17   S    
S5    O33   D    
C17   C19   A    
S4    O32   S    
C18   C20   A    
S8    O42   D    
C1    C36   S    
