data_mof_unit_48462.cif
_audit_creation_date              2013-03-05T15:46:11-0500
_audit_creation_method            fapswitch 2.2
_symmetry_space_group_name_H-M    P1
_symmetry_Int_Tables_number       1
_space_group_crystal_system       triclinic
_cell_length_a                    10.515379
_cell_length_b                    10.607156
_cell_length_c                    17.078721
_cell_angle_alpha                 80.56934
_cell_angle_beta                  89.687467
_cell_angle_gamma                 118.65465
_cell_volume                      1641.24677377

loop_
_atom_site_label
_atom_site_type_symbol
_atom_site_description
_atom_site_fract_x
_atom_site_fract_y
_atom_site_fract_z
_atom_type_partial_charge
O1    O     O_R   0.521780 0.757110 0.108900 -0.505626
O2    O     O_R   0.275160 0.783810 0.101120 -0.449999
C1    C     C_R   0.279874 0.889565 0.132816 0.558408
O3    O     O_R   0.237900 0.972600 0.090980 -0.503151
O4    O     O_R   0.511190 0.220540 0.061620 -0.519720
C2    C     C_R   0.638427 0.284032 0.084859 0.540664
O5    O     O_R   0.736920 0.257720 0.063840 -0.513622
O6    O     O_R   0.710450 0.984050 0.081720 -0.487592
C3    C     C_R   0.640508 0.858205 0.125268 0.546718
O7    O     O_R   0.524090 0.765520 0.933110 -0.531232
O8    O     O_R   0.277300 0.791600 0.938160 -0.502922
C4    C     C_R   0.287469 0.903163 0.888125 0.562026
O9    O     O_R   0.240210 0.981010 0.915190 -0.434030
O10   O     O_R   0.513330 0.228330 0.898660 -0.492384
C5    C     C_R   0.637660 0.285896 0.861179 0.536327
O11   O     O_R   0.739230 0.266130 0.888050 -0.512479
O12   O     O_R   0.712580 0.991850 0.918770 -0.494985
C6    C     C_R   0.647240 0.866407 0.899650 0.539424
Cr1   Cr    Cr6+3 0.402240 0.783890 0.019450 1.051383
Cr2   Cr    Cr6+3 0.382360 0.097900 0.991800 1.070314
Cr3   Cr    Cr6+3 0.715380 0.118170 0.988700 1.046866
O13   O     O_3   0.499990 0.999980 0.999980 -0.311212
C7    C     C_R   0.557698 0.370665 0.192056 -0.143303
C8    C     C_R   0.580353 0.408652 0.266953 -0.160996
H1    H     H_    0.492564 0.409292 0.300016 0.169893
C9    C     C_R   0.710050 0.432822 0.301135 -0.009827
C10   C     C_R   0.824527 0.436436 0.254964 0.192016
C11   C     C_R   0.805526 0.414430 0.177608 -0.091374
H2    H     H_    0.893807 0.415309 0.143999 0.181518
C12   C     C_R   0.668429 0.366285 0.149099 -0.020741
C13   C     C_1   0.668871 0.848389 0.205385 -0.019559
C14   C     C_1   0.680140 0.838842 0.274884 -0.016938
C15   C     C_1   0.229515 0.856077 0.215605 0.015086
C16   C     C_1   0.180449 0.835408 0.283282 0.011816
C17   C     C_1   0.645340 0.325461 0.778377 -0.008977
C18   C     C_1   0.653225 0.347015 0.707724 0.001510
C19   C     C_R   0.624875 0.712016 0.804656 -0.131032
C20   C     C_R   0.612373 0.697016 0.726311 -0.125224
H3    H     H_    0.559411 0.587524 0.713259 0.172144
C21   C     C_R   0.670494 0.821678 0.665643 0.027505
C22   C     C_R   0.748471 0.961516 0.683501 -0.127144
H4    H     H_    0.799645 0.057798 0.636599 0.141761
C23   C     C_R   0.758064 0.976851 0.762487 -0.099323
H5    H     H_    0.808729 0.086062 0.775845 0.159941
C24   C     C_R   0.690059 0.851831 0.823062 0.040139
C25   C     C_R   0.257008 0.995783 0.749334 0.188975
C26   C     C_R   0.235522 0.975667 0.671853 -0.100868
C27   C     C_R   0.189731 0.837674 0.652489 -0.019281
C28   C     C_R   0.197739 0.728635 0.706740 -0.143557
H6    H     H_    0.165923 0.622452 0.692217 0.156299
C29   C     C_R   0.237464 0.753729 0.782624 -0.159415
C30   C     C_R   0.258452 0.883399 0.806196 -0.005903
O14   O     O_R   0.083770 0.911170 0.376030 -0.506078
O15   O     O_R   0.808770 0.880340 0.383890 -0.479009
C31   C     C_R   0.686465 0.809765 0.357295 0.548160
O16   O     O_R   0.584340 0.689460 0.394160 -0.513889
O17   O     O_R   0.614320 0.443940 0.423590 -0.508400
C32   C     C_R   0.727014 0.458009 0.382958 0.556349
O18   O     O_R   0.805020 0.410040 0.421340 -0.443682
O19   O     O_R   0.049240 0.685450 0.403290 -0.484667
C33   C     C_R   0.108826 0.812410 0.360011 0.540830
O20   O     O_R   0.077520 0.903010 0.551800 -0.516729
O21   O     O_R   0.802980 0.872780 0.546830 -0.488727
C34   C     C_R   0.677828 0.799945 0.585570 0.543896
O22   O     O_R   0.578090 0.681300 0.569920 -0.510071
O23   O     O_R   0.608530 0.436370 0.586530 -0.472550
C35   C     C_R   0.679088 0.382511 0.624579 0.558355
O24   O     O_R   0.798770 0.401880 0.597100 -0.520290
O25   O     O_R   0.043450 0.677890 0.566230 -0.500552
C36   C     C_R   0.106031 0.805404 0.583778 0.548956
Cr4   Cr    Cr6+3 0.936650 0.882420 0.465510 1.070049
Cr5   Cr    Cr6+3 0.605770 0.565620 0.493360 1.057350
Cr6   Cr    Cr6+3 0.921340 0.550490 0.496380 1.079534
O26   O     O_3   0.821250 0.666180 0.485090 -0.297944
H7    H     H_    0.451869 0.336754 0.170109 0.154703
H8    H     H_    0.233929 0.063103 0.629682 0.178808
H9    H     H_    0.242089 0.667598 0.824254 0.162836
N1    N     N_R   0.952879 0.442926 0.287314 0.085523
O27   O     O_R   0.940849 0.326981 0.334072 -0.302419
O28   O     O_R   0.079137 0.534864 0.248588 -0.352848
H10   H     H_    0.573597 0.614635 0.850912 0.144500
N2    N     N_R   0.256374 0.121488 0.770044 0.085055
O29   O     O_R   0.342362 0.250190 0.727704 -0.376237
O30   O     O_R   0.139388 0.102718 0.808334 -0.309127

loop_
_geom_bond_atom_site_label_1
_geom_bond_atom_site_label_2
_geom_bond_distance
_ccdc_geom_bond_type
C31   O16   1.262186 A    
O11   Cr3   2.052951 S    
C22   H4    1.083687 S    
C17   C18   1.185537 T    
C10   N1    1.436346 S    
C18   C35   1.398046 S    
O4    Cr2   1.945555 S    
O8    Cr1   1.935439 S    
C9    C10   1.416973 A    
C11   H2    1.084180 S    
C8    C9    1.410287 A    
C26   H8    1.084107 S    
O4    C2    1.276873 A    
N1    O28   1.299409 A    
C1    C15   1.432697 S    
C5    O11   1.258513 A    
C25   C30   1.415104 A    
O19   Cr6   1.941676 S    
O20   C36   1.254679 A    
Cr6   O26   1.952978 S    
O15   C31   1.270901 A    
O14   C33   1.264715 A    
O23   Cr5   1.932916 S    
O15   Cr4   1.937507 S    
C26   C27   1.402888 A    
O6    C3    1.266121 A    
O16   Cr5   2.050706 S    
C7    C8    1.391217 A    
O25   Cr6   1.943937 S    
O18   Cr6   2.062320 S    
C14   C31   1.399624 S    
O23   C35   1.260656 A    
C25   N2    1.437385 S    
Cr3   O13   1.982802 S    
C22   C23   1.383497 A    
C19   H10   1.084236 S    
C5    C17   1.397949 S    
C4    C30   1.460953 S    
O12   C6    1.271703 A    
O1    Cr1   2.053240 S    
C29   C30   1.412051 A    
C7    C12   1.396392 A    
O10   Cr2   1.941305 S    
Cr1   O13   1.976814 S    
O1    C3    1.266807 A    
C8    H1    1.082886 S    
Cr5   O26   1.980151 S    
C27   C36   1.457014 S    
N1    O27   1.301566 A    
C28   C29   1.391858 A    
O24   Cr6   2.060022 S    
O5    Cr3   2.047767 S    
C16   C33   1.432555 S    
O12   Cr3   1.926017 S    
C35   O24   1.249106 A    
O19   C33   1.269645 A    
C23   H5    1.083443 S    
C29   H9    1.082897 S    
C19   C20   1.372792 A    
C23   C24   1.404659 A    
C13   C14   1.186089 T    
O7    Cr1   2.041339 S    
O6    Cr3   1.933426 S    
C9    C32   1.461286 S    
O21   Cr4   1.925965 S    
C27   C28   1.395110 A    
C2    C12   1.455308 S    
Cr2   O13   1.953143 S    
N2    O29   1.299870 A    
N2    O30   1.301617 A    
C19   C24   1.395797 A    
C1    O3    1.284957 A    
O14   Cr4   2.047123 S    
C6    C24   1.436740 S    
C25   C26   1.377392 A    
C21   C22   1.396432 A    
O9    Cr2   2.063743 S    
O2    Cr1   1.925979 S    
C7    H7    1.083112 S    
Cr4   O26   1.979950 S    
O8    C4    1.299334 A    
C2    O5    1.259128 A    
O22   Cr5   2.040628 S    
C21   C34   1.431245 S    
C34   O22   1.265949 A    
C11   C12   1.399724 A    
O2    C1    1.303767 A    
C32   O18   1.287736 A    
C20   C21   1.401653 A    
O17   C32   1.302152 A    
C20   H3    1.083778 S    
O7    C6    1.269308 A    
C15   C16   1.205075 T    
O20   Cr4   2.057385 S    
O17   Cr5   1.925597 S    
O25   C36   1.278141 A    
C3    C13   1.399840 S    
O21   C34   1.270600 A    
O3    Cr2   2.059378 S    
C4    O9    1.287857 A    
C28   H6    1.083089 S    
C10   C11   1.378061 A    
O10   C5    1.260558 A    
