data_mof_unit_59410.cif
_audit_creation_date              2012-12-10T17:53:11-0500
_audit_creation_method            fapswitch 2.2
_symmetry_space_group_name_H-M    P1
_symmetry_Int_Tables_number       1
_space_group_crystal_system       triclinic
_cell_length_a                    14.663985
_cell_length_b                    14.491936
_cell_length_c                    27.795856
_cell_angle_alpha                 76.691459
_cell_angle_beta                  103.009896
_cell_angle_gamma                 115.665044
_cell_volume                      5127.89887364

loop_
_atom_site_label
_atom_site_type_symbol
_atom_type_description
_atom_site_fract_x
_atom_site_fract_y
_atom_site_fract_z
_atom_type_partial_charge
C1    C     C_R   0.879867 0.310394 0.506814 0.804380
C2    C     C_R   0.947083 0.405736 0.132648 -0.020663
C3    C     C_R   0.998483 0.499582 0.645325 -0.038982
C4    C     C_R   0.000646 0.499081 0.354736 -0.041484
C5    C     C_R   0.941408 0.405569 0.029945 0.041753
C6    C     C_R   0.060312 0.590003 0.970822 0.042029
C7    C     C_R   0.057334 0.591102 0.021443 0.041856
C8    C     C_R   0.936531 0.407257 0.978107 0.041981
C9    C     C_R   0.999822 0.498195 0.051028 0.067811
C10   C     C_R   0.997978 0.498764 0.949132 0.067584
C11   C     C_R   0.890367 0.313913 0.061804 -0.204561
C12   C     C_R   0.120212 0.689032 0.494619 0.796791
C13   C     C_R   0.124326 0.677068 0.940973 -0.204896
C14   C     C_R   0.893195 0.314251 0.112051 -0.147779
C15   C     C_R   0.124133 0.675782 0.891145 -0.149163
C16   C     C_R   0.999553 0.499908 0.592482 0.793359
C17   C     C_R   0.000264 0.499808 0.407533 0.792601
C18   C     C_R   0.871468 0.320533 0.953895 -0.205124
C19   C     C_R   0.109439 0.682438 0.043644 -0.205022
C20   C     C_R   0.813087 0.197851 0.511308 -0.088728
C21   C     C_R   0.188781 0.796883 0.502787 -0.096467
C22   C     C_R   0.780361 0.015947 0.517353 -0.215441
C23   C     C_R   0.997145 0.499011 0.897849 -0.044594
C24   C     C_R   0.233704 0.953420 0.537428 -0.204468
C25   C     C_R   0.848212 0.120443 0.510486 0.156412
C26   C     C_R   0.158199 0.862203 0.520662 0.151731
C27   C     C_R   0.711203 0.166802 0.517885 -0.271815
C28   C     C_R   0.292945 0.827144 0.501480 -0.254013
C29   C     C_R   0.646669 0.061928 0.529337 0.082295
C30   C     C_R   0.368419 0.908948 0.525323 0.078782
C31   C     C_R   0.680500 0.986651 0.525912 0.092502
C32   C     C_R   0.337804 0.976491 0.540311 0.088015
C33   C     C_R   0.546331 0.029885 0.540309 0.019939
C34   C     C_R   0.000674 0.497932 0.102314 -0.044314
C35   C     C_R   0.473884 0.928385 0.532476 0.019064
C36   C     C_R   0.511622 0.850587 0.535720 0.136687
C37   C     C_R   0.515886 0.091070 0.561754 0.150587
C38   C     C_R   0.614675 0.882157 0.531549 -0.255920
C39   C     C_R   0.411260 0.064169 0.560090 -0.246689
C40   C     C_R   0.933556 0.412350 0.824583 0.530920
C41   C     C_R   0.054266 0.588094 0.174010 0.531823
C42   C     C_R   0.716000 0.668739 0.413451 0.037104
C43   C     C_R   0.286895 0.335957 0.588414 0.041530
C44   C     C_R   0.796787 0.636092 0.427988 0.072215
C45   C     C_R   0.933123 0.410478 0.875265 -0.019678
C46   C     C_R   0.203509 0.364382 0.572179 0.053838
C47   C     C_R   0.716645 0.513299 0.494424 -0.013161
C48   C     C_R   0.284771 0.489202 0.506589 -0.020174
C49   C     C_R   0.631981 0.541400 0.482802 -0.044011
C50   C     C_R   0.373523 0.467931 0.520971 -0.046704
C51   C     C_R   0.632610 0.620542 0.441475 0.090847
C52   C     C_R   0.373740 0.390107 0.562840 0.102003
C53   C     C_R   0.546833 0.492853 0.510405 0.098735
C54   C     C_R   0.461111 0.520698 0.495074 0.083121
C55   C     C_R   0.466284 0.601217 0.454692 -0.238431
C56   C     C_R   0.055033 0.589893 0.123387 -0.020538
C57   C     C_R   0.545056 0.418056 0.553163 -0.228516
C58   C     C_R   0.549717 0.649918 0.428923 -0.203475
C59   C     C_R   0.461050 0.368266 0.578518 -0.215455
C60   C     C_R   0.058971 0.586129 0.818558 0.531215
C61   C     C_R   0.948907 0.407211 0.183194 0.533131
C62   C     C_R   0.915291 0.506152 0.710007 -0.111128
C63   C     C_R   0.063106 0.459532 0.291534 -0.105819
C64   C     C_R   0.916216 0.506741 0.659878 -0.229541
C65   C     C_R   0.063136 0.460400 0.341605 -0.227420
C66   C     C_R   0.079693 0.491903 0.681763 -0.221716
C67   C     C_R   0.870043 0.322296 0.903561 -0.149523
C68   C     C_R   0.938363 0.536976 0.316937 -0.212186
C69   C     C_R   0.078820 0.491940 0.731799 -0.109201
C70   C     C_R   0.938976 0.536577 0.266910 -0.107738
C71   C     C_R   0.996668 0.499002 0.746041 0.365810
C72   C     C_R   0.001217 0.497799 0.254112 0.365069
C73   C     C_3   0.048072 0.837713 0.523930 -0.385083
C74   C     C_3   0.992976 0.867696 0.473342 -0.806254
C75   C     C_3   0.954032 0.143891 0.499911 -0.400189
C76   C     C_3   0.967290 0.192166 0.445582 -0.768327
C77   C     C_3   0.452816 0.735011 0.552433 -0.385055
C78   C     C_R   0.108262 0.681588 0.093566 -0.148307
C79   C     C_3   0.413548 0.713359 0.602075 -0.772357
C80   C     C_3   0.589334 0.170291 0.595602 -0.406399
C81   C     C_3   0.650314 0.124203 0.638470 -0.782352
C82   C     C_3   0.717193 0.753409 0.368809 -0.422626
C83   C     C_3   0.808755 0.797270 0.340302 -0.846489
C84   C     C_3   0.284500 0.249119 0.632075 -0.426754
C85   C     C_3   0.184686 0.191866 0.654568 -0.851917
C86   C     C_R   0.060420 0.587761 0.869031 -0.020052
Cu1   Cu    Cu3+1 0.081740 0.475690 0.513040 0.922889
Cu2   Cu    Cu3+1 0.918260 0.524310 0.486960 0.924898
H1    H     H_    0.144108 0.486422 0.671620 0.157416
H2    H     H_    0.722297 0.453630 0.524597 0.127529
H3    H     H_    0.136335 0.327567 0.590607 0.146923
H4    H     H_    0.862408 0.670397 0.408495 0.145988
H5    H     H_    0.407148 0.629967 0.441988 0.131038
H6    H     H_    0.608589 0.396884 0.568874 0.122161
H7    H     H_    0.141845 0.486283 0.759588 0.137061
H8    H     H_    0.891001 0.566217 0.238030 0.136193
H9    H     H_    0.818982 0.253722 0.886897 0.185018
H10   H     H_    0.149475 0.753656 0.108699 0.185901
H11   H     H_    0.111547 0.430336 0.369972 0.159238
H12   H     H_    0.889695 0.567507 0.325964 0.153281
H13   H     H_    0.852430 0.512304 0.632628 0.153141
H14   H     H_    0.111364 0.429496 0.281738 0.136794
H15   H     H_    0.851616 0.511659 0.720889 0.136017
H16   H     H_    0.852603 0.241996 0.134755 0.185300
H17   H     H_    0.174586 0.744544 0.869976 0.184890
H18   H     H_    0.848912 0.239555 0.049404 0.140299
H19   H     H_    0.177530 0.747292 0.955172 0.139979
H20   H     H_    0.818733 0.250205 0.972496 0.140076
H21   H     H_    0.150434 0.756963 0.023237 0.140327
H22   H     H_    0.644060 0.824664 0.532427 0.142776
H23   H     H_    0.314171 0.786019 0.481329 0.146249
H24   H     H_    0.386664 0.111003 0.575143 0.133216
H25   H     H_    0.998793 0.830434 0.444166 0.256051
H26   H     H_    0.910981 0.843015 0.475935 0.235797
H27   H     H_    0.027255 0.953044 0.462104 0.244441
H28   H     H_    0.007031 0.755134 0.539022 0.222566
H29   H     H_    0.044570 0.881716 0.550904 0.184180
H30   H     H_    0.955413 0.265125 0.435783 0.251458
H31   H     H_    0.045812 0.209580 0.439566 0.233105
H32   H     H_    0.911681 0.137113 0.420244 0.245406
H33   H     H_    0.014795 0.192885 0.526099 0.216953
H34   H     H_    0.681118 0.225101 0.511678 0.161336
H35   H     H_    0.967230 0.071648 0.506666 0.186555
H36   H     H_    0.477546 0.749902 0.631014 0.247246
H37   H     H_    0.353749 0.742980 0.598321 0.256805
H38   H     H_    0.379422 0.628425 0.614591 0.237373
H39   H     H_    0.390189 0.697118 0.523904 0.195400
H40   H     H_    0.503406 0.693062 0.558283 0.201966
H41   H     H_    0.597789 0.052638 0.659223 0.254479
H42   H     H_    0.704666 0.105798 0.624471 0.253682
H43   H     H_    0.695083 0.181093 0.664675 0.247206
H44   H     H_    0.641478 0.241811 0.575360 0.184815
H45   H     H_    0.805115 0.956546 0.515372 0.130708
H46   H     H_    0.546052 0.197107 0.613170 0.194059
H47   H     H_    0.880757 0.835867 0.364804 0.246987
H48   H     H_    0.813452 0.734999 0.325265 0.247159
H49   H     H_    0.799336 0.856067 0.308323 0.258286
H50   H     H_    0.647386 0.721746 0.341579 0.217063
H51   H     H_    0.714866 0.819053 0.382024 0.211088
H52   H     H_    0.169008 0.245455 0.671110 0.250427
H53   H     H_    0.119977 0.156041 0.625735 0.241833
H54   H     H_    0.191629 0.129119 0.684798 0.257024
H55   H     H_    0.299211 0.190303 0.619192 0.203320
H56   H     H_    0.211242 0.005076 0.550011 0.133050
H57   H     H_    0.346771 0.281871 0.662479 0.214265
H58   H     H_    0.547355 0.710987 0.398494 0.142713
H59   H     H_    0.466192 0.312264 0.611057 0.129423
H60   H     H_    0.276806 0.545259 0.474946 0.131129
N1    N     N_R   0.996157 0.499241 0.797488 -0.467926
N2    N     N_R   0.001709 0.497614 0.202675 -0.468821
N3    N     N_R   0.795430 0.560780 0.467350 -0.196366
N4    N     N_R   0.204570 0.439220 0.532650 -0.194225
O1    O     O_R   0.977900 0.338120 0.517190 -0.580614
O2    O     O_2   0.105911 0.675866 0.194527 -0.542080
O3    O     O_2   0.897772 0.319297 0.212577 -0.542134
O4    O     O_2   0.119408 0.670785 0.790650 -0.545091
O5    O     O_R   0.022100 0.661880 0.482810 -0.579012
O6    O     O_R   0.839850 0.379180 0.495160 -0.576871
O7    O     O_R   0.160150 0.620820 0.504840 -0.574252
O8    O     O_R   0.069030 0.479490 0.580750 -0.584576
O9    O     O_R   0.930970 0.520510 0.419250 -0.582209
O10   O     O_R   0.930970 0.520550 0.558720 -0.590897
O11   O     O_R   0.069030 0.479450 0.441280 -0.584308
O12   O     O_2   0.872621 0.327831 0.802626 -0.547389

loop_
_geom_bond_atom_site_label_1
_geom_bond_atom_site_label_2
_ccdc_geom_bond_type
Cu1   O11   S    
Cu1   Cu2   S    
C63   C65   A    
C34   C56   A    
C23   C45   A    
Cu2   N3    S    
C16   O8    A    
C73   C74   S    
C46   N4    A    
C35   C36   A    
C42   C82   S    
C13   H19   S    
C24   C32   A    
C56   C78   A    
C62   C71   A    
C47   C49   A    
C3    C64   A    
C76   H32   S    
C73   H28   S    
C30   C35   A    
C80   H44   S    
C1    O6    A    
C24   C26   A    
C5    C11   A    
C36   C77   S    
C4    C65   A    
C11   C14   A    
C49   C53   A    
C43   C52   A    
C57   C59   A    
C66   C69   A    
C27   C29   A    
C20   C25   A    
Cu2   O9    S    
C74   H26   S    
C29   C33   A    
C26   C73   S    
C80   H46   S    
Cu1   O8    S    
C32   C39   A    
C69   C71   A    
C62   C64   A    
C17   O11   A    
C81   H41   S    
C27   H34   S    
C53   C54   A    
C49   C51   A    
C22   C25   A    
C78   H10   S    
C50   C52   A    
Cu1   O1    S    
Cu2   O6    S    
C12   O5    A    
C38   H22   S    
C61   N2    A    
C83   H47   S    
C77   H39   S    
C2    C61   A    
C55   H5    S    
C42   C51   A    
C60   N1    A    
C2    C34   A    
C19   H21   S    
C79   H37   S    
C43   C84   S    
C64   H13   S    
C42   C44   A    
C63   H14   S    
C61   O3    S    
C21   C26   A    
C66   H1    S    
C77   C79   S    
C28   H23   S    
C40   C45   A    
C37   C39   A    
C37   C80   S    
C44   N3    A    
C73   H29   S    
C22   C31   A    
C22   H45   S    
C76   H31   S    
C84   C85   S    
C65   H11   S    
C85   H53   S    
C4    C68   A    
C60   C86   A    
C46   H3    S    
C84   H55   S    
C16   O10   A    
C18   C67   A    
C84   H57   S    
C74   H25   S    
C12   C21   S    
C23   C86   A    
C33   C37   A    
C25   C75   S    
C19   C78   A    
C70   H8    S    
C75   C76   S    
C68   H12   S    
C41   C56   A    
C5    C9    A    
C82   H51   S    
C52   C59   A    
C14   H16   S    
C11   H18   S    
C8    C18   A    
C51   C58   A    
C50   C54   A    
Cu2   O5    S    
C1    O1    A    
C48   C50   A    
C85   H52   S    
C83   H48   S    
C6    C7    A    
C77   H40   S    
C17   O9    A    
C15   C86   A    
C4    C17   S    
C68   C70   A    
C39   H24   S    
C79   H38   S    
C76   H30   S    
C7    C19   A    
Cu1   N4    S    
C13   C15   A    
C9    C34   A    
C47   H2    S    
C75   H35   S    
C3    C66   A    
C83   H49   S    
C41   O2    S    
C7    C9    A    
C54   C55   A    
C1    C20   S    
C53   C57   A    
C75   H33   S    
C21   C28   A    
C47   N3    A    
C80   C81   S    
C69   H7    S    
C44   H4    S    
C85   H54   S    
C62   H15   S    
C5    C8    A    
C58   H58   S    
C40   O12   S    
C45   C67   A    
C41   N2    A    
C20   C27   A    
C10   C23   A    
C79   H36   S    
C72   N2    S    
C31   C38   A    
C57   H6    S    
C15   H17   S    
C48   N4    A    
C28   C30   A    
C29   C31   A    
C82   H50   S    
C6    C13   A    
C30   C32   A    
C81   H42   S    
C71   N1    S    
C24   H56   S    
Cu2   O10   S    
C74   H27   S    
C48   H60   S    
C36   C38   A    
C33   C35   A    
Cu1   O7    S    
C40   N1    A    
C60   O4    S    
C12   O7    A    
C2    C14   A    
C43   C46   A    
C18   H20   S    
C81   H43   S    
C6    C10   A    
C67   H9    S    
C63   C72   A    
C8    C10   A    
C82   C83   S    
C55   C58   A    
C70   C72   A    
C3    C16   S    
C59   H59   S    
