data_mof_unit_63588.cif
_audit_creation_date              2012-12-10T19:45:53-0500
_audit_creation_method            fapswitch 2.2
_symmetry_space_group_name_H-M    P1
_symmetry_Int_Tables_number       1
_space_group_crystal_system       tetragonal
_cell_length_a                    18.430546
_cell_length_b                    18.430546
_cell_length_c                    27.661129
_cell_angle_alpha                 90.0
_cell_angle_beta                  90.0
_cell_angle_gamma                 90.0
_cell_volume                      9396.07131963

loop_
_atom_site_label
_atom_site_type_symbol
_atom_type_description
_atom_site_fract_x
_atom_site_fract_y
_atom_site_fract_z
_atom_type_partial_charge
C1    C     C_1   0.000000 0.500000 0.775510 -0.039484
C2    C     C_3   0.204321 0.145205 0.936123 -0.264732
C3    C     C_R   0.241743 0.812228 0.529934 -0.157995
C4    C     C_1   0.500000 0.000000 0.224504 -0.038385
C5    C     C_1   0.000000 0.500000 0.224504 -0.038385
C6    C     C_1   1.000000 0.500000 0.724504 -0.038385
C7    C     C_1   0.500000 1.000000 0.724504 -0.038385
C8    C     C_3   0.854794 0.204323 0.936122 -0.264732
C9    C     C_3   0.795678 0.854795 0.936123 -0.264732
C10   C     C_3   0.145205 0.204321 0.936123 -0.264732
C11   C     C_3   0.204322 0.854794 0.936122 -0.264732
C12   C     C_3   0.854795 0.795678 0.936123 -0.264732
C13   C     C_3   0.795677 0.145206 0.936122 -0.264732
C14   C     C_3   0.645206 0.295677 0.436122 -0.264732
C15   C     C_3   0.704322 0.645205 0.436123 -0.264732
C16   C     C_3   0.354794 0.704323 0.436122 -0.264732
C17   C     C_1   0.500000 0.000000 0.775510 -0.039484
C18   C     C_3   0.295678 0.354795 0.436123 -0.264732
C19   C     C_3   0.645205 0.704322 0.436123 -0.264732
C20   C     C_3   0.704323 0.354794 0.436122 -0.264732
C21   C     C_3   0.354795 0.295678 0.436123 -0.264732
C22   C     C_3   0.295677 0.645206 0.436122 -0.264732
C23   C     C_R   0.500000 0.000000 0.870911 0.503144
C24   C     C_R   0.000000 0.500000 0.870911 0.503144
C25   C     C_R   1.000000 0.500000 0.370911 0.503144
C26   C     C_R   0.500000 0.000000 0.370911 0.503144
C27   C     C_R   0.500000 0.000000 0.129100 0.503501
C28   C     C_1   0.500000 1.000000 0.275510 -0.039484
C29   C     C_R   0.000000 0.500000 0.129100 0.503501
C30   C     C_R   1.000000 0.500000 0.629100 0.503501
C31   C     C_R   0.500000 1.000000 0.629100 0.503501
C32   C     C_R   0.639986 0.859935 0.000048 0.509467
C33   C     C_R   0.140065 0.639986 0.000048 0.509467
C34   C     C_R   0.360014 0.140065 0.000048 0.509467
C35   C     C_R   0.859935 0.360014 0.000048 0.509467
C36   C     C_R   0.639986 0.140065 0.000048 0.509467
C37   C     C_R   0.140065 0.360014 0.000048 0.509467
C38   C     C_R   0.360014 0.859935 0.000048 0.509467
C39   C     C_1   0.000000 0.500000 0.275510 -0.039484
C40   C     C_R   0.859935 0.639986 0.000048 0.509467
C41   C     C_R   0.139986 0.359935 0.500048 0.509467
C42   C     C_R   0.640065 0.139986 0.500048 0.509467
C43   C     C_R   0.860014 0.640065 0.500048 0.509467
C44   C     C_R   0.359935 0.860014 0.500048 0.509467
C45   C     C_R   0.139986 0.640065 0.500048 0.509467
C46   C     C_R   0.640065 0.860014 0.500048 0.509467
C47   C     C_R   0.860014 0.359935 0.500048 0.509467
C48   C     C_R   0.359935 0.139986 0.500048 0.509467
C49   C     C_1   1.000000 0.500000 0.819071 0.007303
C50   C     C_1   0.500000 0.000000 0.180942 0.009478
C51   C     C_1   0.500000 0.000000 0.819071 0.007303
C52   C     C_1   0.500000 0.000000 0.319071 0.007303
C53   C     C_1   1.000000 0.500000 0.319071 0.007303
C54   C     C_R   0.243255 0.808523 0.971837 0.020261
C55   C     C_R   0.191477 0.243255 0.971837 0.020262
C56   C     C_R   0.756745 0.191477 0.971837 0.020261
C57   C     C_R   0.808523 0.756745 0.971837 0.020262
C58   C     C_R   0.243255 0.191477 0.971837 0.020262
C59   C     C_R   0.191477 0.756745 0.971837 0.020261
C60   C     C_R   0.756745 0.808523 0.971837 0.020262
C61   C     C_1   0.000000 0.500000 0.180942 0.009478
C62   C     C_R   0.808523 0.243255 0.971837 0.020261
C63   C     C_R   0.743255 0.308523 0.471837 0.020261
C64   C     C_R   0.691477 0.743255 0.471837 0.020262
C65   C     C_R   0.256745 0.691477 0.471837 0.020261
C66   C     C_R   0.308523 0.256745 0.471837 0.020262
C67   C     C_R   0.743255 0.691477 0.471837 0.020262
C68   C     C_R   0.691477 0.256745 0.471837 0.020261
C69   C     C_R   0.256745 0.308523 0.471837 0.020262
C70   C     C_R   0.308523 0.743255 0.471837 0.020261
C71   C     C_R   0.305030 0.803836 0.000350 0.030582
C72   C     C_1   1.000000 0.500000 0.680942 0.009478
C73   C     C_R   0.196164 0.305030 0.000350 0.030582
C74   C     C_R   0.694970 0.196164 0.000350 0.030582
C75   C     C_R   0.803835 0.694970 0.000350 0.030582
C76   C     C_R   0.305030 0.196164 0.000350 0.030582
C77   C     C_R   0.196164 0.694970 0.000350 0.030582
C78   C     C_R   0.694970 0.803835 0.000350 0.030582
C79   C     C_R   0.803836 0.305030 0.000350 0.030582
C80   C     C_R   0.805030 0.303836 0.500350 0.030582
C81   C     C_R   0.696165 0.805030 0.500350 0.030582
C82   C     C_R   0.194970 0.696164 0.500350 0.030582
C83   C     C_1   0.500000 1.000000 0.680942 0.009478
C84   C     C_R   0.303835 0.194969 0.500350 0.030582
C85   C     C_R   0.805030 0.696165 0.500350 0.030582
C86   C     C_R   0.696164 0.194970 0.500350 0.030582
C87   C     C_R   0.194969 0.303835 0.500350 0.030582
C88   C     C_R   0.303836 0.805030 0.500350 0.030582
C89   C     C_R   0.312228 0.741743 0.029934 -0.157995
C90   C     C_R   0.258258 0.312228 0.029934 -0.157995
C91   C     C_R   0.687772 0.258257 0.029934 -0.157995
C92   C     C_R   0.741742 0.687772 0.029934 -0.157995
C93   C     C_R   0.312228 0.258258 0.029934 -0.157995
C94   C     C_3   0.145206 0.795677 0.936122 -0.264732
C95   C     C_R   0.258257 0.687772 0.029934 -0.157995
C96   C     C_R   0.687772 0.741742 0.029934 -0.157995
C97   C     C_R   0.741743 0.312228 0.029934 -0.157995
C98   C     C_R   0.812228 0.241743 0.529934 -0.157995
C99   C     C_R   0.758258 0.812228 0.529934 -0.157995
C100  C     C_R   0.187772 0.758257 0.529934 -0.157995
C101  C     C_R   0.241742 0.187772 0.529934 -0.157995
C102  C     C_R   0.812228 0.758258 0.529934 -0.157995
C103  C     C_R   0.758257 0.187772 0.529934 -0.157995
C104  C     C_R   0.187772 0.241742 0.529934 -0.157995
H1    H     H_    0.092914 0.813875 0.952063 0.138731
H2    H     H_    0.686124 0.592913 0.452065 0.138731
H3    H     H_    0.407086 0.686125 0.452063 0.138731
H4    H     H_    0.313876 0.407087 0.452065 0.138731
H5    H     H_    0.592913 0.686124 0.452065 0.138731
H6    H     H_    0.686125 0.407086 0.452063 0.138731
H7    H     H_    0.407087 0.313876 0.452065 0.138731
H8    H     H_    0.313875 0.592914 0.452063 0.138731
H9    H     H_    0.140842 0.765914 0.901294 0.147741
H10   H     H_    0.234084 0.140840 0.901294 0.147741
H11   H     H_    0.859158 0.234086 0.901294 0.147741
H12   H     H_    0.186124 0.092913 0.952065 0.138731
H13   H     H_    0.765916 0.859159 0.901294 0.147741
H14   H     H_    0.140840 0.234084 0.901294 0.147741
H15   H     H_    0.234086 0.859158 0.901294 0.147741
H16   H     H_    0.859159 0.765916 0.901294 0.147741
H17   H     H_    0.765914 0.140842 0.901294 0.147741
H18   H     H_    0.640842 0.265914 0.401294 0.147741
H19   H     H_    0.734084 0.640840 0.401294 0.147741
H20   H     H_    0.359158 0.734086 0.401294 0.147741
H21   H     H_    0.265916 0.359160 0.401294 0.147741
H22   H     H_    0.640840 0.734084 0.401294 0.147741
H23   H     H_    0.907086 0.186125 0.952063 0.138731
H24   H     H_    0.734086 0.359158 0.401294 0.147741
H25   H     H_    0.359160 0.265916 0.401294 0.147741
H26   H     H_    0.265914 0.640842 0.401294 0.147741
H27   H     H_    0.359172 0.734687 0.053006 0.144850
H28   H     H_    0.265314 0.359173 0.053005 0.144850
H29   H     H_    0.640828 0.265313 0.053006 0.144850
H30   H     H_    0.734686 0.640827 0.053005 0.144850
H31   H     H_    0.359173 0.265314 0.053005 0.144850
H32   H     H_    0.265313 0.640828 0.053006 0.144850
H33   H     H_    0.640827 0.734686 0.053005 0.144850
H34   H     H_    0.813876 0.907087 0.952065 0.138731
H35   H     H_    0.734687 0.359172 0.053006 0.144850
H36   H     H_    0.859172 0.234687 0.553006 0.144850
H37   H     H_    0.765314 0.859173 0.553005 0.144850
H38   H     H_    0.140828 0.765313 0.553006 0.144850
H39   H     H_    0.234686 0.140827 0.553005 0.144850
H40   H     H_    0.859173 0.765314 0.553005 0.144850
H41   H     H_    0.765313 0.140828 0.553006 0.144850
H42   H     H_    0.140827 0.234686 0.553005 0.144850
H43   H     H_    0.234687 0.859172 0.553006 0.144850
H44   H     H_    0.092913 0.186124 0.952065 0.138731
H45   H     H_    0.186125 0.907086 0.952063 0.138731
H46   H     H_    0.907087 0.813876 0.952065 0.138731
H47   H     H_    0.813875 0.092914 0.952063 0.138731
H48   H     H_    0.592914 0.313875 0.452063 0.138731
O1    O     O_3   0.500000 0.000000 0.000010 -0.436330
O2    O     O_R   0.500000 0.939270 0.393740 -0.539012
O3    O     O_R   0.060730 0.500000 0.393740 -0.539012
O4    O     O_R   0.500000 0.060730 0.393740 -0.539012
O5    O     O_R   0.500000 0.939230 0.106280 -0.536792
O6    O     O_R   0.060770 0.500000 0.106280 -0.536792
O7    O     O_R   0.500000 0.060770 0.106280 -0.536792
O8    O     O_R   0.939230 0.500000 0.106280 -0.536792
O9    O     O_R   0.000000 0.439230 0.606280 -0.536792
O10   O     O_R   0.560770 0.000000 0.606280 -0.536792
O11   O     O_R   0.000000 0.560770 0.606280 -0.536792
O12   O     O_3   1.000000 0.500000 0.000010 -0.436330
O13   O     O_R   0.439230 0.000000 0.606280 -0.536792
O14   O     O_R   0.646160 0.914520 0.972140 -0.543736
O15   O     O_R   0.085480 0.646160 0.972140 -0.543736
O16   O     O_R   0.353840 0.085480 0.972140 -0.543736
O17   O     O_R   0.914520 0.353840 0.972140 -0.543736
O18   O     O_R   0.646160 0.085480 0.972140 -0.543736
O19   O     O_R   0.085480 0.353840 0.972140 -0.543736
O20   O     O_R   0.353840 0.914520 0.972140 -0.543736
O21   O     O_R   0.914520 0.646160 0.972140 -0.543736
O22   O     O_R   0.146160 0.414520 0.472140 -0.543736
O23   O     O_3   1.000000 0.500000 0.500010 -0.436330
O24   O     O_R   0.585480 0.146160 0.472140 -0.543736
O25   O     O_R   0.853840 0.585480 0.472140 -0.543736
O26   O     O_R   0.414520 0.853840 0.472140 -0.543736
O27   O     O_R   0.146160 0.585480 0.472140 -0.543736
O28   O     O_R   0.585480 0.853840 0.472140 -0.543736
O29   O     O_R   0.853840 0.414520 0.472140 -0.543736
O30   O     O_R   0.414520 0.146160 0.472140 -0.543736
O31   O     O_R   0.414550 0.146120 0.027860 -0.549317
O32   O     O_R   0.853880 0.414550 0.027860 -0.549317
O33   O     O_R   0.585450 0.853880 0.027860 -0.549317
O34   O     O_3   0.500000 0.000000 0.500010 -0.436330
O35   O     O_R   0.146120 0.585450 0.027860 -0.549317
O36   O     O_R   0.414550 0.853880 0.027860 -0.549317
O37   O     O_R   0.853880 0.585450 0.027860 -0.549317
O38   O     O_R   0.585450 0.146120 0.027860 -0.549317
O39   O     O_R   0.146120 0.414550 0.027860 -0.549317
O40   O     O_R   0.914550 0.646120 0.527860 -0.549317
O41   O     O_R   0.353880 0.914550 0.527860 -0.549317
O42   O     O_R   0.085450 0.353880 0.527860 -0.549317
O43   O     O_R   0.646120 0.085450 0.527860 -0.549317
O44   O     O_R   0.914550 0.353880 0.527860 -0.549317
O45   O     O_R   0.439270 0.000000 0.893740 -0.539012
O46   O     O_R   0.353880 0.085450 0.527860 -0.549317
O47   O     O_R   0.085450 0.646120 0.527860 -0.549317
O48   O     O_R   0.646120 0.914550 0.527860 -0.549317
O49   O     O_R   1.000000 0.439270 0.893740 -0.539012
O50   O     O_R   0.560730 0.000000 0.893740 -0.539012
O51   O     O_R   0.000000 0.560730 0.893740 -0.539012
O52   O     O_R   0.939270 0.500000 0.393740 -0.539012
Zn1   Zn    Zn3+2 0.500000 0.913210 0.039810 0.936604
Zn2   Zn    Zn3+2 1.000000 0.586760 0.960200 0.932883
Zn3   Zn    Zn3+2 0.413240 0.000000 0.960200 0.932883
Zn4   Zn    Zn3+2 1.000000 0.413240 0.960200 0.932883
Zn5   Zn    Zn3+2 0.086760 0.500000 0.460200 0.932883
Zn6   Zn    Zn3+2 0.500000 0.086760 0.460200 0.932883
Zn7   Zn    Zn3+2 0.913240 0.500000 0.460200 0.932883
Zn8   Zn    Zn3+2 0.500000 0.913240 0.460200 0.932883
Zn9   Zn    Zn3+2 0.086790 0.500000 0.039810 0.936604
Zn10  Zn    Zn3+2 0.500000 0.086790 0.039810 0.936604
Zn11  Zn    Zn3+2 0.913210 0.500000 0.039810 0.936604
Zn12  Zn    Zn3+2 1.000000 0.413210 0.539810 0.936604
Zn13  Zn    Zn3+2 0.586790 0.000000 0.539810 0.936604
Zn14  Zn    Zn3+2 0.000000 0.586790 0.539810 0.936604
Zn15  Zn    Zn3+2 0.413210 0.000000 0.539810 0.936604
Zn16  Zn    Zn3+2 0.586760 0.000000 0.960200 0.932883

loop_
_geom_bond_atom_site_label_1
_geom_bond_atom_site_label_2
_ccdc_geom_bond_type
C7    C83   T    
C41   O22   A    
O35   Zn9   S    
C24   O51   A    
C3    H43   S    
C8    C13   S    
C14   H18   S    
O34   Zn8   S    
C21   C66   S    
C25   O3    A    
C18   C21   S    
C68   C86   A    
O12   Zn2   S    
C26   O4    A    
O46   Zn15  S    
O40   Zn14  S    
C47   O29   A    
C25   O52   A    
C70   C88   A    
C59   C77   A    
O17   Zn4   S    
C58   C76   A    
C94   H1    S    
O6    Zn9   S    
C6    C72   T    
C60   C78   A    
C44   O41   A    
C15   H19   S    
C32   O33   A    
C36   O38   A    
C47   C80   S    
C15   H2    S    
C25   C53   S    
C73   C90   A    
C20   H24   S    
C32   O14   A    
C18   H21   S    
O42   Zn12  S    
C40   O21   A    
O44   Zn12  S    
C66   C69   A    
C27   O7    A    
C98   C103  A    
O22   Zn5   S    
C10   H44   S    
C92   C96   A    
C9    H13   S    
O50   Zn16  S    
O28   Zn8   S    
O1    Zn16  S    
O2    Zn8   S    
O37   Zn11  S    
C16   H3    S    
C21   H7    S    
C12   H16   S    
C2    H12   S    
C3    C100  A    
C11   H45   S    
C26   C52   S    
C54   C71   A    
C31   O13   A    
C78   C96   A    
C7    C17   S    
C71   C89   A    
C12   H46   S    
O21   Zn2   S    
C42   C86   S    
C59   C94   S    
O23   Zn7   S    
C8    H11   S    
C27   C50   S    
C63   C80   A    
C13   C56   S    
C90   H28   S    
C18   C69   S    
O33   Zn1   S    
C3    C88   A    
C31   O10   A    
C11   H15   S    
O12   Zn11  S    
O7    Zn10  S    
O1    Zn3   S    
C22   H26   S    
C84   C101  A    
C65   C70   A    
C17   C51   T    
C33   O15   A    
O47   Zn14  S    
C102  H40   S    
C30   O11   A    
C34   O16   A    
C86   C103  A    
O1    Zn10  S    
C4    C28   S    
C94   H9    S    
C99   H37   S    
C29   O8    A    
O18   Zn16  S    
C54   C59   A    
C19   H5    S    
O30   Zn6   S    
C41   C87   S    
O34   Zn13  S    
C29   C61   S    
C24   O49   A    
C67   C85   A    
C56   C74   A    
C40   O37   A    
C23   O50   A    
O4    Zn6   S    
C1    C6    S    
C43   C85   S    
O15   Zn2   S    
C14   C20   S    
C47   O44   A    
O3    Zn5   S    
O5    Zn1   S    
C13   H47   S    
O12   Zn4   S    
C44   O26   A    
C96   H33   S    
O13   Zn15  S    
O49   Zn4   S    
O32   Zn11  S    
C81   C99   A    
C35   O32   A    
O8    Zn11  S    
C66   C84   A    
C77   C95   A    
C45   C82   S    
C48   C84   S    
C48   O46   A    
C74   C91   A    
C89   C95   A    
C15   C19   S    
C64   C67   A    
C22   C65   S    
C41   O42   A    
C10   H14   S    
C104  H42   S    
C76   C93   A    
C46   C81   S    
C13   H17   S    
C9    H34   S    
C62   C79   A    
C8    H23   S    
C23   C51   S    
C91   H29   S    
C19   C64   S    
C15   C67   S    
C46   O28   A    
C101  H39   S    
C34   C76   S    
O16   Zn3   S    
O26   Zn8   S    
C34   O31   A    
C33   O35   A    
C91   C97   A    
C10   C55   S    
O38   Zn10  S    
C21   H25   S    
C11   C54   S    
C36   C74   S    
C75   C92   A    
O1    Zn1   S    
C12   C57   S    
C11   C94   S    
C37   O39   A    
O9    Zn12  S    
C43   O40   A    
C101  C104  A    
C22   H8    S    
C5    C39   S    
C35   O17   A    
O23   Zn14  S    
C20   H6    S    
C26   O2    A    
C27   O5    A    
C14   H48   S    
C2    C10   S    
O14   Zn16  S    
O43   Zn13  S    
C32   C78   S    
C103  H41   S    
C90   C93   A    
C24   C49   S    
O41   Zn15  S    
C37   C73   S    
C38   C71   S    
C43   O25   A    
C16   C22   S    
C19   H22   S    
C80   C98   A    
C63   C68   A    
C82   C100  A    
C79   C97   A    
O20   Zn3   S    
C92   H30   S    
C93   H31   S    
C69   C87   A    
C23   O45   A    
C37   O19   A    
C30   C72   S    
C2    C58   S    
C38   O20   A    
C29   O6    A    
C28   C52   T    
O12   Zn9   S    
C45   O47   A    
O34   Zn15  S    
O27   Zn5   S    
O51   Zn2   S    
C36   O18   A    
C89   H27   S    
C40   C75   S    
C33   C77   S    
O29   Zn7   S    
C9    C60   S    
O23   Zn12  S    
C57   C75   A    
C20   C63   S    
O34   Zn6   S    
C16   H20   S    
C42   O24   A    
O39   Zn9   S    
C48   O30   A    
C2    H10   S    
O25   Zn7   S    
C65   C82   A    
C39   C53   T    
C31   C83   S    
O36   Zn1   S    
O31   Zn10  S    
C38   O36   A    
C46   O48   A    
O52   Zn7   S    
C35   C79   S    
C95   H32   S    
C16   C70   S    
O24   Zn6   S    
C56   C62   A    
O23   Zn5   S    
C42   O43   A    
C9    C12   S    
C18   H4    S    
C64   C81   A    
O10   Zn13  S    
O45   Zn3   S    
C45   O27   A    
O48   Zn13  S    
C87   C104  A    
C55   C73   A    
O11   Zn14  S    
C57   C60   A    
C99   C102  A    
C55   C58   A    
C4    C50   T    
C14   C68   S    
C100  H38   S    
C30   O9    A    
O19   Zn4   S    
C44   C88   S    
C1    C49   T    
C97   H35   S    
C98   H36   S    
C85   C102  A    
C5    C61   T    
C8    C62   S    
