data_mof_unit_7081.cif
_audit_creation_date              2012-10-26T19:03:28-0400
_audit_creation_method            fapswitch 2.2
_symmetry_space_group_name_H-M    P1
_symmetry_Int_Tables_number       1
_space_group_crystal_system       triclinic
_cell_length_a                    10.713788
_cell_length_b                    12.978791
_cell_length_c                    11.825105
_cell_angle_alpha                 100.481438
_cell_angle_beta                  92.637048
_cell_angle_gamma                 92.070414
_cell_volume                      1613.49731037

loop_
_atom_site_label
_atom_site_type_symbol
_atom_type_description
_atom_site_fract_x
_atom_site_fract_y
_atom_site_fract_z
_atom_type_partial_charge
C1    C     C_R   0.503411 0.299295 0.477579 0.580136
C2    C     C_R   0.553767 0.121865 0.363084 0.251936
C3    C     C_R   0.474993 0.138786 0.556220 -0.134189
C4    C     C_R   0.262996 0.501017 0.501363 0.552129
C5    C     C_R   0.481579 0.031000 0.552422 0.026804
C6    C     C_R   0.521728 0.968778 0.450885 -0.040795
C7    C     C_R   0.528238 0.861286 0.442773 -0.135898
C8    C     C_R   0.459552 0.874740 0.636877 -0.131644
C9    C     C_R   0.449770 0.983102 0.646642 0.226653
C10   C     C_R   0.363090 0.424727 0.022540 -0.105584
C11   C     C_R   0.374385 0.427643 0.142382 0.414519
C12   C     C_R   0.071815 0.602887 0.531967 0.025970
C13   C     C_R   0.569595 0.525342 0.149915 0.125413
C14   C     C_R   0.548638 0.533153 0.030762 0.005920
C15   C     C_R   0.448658 0.476098 0.966392 -0.042845
C16   C     C_R   0.500984 0.700598 0.521943 0.503298
C17   C     C_R   0.437894 0.468666 0.845307 0.077256
C18   C     C_R   0.615408 0.582905 0.851868 0.065799
C19   C     C_R   0.629343 0.591654 0.971587 -0.145404
C20   C     C_R   0.737037 0.501261 0.499139 0.531240
C21   C     C_R   0.141964 0.699071 0.561657 -0.098992
C22   C     C_R   0.082180 0.793470 0.588500 -0.108994
C23   C     C_R   0.129491 0.506056 0.504505 0.031429
C24   C     C_R   0.952074 0.793647 0.586244 -0.105924
C25   C     C_R   0.881102 0.699457 0.557104 -0.117322
C26   C     C_R   0.939973 0.603093 0.529264 0.016344
C27   C     C_3   0.706800 0.540745 0.192778 -0.198862
C28   C     C_3   0.741904 0.649888 0.263097 -0.411891
C29   C     C_R   0.059012 0.411751 0.475938 -0.092212
C30   C     C_R   0.930212 0.412001 0.472398 -0.114442
C31   C     C_R   0.870934 0.506516 0.498310 0.004753
C32   C     C_R   0.497491 0.814072 0.535041 -0.040472
C33   C     C_R   0.510490 0.185136 0.463456 -0.031349
C34   C     C_R   0.556176 0.013971 0.357855 -0.092315
Cu1   Cu    Cu3+1 0.509250 0.507730 0.615930 0.957737
Cu2   Cu    Cu3+1 0.490750 0.492270 0.384070 1.087074
H1    H     H_    0.103985 0.337675 0.456662 0.142307
H2    H     H_    0.780321 0.702780 0.556252 0.111428
H3    H     H_    0.876536 0.338071 0.451323 0.165841
H4    H     H_    0.558062 0.814222 0.364096 0.129469
H5    H     H_    0.434973 0.836897 0.707635 0.159721
H6    H     H_    0.587269 0.964472 0.281337 0.174655
H7    H     H_    0.284761 0.938879 0.841898 0.340039
H8    H     H_    0.710333 0.111400 0.092487 0.392500
H9    H     H_    0.211605 0.238406 0.291988 0.354816
H10   H     H_    0.713163 0.711730 0.214952 0.133991
H11   H     H_    0.698142 0.663737 0.346500 0.180797
H12   H     H_    0.442273 0.188114 0.631663 0.208134
H13   H     H_    0.844860 0.658045 0.280601 0.154100
H14   H     H_    0.739544 0.473906 0.229480 0.216073
H15   H     H_    0.768982 0.530089 0.119461 0.123409
H16   H     H_    0.362415 0.421392 0.794861 0.138326
H17   H     H_    0.679200 0.626725 0.808072 0.135686
H18   H     H_    0.284272 0.383284 0.971164 0.170089
H19   H     H_    0.703708 0.644109 0.016121 0.108416
H20   H     H_    0.242974 0.701999 0.564628 0.117742
H21   H     H_    0.137031 0.866679 0.611257 0.139702
H22   H     H_    0.905934 0.867017 0.607136 0.138627
N1    N     N_R   0.523180 0.519350 0.790130 -0.232763
N2    N     N_R   0.476820 0.480650 0.209890 -0.231328
O1    O     O_R   0.506570 0.354460 0.582000 -0.516663
O2    O     O_2   0.281420 0.110142 0.752380 -0.298696
O3    O     O_3   0.366218 0.974973 0.870622 -0.468813
O4    O     O_2   0.503871 0.204963 0.175274 -0.191213
O5    O     O_2   0.700924 0.264063 0.285945 -0.308448
O6    O     O_3   0.686854 0.078858 0.158499 -0.519288
O7    O     O_2   0.145878 0.435621 0.225705 -0.295127
O8    O     O_2   0.189419 0.277823 0.091548 -0.260779
O9    O     O_3   0.278028 0.294562 0.298313 -0.490276
O10   O     O_R   0.490940 0.341410 0.386200 -0.372295
O11   O     O_R   0.327470 0.506530 0.597920 -0.526832
O12   O     O_R   0.311840 0.493480 0.402120 -0.418432
O13   O     O_R   0.509060 0.658590 0.613800 -0.518404
O14   O     O_R   0.493430 0.645540 0.418000 -0.523666
O15   O     O_R   0.688160 0.506520 0.597880 -0.506776
O16   O     O_R   0.672530 0.493470 0.402080 -0.511339
O17   O     O_2   0.497635 0.135006 0.831283 -0.224337
S1    S     S_3+6 0.397604 0.054681 0.777109 0.018589
S2    S     S_3+6 0.611514 0.171690 0.244172 0.048058
S3    S     S_3+6 0.244740 0.358636 0.190539 0.077686

loop_
_geom_bond_atom_site_label_1
_geom_bond_atom_site_label_2
_ccdc_geom_bond_type
O8    S3    D    
C28   H11   S    
O5    S2    D    
H8    O6    S    
Cu1   Cu2   S    
C34   H6    S    
C22   H21   S    
C1    C33   S    
C13   N2    A    
O17   S1    D    
O6    S2    S    
C12   C23   A    
C28   H10   S    
C16   O14   A    
C23   C29   A    
C10   C15   A    
C5    C6    A    
C3    C33   A    
C3    H12   S    
C20   O16   A    
Cu1   N1    S    
C18   C19   A    
C2    S2    S    
Cu2   O16   S    
C18   H17   S    
Cu2   O10   S    
C8    C9    A    
C7    H4    S    
C27   H14   S    
C2    C34   A    
Cu1   O11   S    
C26   C31   A    
C13   C14   A    
C17   H16   S    
C27   H15   S    
H7    O3    S    
C16   O13   A    
C8    C32   A    
C8    H5    S    
C11   S3    S    
C4    C23   S    
Cu2   N2    S    
C25   C26   A    
H9    O9    S    
C12   C21   A    
C6    C34   A    
C20   O15   A    
C12   C26   A    
C5    C9    A    
C29   C30   A    
C25   H2    S    
C28   H13   S    
Cu1   O15   S    
Cu1   O1    S    
C24   C25   A    
Cu2   O14   S    
C17   N1    A    
C2    C33   A    
O4    S2    D    
C22   C24   A    
C11   N2    A    
C4    O12   A    
C19   H19   S    
C15   C17   A    
Cu1   O13   S    
C7    C32   A    
C14   C19   A    
O2    S1    D    
O7    S3    D    
C3    C5    A    
C1    O1    A    
C21   H20   S    
C6    C7    A    
C16   C32   S    
C1    O10   A    
C30   C31   A    
C30   H3    S    
C9    S1    S    
C10   H18   S    
C10   C11   A    
C18   N1    A    
C24   H22   S    
C29   H1    S    
C27   C28   S    
C14   C15   A    
C13   C27   S    
O9    S3    S    
C21   C22   A    
O3    S1    S    
C4    O11   A    
Cu2   O12   S    
C20   C31   S    
