data_mof_unit_56123.cif
_audit_creation_date              2012-12-10T19:15:19-0500
_audit_creation_method            fapswitch 2.2
_symmetry_space_group_name_H-M    P1
_symmetry_Int_Tables_number       1
_space_group_crystal_system       triclinic
_cell_length_a                    10.698438
_cell_length_b                    9.671262
_cell_length_c                    23.372054
_cell_angle_alpha                 89.785738
_cell_angle_beta                  89.521523
_cell_angle_gamma                 90.667214
_cell_volume                      2417.97950397

loop_
_atom_site_label
_atom_site_type_symbol
_atom_type_description
_atom_site_fract_x
_atom_site_fract_y
_atom_site_fract_z
_atom_type_partial_charge
C1    C     C_R   0.258634 0.498741 0.505446 0.844471
C2    C     C_R   0.226777 0.525428 0.971524 0.095369
C3    C     C_R   0.230479 0.525293 0.031490 -0.193138
C4    C     C_R   0.342974 0.512066 0.060887 -0.043905
C5    C     C_R   0.455673 0.498717 0.030295 -0.023899
C6    C     C_R   0.569425 0.486077 0.060015 -0.001560
C7    C     C_R   0.682032 0.472433 0.029731 -0.167807
C8    C     C_R   0.682319 0.471535 0.970450 -0.187701
C9    C     C_R   0.345770 0.512891 0.120770 0.507888
C10   C     C_R   0.567620 0.487409 0.119681 0.496508
C11   C     C_R   0.499491 0.622760 0.237265 -0.099662
C12   C     C_R   0.494708 0.500308 0.389349 0.863524
C13   C     C_R   0.510685 0.622136 0.296345 -0.236535
C14   C     C_R   0.481942 0.501444 0.327463 -0.034382
C15   C     C_R   0.438904 0.382641 0.299155 -0.248244
C16   C     C_R   0.427464 0.383731 0.240041 -0.114595
C17   C     C_R   0.458716 0.503390 0.209220 0.331637
C18   C     C_R   0.458567 0.621470 0.761780 -0.129815
C19   C     C_R   0.470210 0.622989 0.702614 -0.242206
C20   C     C_R   0.488676 0.498816 0.672964 -0.039398
C21   C     C_R   0.494067 0.373184 0.703066 -0.236263
C22   C     C_R   0.482741 0.372125 0.762220 -0.107028
C23   C     C_R   0.743061 0.500335 0.496191 0.852530
C24   C     C_R   0.465515 0.496217 0.791428 0.344506
C25   C     C_3   0.067557 0.599464 0.550187 -0.062028
C26   C     C_3   0.067436 0.344348 0.513025 -0.042174
C27   C     C_3   0.924256 0.585047 0.548684 -0.419438
C28   C     C_3   0.924479 0.348701 0.508767 -0.457098
C29   C     C_3   0.087373 0.548699 0.444870 -0.484704
C30   C     C_3   0.122767 0.496175 0.505535 0.048473
C31   C     C_3   0.880655 0.498853 0.495740 0.093166
C32   C     C_3   0.942881 0.548754 0.436073 0.235287
C33   C     C_3   0.416675 0.080839 0.453862 -0.232574
C34   C     C_3   0.416856 0.917931 0.453760 -0.231121
C35   C     C_3   0.626576 0.082870 0.487681 -0.227744
C36   C     C_3   0.626401 0.920224 0.488490 -0.229881
C37   C     C_3   0.456867 0.080283 0.554481 -0.240631
C38   C     C_3   0.454742 0.917675 0.554246 -0.232375
C39   C     C_R   0.498281 0.499721 0.610799 0.868784
C40   C     C_R   0.570432 0.484843 0.880989 0.495611
C41   C     C_R   0.347941 0.507069 0.879321 0.483116
C42   C     C_R   0.341016 0.510659 0.939819 -0.047665
C43   C     C_R   0.455210 0.498058 0.970082 -0.046930
C44   C     C_R   0.570062 0.484608 0.940391 0.003555
H1    H     H_    0.464287 0.720884 0.680210 0.147515
H2    H     H_    0.507541 0.276091 0.681053 0.146818
H3    H     H_    0.488417 0.275423 0.785513 0.130301
H4    H     H_    0.090222 0.705911 0.535086 0.151621
H5    H     H_    0.101876 0.283380 0.475798 0.154230
H6    H     H_    0.889668 0.531578 0.588018 0.171140
H7    H     H_    0.879359 0.311716 0.549260 0.184829
H8    H     H_    0.881739 0.688616 0.550474 0.154586
H9    H     H_    0.891384 0.273536 0.476350 0.159336
H10   H     H_    0.130683 0.650852 0.435638 0.178359
H11   H     H_    0.136303 0.482509 0.412887 0.148182
H12   H     H_    0.447327 0.119542 0.411089 0.146360
H13   H     H_    0.447654 0.880811 0.410995 0.148364
H14   H     H_    0.144218 0.537157 0.055536 0.189874
H15   H     H_    0.319946 0.118542 0.460304 0.140805
H16   H     H_    0.319790 0.878086 0.460279 0.144640
H17   H     H_    0.662463 0.121331 0.445665 0.145471
H18   H     H_    0.662997 0.880688 0.447233 0.156579
H19   H     H_    0.519349 0.117111 0.589165 0.143964
H20   H     H_    0.514287 0.879532 0.589576 0.146785
H21   H     H_    0.362814 0.119794 0.564747 0.163339
H22   H     H_    0.358416 0.878625 0.563406 0.147691
H23   H     H_    0.692692 0.121869 0.520529 0.147586
H24   H     H_    0.689724 0.884108 0.522748 0.141874
H25   H     H_    0.770284 0.462411 0.051676 0.188193
H26   H     H_    0.770911 0.460251 0.948279 0.183096
H27   H     H_    0.524313 0.714926 0.213081 0.132636
H28   H     H_    0.543858 0.714857 0.317514 0.145106
H29   H     H_    0.414960 0.289089 0.322600 0.148315
H30   H     H_    0.396649 0.291268 0.218021 0.136084
H31   H     H_    0.445443 0.717363 0.784720 0.131070
N1    N     N_R   0.460939 0.495830 0.852212 -0.353113
N2    N     N_R   0.456989 0.501046 0.148464 -0.359155
N3    N     N_3   0.499750 0.138610 0.498760 -0.032530
N4    N     N_3   0.499750 0.861390 0.498760 -0.035032
O1    O     O_R   0.314910 0.616040 0.499990 -0.636500
O2    O     O_R   0.314910 0.383960 0.499990 -0.633679
O3    O     O_R   0.500080 0.616070 0.416130 -0.629521
O4    O     O_R   0.500080 0.383930 0.416130 -0.630754
O5    O     O_R   0.685320 0.616040 0.499970 -0.630192
O6    O     O_R   0.685320 0.383960 0.499970 -0.641557
O7    O     O_R   0.500150 0.616010 0.583820 -0.631957
O8    O     O_R   0.500150 0.383990 0.583820 -0.631122
O9    O     O_2   0.679446 0.474668 0.851803 -0.575030
O10   O     O_2   0.244336 0.513325 0.847145 -0.593849
O11   O     O_2   0.238786 0.526105 0.151183 -0.562061
O12   O     O_2   0.675252 0.474785 0.148928 -0.564926
Zn1   Zn    Zn3+2 0.500150 0.654960 0.499970 0.896215
Zn2   Zn    Zn3+2 0.500150 0.345040 0.499970 0.895129
C45   C     C_3   0.098934 0.544095 0.944773 -0.345756
C46   C     C_3   0.082402 0.692737 0.922915 -0.319561
C47   C     C_3   0.960214 0.707546 0.890348 -0.808226
H32   H     H_    0.958754 0.637101 0.852912 0.289548
H33   H     H_    0.879277 0.683159 0.918825 0.260982
H34   H     H_    0.951445 0.815545 0.874740 0.240228
H35   H     H_    0.081696 0.764558 0.959951 0.211049
H36   H     H_    0.161121 0.724530 0.894370 0.251563
H37   H     H_    0.081738 0.465752 0.911160 0.249080
H38   H     H_    0.023617 0.523282 0.976905 0.163808
C48   C     C_3   0.126695 0.593942 0.611059 -0.432806
C49   C     C_3   0.049119 0.664381 0.658278 -0.370159
C50   C     C_3   0.129278 0.699561 0.710125 -0.815500
H39   H     H_    0.204077 0.775044 0.698055 0.247783
H40   H     H_    0.070045 0.746053 0.744045 0.254568
H41   H     H_    0.172534 0.604513 0.727504 0.294302
H42   H     H_    0.005609 0.760082 0.641939 0.224928
H43   H     H_    0.972758 0.593488 0.672841 0.229455
H44   H     H_    0.145512 0.487803 0.625320 0.196575
H45   H     H_    0.219792 0.646171 0.608200 0.206819
C51   C     C_3   0.105345 0.264206 0.568052 -0.390870
C52   C     C_3   0.091105 0.107161 0.560208 -0.380802
C53   C     C_3   0.123857 0.029294 0.614860 -0.921116
H46   H     H_    0.210258 0.071521 0.634514 0.258090
H47   H     H_    0.045997 0.036106 0.646411 0.270569
H48   H     H_    0.140312 0.919508 0.604223 0.250574
H49   H     H_    0.993593 0.079910 0.548180 0.222546
H50   H     H_    0.153830 0.072493 0.525165 0.210363
H51   H     H_    0.203416 0.287059 0.579826 0.207784
H52   H     H_    0.046086 0.295143 0.605022 0.211585
C54   C     C_3   0.899136 0.694848 0.413457 -0.368708
C55   C     C_3   0.937766 0.828103 0.445799 -0.369159
C56   C     C_3   0.922683 0.956377 0.408081 -0.951488
H53   H     H_    0.991385 0.954917 0.372197 0.270839
H54   H     H_    0.827174 0.961187 0.390123 0.260464
H55   H     H_    0.940137 0.050831 0.433760 0.240976
H56   H     H_    0.878748 0.841324 0.484083 0.213350
H57   H     H_    0.035882 0.829200 0.459716 0.212742
H58   H     H_    0.935878 0.707355 0.369029 0.212245
H59   H     H_    0.796022 0.695119 0.409519 0.190618
C57   C     C_3   0.921687 0.443010 0.385166 -0.475652
C58   C     C_3   0.787631 0.413560 0.365975 -0.388457
C59   C     C_3   0.786499 0.325773 0.311741 -0.813316
H60   H     H_    0.830978 0.383373 0.275597 0.287860
H61   H     H_    0.837128 0.227603 0.318856 0.250775
H62   H     H_    0.688832 0.299868 0.300030 0.260360
H63   H     H_    0.737002 0.354169 0.399378 0.248232
H64   H     H_    0.739217 0.511516 0.356873 0.219173
H65   H     H_    0.973681 0.483096 0.346941 0.221326
H66   H     H_    0.966264 0.342238 0.394176 0.201379

loop_
_geom_bond_atom_site_label_1
_geom_bond_atom_site_label_2
_ccdc_geom_bond_type
C41   O10   S    
C49   H42   S    
C18   H31   S    
C52   H50   S    
C2    C45   S    
C41   C42   A    
C32   C54   S    
C46   C47   S    
C39   O8    A    
C51   C52   S    
C58   C59   S    
C36   H24   S    
C56   H53   S    
C54   H59   S    
C16   H30   S    
C37   C38   S    
C29   C32   S    
C5    C6    A    
C28   H7    S    
C11   H27   S    
C33   N3    S    
C29   H10   S    
N3    Zn2   S    
C1    O2    A    
C15   C16   A    
O4    Zn2   S    
C47   H34   S    
O3    Zn1   S    
C53   H46   S    
C54   H58   S    
C18   C19   A    
C57   H66   S    
O6    Zn2   S    
C55   H56   S    
C38   H22   S    
C16   C17   A    
C37   H21   S    
C34   H13   S    
C27   H6    S    
C33   H12   S    
C22   H3    S    
C5    C43   A    
C33   H15   S    
C21   C22   A    
C34   H16   S    
C59   H62   S    
C36   H18   S    
C48   C49   S    
C37   H19   S    
C10   N2    A    
C38   H20   S    
C58   H63   S    
C23   O5    A    
C58   H64   S    
C27   C31   S    
C7    C8    A    
C59   H61   S    
C26   H5    S    
C48   H44   S    
C20   C39   S    
C46   H35   S    
C24   N1    S    
C38   N4    S    
C29   H11   S    
C56   H55   S    
C40   N1    A    
C12   O4    A    
C47   H33   S    
C35   C36   S    
C23   C31   S    
O1    Zn1   S    
C43   C44   A    
C26   C51   S    
C7    H25   S    
C29   C30   S    
C34   N4    S    
C57   H65   S    
O2    Zn2   S    
C55   H57   S    
C31   C32   S    
C35   H23   S    
C47   H32   S    
C17   N2    S    
C33   C34   S    
C12   O3    A    
C35   H17   S    
C9    N2    A    
C25   H4    S    
N4    Zn1   S    
C57   C58   S    
C51   H52   S    
C15   H29   S    
C12   C14   S    
C10   O12   S    
C26   C30   S    
C23   O6    A    
C55   C56   S    
C18   C24   A    
C42   C43   A    
C3    C4    A    
C27   H8    S    
C21   H2    S    
C37   N3    S    
C25   C30   S    
C11   C17   A    
C56   H54   S    
C45   H38   S    
C8    H26   S    
C28   C31   S    
C8    C44   A    
C4    C5    A    
C36   N4    S    
C9    O11   S    
C6    C10   A    
C28   H9    S    
C19   H1    S    
C25   C48   S    
C6    C7    A    
C13   H28   S    
C25   C27   S    
C49   C50   S    
C35   N3    S    
C26   C28   S    
C53   H48   S    
C40   O9    S    
C19   C20   A    
C2    C3    A    
O7    Zn1   S    
C41   N1    A    
C32   C57   S    
C11   C13   A    
C52   C53   S    
C50   H40   S    
C2    C42   A    
O8    Zn2   S    
C1    C30   S    
C53   H47   S    
C22   C24   A    
C49   H43   S    
C45   C46   S    
C48   H45   S    
C51   H51   S    
C3    H14   S    
C40   C44   A    
C20   C21   A    
C45   H37   S    
C52   H49   S    
C50   H39   S    
C1    O1    A    
C14   C15   A    
C59   H60   S    
O5    Zn1   S    
C39   O7    A    
C4    C9    A    
C13   C14   A    
C46   H36   S    
C54   C55   S    
C50   H41   S    
