data_mof_unit_51378.cif
_audit_creation_date              2013-03-05T16:10:47-0500
_audit_creation_method            fapswitch 2.2
_symmetry_space_group_name_H-M    P1
_symmetry_Int_Tables_number       1
_space_group_crystal_system       triclinic
_cell_length_a                    22.443095
_cell_length_b                    7.094767
_cell_length_c                    19.412506
_cell_angle_alpha                 90.000304
_cell_angle_beta                  99.415149
_cell_angle_gamma                 90.000285
_cell_volume                      3049.38542089

loop_
_atom_site_label
_atom_site_type_symbol
_atom_site_description
_atom_site_fract_x
_atom_site_fract_y
_atom_site_fract_z
_atom_type_partial_charge
O1    O     O_R   0.443980 0.494320 0.557430 -0.585187
O2    O     O_R   0.556020 0.994320 0.442570 -0.585184
O3    O     O_R   0.441210 0.822520 0.414610 -0.600026
O4    O     O_R   0.558790 0.322520 0.585390 -0.600028
C1    C     C_R   0.426776 0.655509 0.388856 1.033558
C2    C     C_R   0.573225 0.155510 0.611144 1.033548
O5    O     O_R   0.436920 0.823940 0.555180 -0.592634
O6    O     O_R   0.563080 0.323940 0.444820 -0.592637
O7    O     O_R   0.551700 0.995760 0.584140 -0.580019
O8    O     O_R   0.448300 0.495760 0.415860 -0.580032
C3    C     C_R   0.421573 0.655386 0.574817 0.992592
C4    C     C_R   0.578426 0.155386 0.425182 0.992583
O9    O     O_3   0.537660 0.661290 0.509340 -0.274662
O10   O     O_3   0.462340 0.161290 0.490660 -0.274669
V1    V     V_3+5 0.493010 0.935560 0.498270 1.214211
V2    V     V_3+5 0.506990 0.435560 0.501730 1.214207
H1    H     H_    0.685761 0.838556 0.263949 0.127184
H2    H     H_    0.314220 0.338495 0.736014 0.127200
C5    C     C_R   0.756523 0.950329 0.213283 -0.125522
C6    C     C_R   0.243473 0.450268 0.786705 -0.125572
H3    H     H_    0.760917 0.820365 0.185234 0.172790
H4    H     H_    0.239073 0.320288 0.814741 0.172940
C7    C     C_R   0.793542 0.105363 0.204547 -0.026779
C8    C     C_R   0.206469 0.605319 0.795466 -0.026790
C9    C     C_R   0.786956 0.274215 0.242022 0.342596
C10   C     C_R   0.213062 0.774181 0.758007 0.342732
C11   C     C_R   0.743717 0.281399 0.287458 -0.259042
C12   C     C_R   0.256289 0.781384 0.712558 -0.259073
H5    H     H_    0.738151 0.409837 0.315947 0.176268
H6    H     H_    0.261856 0.909850 0.684084 0.176182
C13   C     C_R   0.706916 0.125864 0.295666 0.124347
C14   C     C_R   0.293080 0.625839 0.704328 0.124421
C15   C     C_R   0.713672 0.960384 0.258302 -0.145409
C16   C     C_R   0.286318 0.460333 0.741678 -0.145517
C17   C     C_1   0.838655 0.085823 0.158603 0.156591
C18   C     C_1   0.161353 0.585803 0.841407 0.156606
C19   C     C_1   0.661895 0.136966 0.341857 0.038909
C20   C     C_1   0.338100 0.636956 0.658137 0.038916
C21   C     C_1   0.624069 0.146022 0.380076 -0.255142
C22   C     C_1   0.375927 0.646019 0.619920 -0.255147
C23   C     C_1   0.876435 0.072464 0.120474 -0.131910
C24   C     C_1   0.123570 0.572461 0.879532 -0.131910
C25   C     C_R   0.633906 0.198160 0.802406 -0.100202
C26   C     C_R   0.366094 0.698087 0.197596 -0.100193
H7    H     H_    0.547550 0.231309 0.738087 0.137860
H8    H     H_    0.452453 0.731201 0.261912 0.137862
H9    H     H_    0.714217 0.184948 0.917336 0.164388
H10   H     H_    0.285782 0.684872 0.082668 0.164412
H11   H     H_    0.615858 0.230169 0.849571 0.126518
H12   H     H_    0.384143 0.730049 0.150431 0.126536
C27   C     C_R   0.615810 0.149966 0.677652 -0.278946
C28   C     C_R   0.384190 0.649961 0.322349 -0.278905
C29   C     C_R   0.911111 0.053287 0.760860 0.642998
C30   C     C_R   0.088887 0.553288 0.239140 0.643021
C31   C     C_R   0.875689 0.068361 0.694553 0.199261
C32   C     C_R   0.124308 0.568361 0.305448 0.199235
C33   C     C_R   0.813207 0.095624 0.689266 -0.244158
C34   C     C_R   0.186790 0.595640 0.310735 -0.244173
C35   C     C_R   0.784210 0.102454 0.748629 0.029017
C36   C     C_R   0.215787 0.602469 0.251373 0.029011
C37   C     C_R   0.821576 0.098566 0.816096 -0.160496
C38   C     C_R   0.178422 0.598568 0.183907 -0.160507
C39   C     C_R   0.719664 0.123215 0.743179 -0.057033
C40   C     C_R   0.280334 0.623225 0.256823 -0.057014
C41   C     C_R   0.695624 0.160584 0.805183 0.018238
C42   C     C_R   0.304375 0.660553 0.194820 0.018201
C43   C     C_R   0.732977 0.159839 0.870101 -0.315359
C44   C     C_R   0.267022 0.659796 0.129903 -0.315330
C45   C     C_R   0.794429 0.125084 0.876062 0.736637
C46   C     C_R   0.205569 0.625062 0.123941 0.736665
C47   C     C_R   0.677427 0.107640 0.679429 0.681533
C48   C     C_R   0.322571 0.607674 0.320573 0.681566
C49   C     C_R   0.594778 0.197597 0.739071 -0.272941
C50   C     C_R   0.405223 0.697534 0.260930 -0.272998
C51   C     C_R   0.885219 0.071744 0.821437 -0.443206
C52   C     C_R   0.114779 0.571747 0.178564 -0.443219
H13   H     H_    0.788861 0.121446 0.637847 0.258975
H14   H     H_    0.211135 0.621457 0.362154 0.259006
O11   O     O_R   0.051730 0.724670 0.084120 -0.587408
O12   O     O_R   0.948270 0.224670 0.915880 -0.587408
O13   O     O_R   0.063080 0.393540 0.944820 -0.585914
O14   O     O_R   0.936920 0.893540 0.055180 -0.585942
C53   C     C_R   0.077983 0.562118 0.924638 1.042891
C54   C     C_R   0.922018 0.062118 0.075363 1.042898
O15   O     O_R   0.058800 0.395030 0.085390 -0.595791
O16   O     O_R   0.941200 0.895030 0.914610 -0.595802
O17   O     O_R   0.943980 0.223310 0.057440 -0.561553
O18   O     O_R   0.056020 0.723310 0.942560 -0.561575
C55   C     C_R   0.073012 0.563585 0.111104 1.201971
C56   C     C_R   0.926987 0.063584 0.888896 1.201929
O19   O     O_3   0.962360 0.556290 0.990650 -0.285793
O20   O     O_3   0.037640 0.056290 0.009350 -0.285779
V3    V     V_3+5 0.006980 0.281990 0.001730 1.290552
V4    V     V_3+5 0.993020 0.781990 0.998270 1.290526
N1    N     N_R   0.902740 0.058579 0.632064 0.273205
O21   O     O_R   0.961058 0.066534 0.635241 -0.217645
O22   O     O_R   0.869066 0.043712 0.570989 -0.316836
N2    N     N_R   0.097257 0.558555 0.367938 0.273205
O23   O     O_R   0.038935 0.566206 0.364754 -0.217611
O24   O     O_R   0.130935 0.543928 0.429019 -0.316866
F1    F     F_    0.826917 0.123039 0.941421 -0.750200
F2    F     F_    0.173082 0.623004 0.058582 -0.750174
N3    N     N_R   0.823396 0.438461 0.235188 0.241817
O25   O     O_R   0.843255 0.473829 0.177193 -0.388603
O26   O     O_R   0.832655 0.562607 0.285169 -0.333436
N4    N     N_R   0.176639 0.938426 0.764880 0.241757
O27   O     O_R   0.156987 0.974078 0.822974 -0.388928
O28   O     O_R   0.167235 0.062354 0.714838 -0.333212
F3    F     F_    0.693503 0.042535 0.619426 -0.716318
F4    F     F_    0.306495 0.542621 0.380578 -0.716354
F5    F     F_    0.971624 0.023727 0.767139 -0.636703
F6    F     F_    0.028373 0.523736 0.232856 -0.636652

loop_
_geom_bond_atom_site_label_1
_geom_bond_atom_site_label_2
_geom_bond_distance
_ccdc_geom_bond_type
C25   C49   1.389095 A    
C42   C44   1.394734 A    
C39   C41   1.422190 A    
O14   V4    1.971589 S    
C11   H5    1.083710 S    
C18   C24   1.217021 T    
N1    O21   1.301393 A    
O1    C3    1.314599 A    
C54   O17   1.314527 A    
C32   N2    1.444288 S    
O2    C4    1.314598 A    
C10   N4    1.442074 S    
C2    O7    1.307624 A    
C37   C51   1.427842 A    
O5    C3    1.317942 A    
C8    C18   1.461240 S    
H1    C15   1.083492 S    
C36   C38   1.435251 A    
C5    H3    1.083497 S    
C8    C10   1.421679 A    
C28   C50   1.393726 A    
C33   C35   1.413933 A    
N4    O27   1.301184 A    
C37   C45   1.411999 A    
O17   V3    1.960186 S    
C38   C46   1.411967 A    
H7    C49   1.083696 S    
O16   V4    2.003839 S    
C51   C56   1.481672 S    
C26   C42   1.402886 A    
C6    C8    1.405321 A    
C41   C43   1.394744 A    
C13   C15   1.401235 A    
C1    C28   1.475859 S    
C46   F2    1.356084 S    
C14   C20   1.458623 S    
C2    C27   1.475859 S    
O6    C4    1.317939 A    
C52   C55   1.481670 S    
C6    C16   1.403135 A    
C29   F5    1.359826 S    
O5    V1    1.971626 S    
C53   O18   1.314528 A    
O6    V2    1.971624 S    
C38   C52   1.427828 A    
C29   C51   1.400447 A    
C27   C47   1.410005 A    
H9    C43   1.084483 S    
C10   C12   1.415013 A    
O13   C53   1.318601 A    
O18   V4    1.960191 S    
C29   C31   1.401950 A    
C48   F4    1.355578 S    
C35   C37   1.435257 A    
C11   C13   1.402946 A    
C33   H13   1.072382 S    
C12   C14   1.402964 A    
O11   V4    1.990112 S    
C31   N1    1.444268 S    
C5    C15   1.403121 A    
O15   C55   1.314874 A    
C9    N3    1.442157 S    
C23   C54   1.453245 S    
C13   C19   1.458622 S    
C43   C45   1.387129 A    
C14   C16   1.401264 A    
O4    V2    2.003638 S    
C5    C7    1.405322 A    
C28   C48   1.409986 A    
O19   V3    2.183100 S    
O13   V3    1.971590 S    
O15   V3    2.003826 S    
C25   C41   1.402911 A    
O20   V4    2.183089 S    
C30   F6    1.359817 S    
N3    O26   1.301691 A    
O1    V2    1.960363 S    
H10   C44   1.084447 S    
C26   C50   1.389081 A    
O2    V1    1.960361 S    
H2    C16   1.083499 S    
C30   C52   1.400433 A    
O4    C2    1.306103 A    
C39   C47   1.434740 A    
N2    O24   1.301856 A    
C31   C33   1.402599 A    
O16   C56   1.314875 A    
H8    C50   1.083671 S    
O3    V1    2.003627 S    
C26   H12   1.084049 S    
C35   C39   1.442645 A    
C25   H11   1.084105 S    
C24   C53   1.453249 S    
C27   C49   1.393817 A    
C6    H4    1.083490 S    
O3    C1    1.306103 A    
N1    O22   1.301851 A    
C30   C32   1.401964 A    
C45   F1    1.356091 S    
C9    C11   1.415049 A    
O14   C54   1.318601 A    
C36   C40   1.442652 A    
C4    C21   1.453935 S    
C12   H6    1.083718 S    
O7    V1    1.994426 S    
C1    O8    1.307621 A    
C19   C21   1.217100 T    
O8    V2    1.994434 S    
O19   V4    1.739592 S    
C20   C22   1.217101 T    
N4    O28   1.301635 A    
C47   F3    1.355656 S    
O20   V3    1.739600 S    
C32   C34   1.402606 A    
C40   C48   1.434727 A    
O12   C56   1.314088 A    
C3    C22   1.453939 S    
C17   C23   1.217022 T    
C7    C17   1.461241 S    
O11   C55   1.314086 A    
C34   H14   1.072373 S    
C7    C9    1.421751 A    
C44   C46   1.387106 A    
N2    O23   1.301365 A    
O9    V2    1.739868 S    
N3    O25   1.301255 A    
O10   V1    1.739877 S    
O12   V3    1.990103 S    
C34   C36   1.413927 A    
C40   C42   1.422138 A    
