data_mof_unit_15340.cif
_audit_creation_date              2012-12-10T17:18:58-0500
_audit_creation_method            fapswitch 2.2
_symmetry_space_group_name_H-M    P1
_symmetry_Int_Tables_number       1
_space_group_crystal_system       triclinic
_cell_length_a                    9.573948
_cell_length_b                    10.864091
_cell_length_c                    13.412446
_cell_angle_alpha                 92.561554
_cell_angle_beta                  72.245697
_cell_angle_gamma                 90.366402
_cell_volume                      1327.25005428

loop_
_atom_site_label
_atom_site_type_symbol
_atom_type_description
_atom_site_fract_x
_atom_site_fract_y
_atom_site_fract_z
_atom_type_partial_charge
C1    C     C_R   0.503159 0.736948 0.491740 0.800436
C2    C     C_R   0.372526 0.488092 0.815203 -0.110121
C3    C     C_R   0.273575 0.877641 0.432481 -0.154361
C4    C     C_R   0.421166 0.494156 0.700053 0.793596
C5    C     C_R   0.139694 0.935656 0.444751 -0.147157
C6    C     C_R   0.110487 0.050494 0.496476 -0.146382
C7    C     C_R   0.220425 0.112524 0.526145 -0.167045
C8    C     C_R   0.363089 0.060518 0.503281 0.099177
C9    C     C_R   0.380947 0.934681 0.471835 0.092517
C10   C     C_R   0.504275 0.870775 0.482509 -0.124242
C11   C     C_R   0.621853 0.937020 0.498754 -0.205971
C12   C     C_R   0.432181 0.480384 0.979679 0.098265
C13   C     C_R   0.616568 0.064206 0.507731 -0.216936
C14   C     C_R   0.488666 0.127744 0.510096 -0.113428
C15   C     C_R   0.913790 0.337436 0.359963 -0.168380
C16   C     C_R   0.495976 0.262399 0.505810 0.773046
C17   C     C_R   0.014311 0.257432 0.291535 -0.233900
C18   C     C_R   0.158024 0.256445 0.291852 -0.194596
C19   C     C_R   0.202009 0.335448 0.360592 -0.124744
C20   C     C_R   0.103386 0.419295 0.431447 0.201214
C21   C     C_R   0.953749 0.419779 0.431273 0.205182
C22   C     C_R   0.898755 0.576662 0.565204 -0.063602
C23   C     C_R   0.469015 0.451358 0.870633 0.067237
C24   C     C_R   0.046852 0.576697 0.565123 -0.073177
C25   C     C_R   0.578862 0.499582 0.299869 0.771506
C26   C     C_R   0.777378 0.379189 0.028252 -0.206318
C27   C     C_R   0.624314 0.485281 0.185367 -0.143073
C28   C     C_R   0.230157 0.528637 0.871459 -0.188598
C29   C     C_R   0.185672 0.537240 0.980257 -0.184288
C30   C     C_R   0.285525 0.514886 0.034155 -0.102889
C31   C     C_R   0.541204 0.467108 0.030792 0.033766
C32   C     C_R   0.672430 0.401112 0.977608 0.098699
C33   C     C_R   0.697460 0.357089 0.874424 -0.224327
C34   C     C_R   0.598352 0.382966 0.821191 -0.201406
C35   C     C_R   0.527376 0.521580 0.131019 0.342076
C36   C     C_R   0.751279 0.417682 0.132518 -0.262362
Cu1   Cu    Cu3+1 0.359340 0.500010 0.500010 0.925498
Cu2   Cu    Cu3+1 0.640660 0.499990 0.499990 0.926018
H1    H     H_    0.828199 0.391265 0.172532 0.168149
H2    H     H_    0.236231 0.193501 0.238778 0.157395
H3    H     H_    0.314342 0.325502 0.354817 0.200679
H4    H     H_    0.795485 0.304061 0.833960 0.143881
H5    H     H_    0.080072 0.639549 0.618399 0.142657
H6    H     H_    0.877004 0.327842 0.988429 0.149782
H7    H     H_    0.152901 0.554290 0.831321 0.157786
H8    H     H_    0.243842 0.519475 0.118664 0.195778
H9    H     H_    0.074046 0.564286 0.023069 0.156612
H10   H     H_    0.621737 0.343516 0.742416 0.171678
H11   H     H_    0.718704 0.890602 0.504591 0.161554
H12   H     H_    0.292368 0.789360 0.390081 0.167650
H13   H     H_    0.458197 0.667098 0.223202 0.318794
H14   H     H_    0.057059 0.889835 0.416869 0.139570
H15   H     H_    0.003519 0.092887 0.511725 0.136725
H16   H     H_    0.189016 0.198721 0.570212 0.166051
H17   H     H_    0.712683 0.112734 0.514567 0.162229
H18   H     H_    0.821046 0.639494 0.618587 0.144042
H19   H     H_    0.806540 0.330777 0.353199 0.203009
H20   H     H_    0.980076 0.195604 0.237948 0.155044
N1    N     N_R   0.852480 0.498790 0.499000 -0.200053
N2    N     N_R   0.148360 0.498710 0.498970 -0.202167
O1    O     O_R   0.381190 0.680360 0.500010 -0.586139
O2    O     O_R   0.618760 0.680340 0.500000 -0.575951
O3    O     O_R   0.323240 0.499990 0.650990 -0.580047
O4    O     O_R   0.560820 0.499960 0.650980 -0.578533
O5    O     O_R   0.381240 0.319660 0.500000 -0.613873
O6    O     O_R   0.618810 0.319640 0.499990 -0.604572
O7    O     O_R   0.439180 0.500040 0.349020 -0.581151
O8    O     O_R   0.676760 0.500010 0.349010 -0.593261
O9    O     O_3   0.426439 0.615578 0.171309 -0.754246

loop_
_geom_bond_atom_site_label_1
_geom_bond_atom_site_label_2
_ccdc_geom_bond_type
Cu1   O1    S    
C5    H14   S    
C26   C32   A    
Cu1   Cu2   S    
C3    C9    A    
C27   C36   A    
C20   N2    A    
C29   C30   A    
C15   H19   S    
C9    C10   A    
C4    O4    A    
C34   H10   S    
C2    C4    S    
C19   C20   A    
C25   O7    A    
C17   H20   S    
C24   N2    A    
C23   C34   A    
H13   O9    S    
C32   C33   A    
C2    C23   A    
C17   C18   A    
C3    C5    A    
C26   H6    S    
C7    C8    A    
C31   C32   A    
C13   C14   A    
C1    O2    A    
C11   C13   A    
C12   C23   A    
C6    C7    A    
C25   O8    A    
C27   C35   A    
C29   H9    S    
C11   H11   S    
C33   H4    S    
Cu1   O7    S    
C22   C24   A    
C4    O3    A    
C28   C29   A    
Cu1   O3    S    
C3    H12   S    
Cu2   O8    S    
C21   N1    A    
C31   C35   A    
C12   C31   A    
C5    C6    A    
C24   H5    S    
C14   C16   S    
C28   H7    S    
Cu1   N2    S    
C25   C27   S    
C10   C11   A    
C6    H15   S    
Cu2   N1    S    
Cu2   O6    S    
C15   C21   A    
C33   C34   A    
C20   C21   A    
C35   O9    S    
C18   C19   A    
C26   C36   A    
C22   N1    A    
C15   C17   A    
Cu2   O4    S    
C18   H2    S    
C2    C28   A    
C16   O6    A    
C22   H18   S    
C16   O5    A    
C8    C14   A    
C7    H16   S    
C12   C30   A    
C30   H8    S    
C36   H1    S    
C1    C10   S    
C19   H3    S    
Cu1   O5    S    
Cu2   O2    S    
C8    C9    A    
C13   H17   S    
C1    O1    A    
