data_mof_unit_31980.cif
_audit_creation_date              2012-12-10T16:53:54-0500
_audit_creation_method            fapswitch 2.2
_symmetry_space_group_name_H-M    P1
_symmetry_Int_Tables_number       1
_space_group_crystal_system       triclinic
_cell_length_a                    30.196951
_cell_length_b                    30.43177
_cell_length_c                    21.340048
_cell_angle_alpha                 90.301995
_cell_angle_beta                  132.860624
_cell_angle_gamma                 89.287039
_cell_volume                      14373.3557747

loop_
_atom_site_label
_atom_site_type_symbol
_atom_type_description
_atom_site_fract_x
_atom_site_fract_y
_atom_site_fract_z
_atom_type_partial_charge
C1    C     C_R   0.302149 0.809654 0.117604 0.897538
C2    C     C_R   0.490384 0.675875 0.024811 0.633282
C3    C     C_R   0.326440 0.198201 0.278088 0.169517
C4    C     C_R   0.161360 0.703760 0.650585 0.504858
C5    C     C_R   0.857245 0.713131 0.360880 0.495887
C6    C     C_R   0.661390 0.203744 0.650599 0.507689
C7    C     C_R   0.357156 0.213095 0.360816 0.500296
C8    C     C_R   0.113535 0.681087 0.578687 0.484663
C9    C     C_R   0.903301 0.687692 0.430594 0.486623
C10   C     C_R   0.613559 0.181076 0.578699 0.486280
C11   C     C_R   0.403228 0.187669 0.430543 0.491669
C12   C     C_R   0.091520 0.644120 0.587352 0.473262
C13   C     C_R   0.030503 0.175157 0.013592 0.633094
C14   C     C_R   0.918065 0.647283 0.417838 0.480063
C15   C     C_R   0.591530 0.144116 0.587357 0.473135
C16   C     C_R   0.418028 0.147272 0.417808 0.475867
C17   C     C_R   0.110799 0.633266 0.667590 -0.127942
C18   C     C_R   0.894233 0.635211 0.335417 -0.135767
C19   C     C_R   0.610806 0.133264 0.667593 -0.127475
C20   C     C_R   0.394212 0.135201 0.335396 -0.135328
C21   C     C_R   0.154003 0.660553 0.739082 -0.194098
C22   C     C_R   0.852436 0.664123 0.265700 -0.193662
C23   C     C_R   0.654014 0.160549 0.739087 -0.192658
C24   C     C_R   0.990357 0.175873 0.024758 0.633685
C25   C     C_R   0.352409 0.164108 0.265672 -0.193122
C26   C     C_R   0.163883 0.656101 0.814500 0.013485
C27   C     C_R   0.836505 0.656523 0.186245 0.013445
C28   C     C_R   0.663887 0.156100 0.814501 0.014467
C29   C     C_R   0.336507 0.156519 0.186237 0.014046
C30   C     C_R   0.137180 0.621424 0.820925 -0.145043
C31   C     C_R   0.855965 0.617944 0.174898 -0.147517
C32   C     C_R   0.637176 0.121428 0.820920 -0.144913
C33   C     C_R   0.355998 0.117952 0.174908 -0.147801
C34   C     C_R   0.100826 0.591600 0.754660 -0.178597
C35   C     C_R   0.465048 0.835309 0.976785 0.311219
C36   C     C_R   0.891469 0.587380 0.240476 -0.189852
C37   C     C_R   0.600818 0.091606 0.754653 -0.178490
C38   C     C_R   0.391499 0.087388 0.240487 -0.190265
C39   C     C_R   0.161125 0.745149 0.992380 0.905974
C40   C     C_R   0.833394 0.750970 0.995725 0.835452
C41   C     C_R   0.661119 0.245148 0.992373 0.905582
C42   C     C_R   0.333418 0.250947 0.995774 0.835715
C43   C     C_R   0.088319 0.596479 0.678824 0.044342
C44   C     C_R   0.910325 0.595442 0.320012 0.040476
C45   C     C_R   0.588318 0.096481 0.678821 0.044476
C46   C     C_R   0.505165 0.833591 0.963713 0.286149
C47   C     C_R   0.410326 0.095441 0.320007 0.040975
C48   C     C_R   0.941624 0.560056 0.382692 0.882475
C49   C     C_R   0.057840 0.560473 0.616834 0.885371
C50   C     C_R   0.441623 0.060054 0.382688 0.882608
C51   C     C_R   0.557840 0.060474 0.616833 0.885326
C52   C     C_R   0.442963 0.938230 0.384947 0.835939
C53   C     C_R   0.559454 0.939999 0.618814 0.848687
C54   C     C_R   0.942967 0.438227 0.384951 0.835808
C55   C     C_R   0.059466 0.440014 0.618843 0.848524
C56   C     C_R   0.589305 0.793518 0.991961 0.579912
C57   C     C_R   0.965113 0.335320 0.976931 0.311225
C58   C     C_R   0.399694 0.793314 0.986942 0.598451
C59   C     C_R   0.089322 0.293524 0.992000 0.580469
C60   C     C_R   0.899729 0.293323 0.987021 0.598390
C61   C     C_R   0.613497 0.753272 0.994727 -0.301163
C62   C     C_R   0.387438 0.754113 0.006870 -0.310430
C63   C     C_R   0.113492 0.253276 0.994720 -0.301382
C64   C     C_R   0.887445 0.254115 0.006890 -0.310111
C65   C     C_R   0.587914 0.713958 0.990175 0.677142
C66   C     C_R   0.421393 0.716070 0.026706 0.674301
C67   C     C_R   0.087894 0.213964 0.990138 0.677246
C68   C     C_R   0.005218 0.333606 0.963838 0.286138
C69   C     C_R   0.921386 0.216068 0.026696 0.674636
C70   C     C_R   0.546760 0.714437 0.999989 -0.223500
C71   C     C_R   0.463162 0.715637 0.018035 -0.222954
C72   C     C_R   0.046746 0.214441 0.999965 -0.223833
C73   C     C_R   0.963155 0.215637 0.018026 -0.223196
C74   C     C_R   0.521397 0.754986 0.995961 -0.136026
C75   C     C_R   0.477250 0.755443 0.000871 -0.131657
C76   C     C_R   0.021407 0.254991 0.995987 -0.135822
C77   C     C_R   0.977264 0.255447 0.000905 -0.131473
C78   C     C_R   0.253415 0.868933 0.189244 0.254987
C79   C     C_R   0.752706 0.879559 0.858519 0.301599
C80   C     C_R   0.753394 0.368976 0.189172 0.258168
C81   C     C_R   0.692785 0.809983 0.882911 0.822137
C82   C     C_R   0.252732 0.379772 0.858871 0.300581
C83   C     C_R   0.243670 0.893757 0.235470 0.317746
C84   C     C_R   0.777818 0.889091 0.823490 0.317560
C85   C     C_R   0.743660 0.393781 0.235429 0.321398
C86   C     C_R   0.277929 0.389414 0.823996 0.325630
C87   C     C_R   0.291188 0.897560 0.322728 -0.275160
C88   C     C_R   0.739350 0.892891 0.734952 -0.252841
C89   C     C_R   0.791177 0.397550 0.322700 -0.276002
C90   C     C_R   0.239546 0.393186 0.735460 -0.253030
C91   C     C_R   0.349037 0.886697 0.358845 0.405836
C92   C     C_R   0.802149 0.309655 0.117602 0.896585
C93   C     C_R   0.676448 0.893070 0.681724 0.343224
C94   C     C_R   0.849026 0.386692 0.358807 0.405591
C95   C     C_R   0.176630 0.393249 0.682094 0.341877
C96   C     C_R   0.360576 0.882373 0.304832 -0.100601
C97   C     C_R   0.651444 0.889100 0.719000 -0.115214
C98   C     C_R   0.860560 0.382387 0.304791 -0.101139
C99   C     C_R   0.151536 0.389209 0.719223 -0.115530
C100  C     C_R   0.314184 0.863881 0.223395 -0.103824
C101  C     C_R   0.689948 0.870408 0.801134 -0.075487
C102  C     C_R   0.814168 0.363908 0.223344 -0.104639
C103  C     C_R   0.192776 0.309987 0.882915 0.822057
C104  C     C_R   0.189992 0.370524 0.801351 -0.075945
C105  C     C_R   0.332938 0.844491 0.182741 -0.067679
C106  C     C_R   0.662092 0.845858 0.821716 -0.026826
C107  C     C_R   0.832940 0.344496 0.182729 -0.066835
C108  C     C_R   0.162081 0.345876 0.821749 -0.026448
C109  C     C_R   0.337178 0.752068 0.003401 0.950910
C110  C     C_R   0.663368 0.751776 0.997638 0.955080
C111  C     C_R   0.837179 0.252069 0.003407 0.949480
C112  C     C_R   0.163365 0.251779 0.997633 0.954658
C113  C     C_R   0.387985 0.856706 0.209563 -0.229049
C114  C     C_R   0.538617 0.794545 0.983558 -0.099296
C115  C     C_R   0.604682 0.858143 0.786474 -0.192982
C116  C     C_R   0.888015 0.356677 0.209605 -0.229058
C117  C     C_R   0.104619 0.358100 0.786379 -0.193131
C118  C     C_R   0.424694 0.887770 0.273444 0.316829
C119  C     C_R   0.576565 0.894287 0.731856 0.322970
C120  C     C_R   0.924746 0.387725 0.273517 0.316577
C121  C     C_R   0.076513 0.394263 0.731801 0.323113
C122  C     C_R   0.411861 0.900871 0.323796 -0.135156
C123  C     C_R   0.594252 0.906086 0.686857 -0.215772
C124  C     C_R   0.911871 0.400861 0.323805 -0.134779
C125  C     C_R   0.447764 0.795395 0.989609 -0.106828
C126  C     C_R   0.094277 0.406122 0.686926 -0.215746
C127  C     C_R   0.865159 0.757691 0.912952 0.405309
C128  C     C_R   0.115722 0.717450 0.050671 0.411608
C129  C     C_R   0.365301 0.257877 0.913210 0.402150
C130  C     C_R   0.615640 0.217299 0.050481 0.412400
C131  C     C_R   0.879314 0.750544 0.990596 -0.144574
C132  C     C_R   0.110541 0.741306 0.988805 -0.156122
C133  C     C_R   0.379373 0.250487 0.990725 -0.144904
C134  C     C_R   0.610554 0.241342 0.988853 -0.151602
C135  C     C_R   0.938659 0.741681 0.066149 -0.177179
C136  C     C_R   0.038644 0.294554 0.983622 -0.099055
C137  C     C_R   0.056879 0.764508 0.924398 -0.135811
C138  C     C_R   0.438658 0.241360 0.066194 -0.177146
C139  C     C_R   0.557038 0.264778 0.924790 -0.153650
C140  C     C_R   0.984896 0.737547 0.066311 0.006129
C141  C     C_R   0.008991 0.765540 0.921249 -0.000207
C142  C     C_R   0.484895 0.237239 0.066344 0.003307
C143  C     C_R   0.509245 0.265931 0.921831 0.004469
C144  C     C_R   0.972498 0.749882 0.991786 -0.014986
C145  C     C_R   0.018669 0.747767 0.990854 0.001903
C146  C     C_R   0.472605 0.249880 0.992030 -0.016433
C147  C     C_R   0.947803 0.295402 0.989698 -0.106660
C148  C     C_R   0.518783 0.247820 0.991114 0.012861
C149  C     C_R   0.913675 0.763479 0.917404 -0.062471
C150  C     C_R   0.073957 0.726747 0.058732 -0.041637
C151  C     C_R   0.413864 0.263715 0.917803 -0.053039
C152  C     C_R   0.573930 0.226539 0.058674 -0.044608
C153  C     C_R   0.043190 0.721840 0.138761 0.389608
C154  C     C_R   0.952517 0.785172 0.852346 0.394622
C155  C     C_R   0.543085 0.221266 0.138578 0.390200
C156  C     C_R   0.452967 0.285952 0.853378 0.298554
C157  C     C_R   0.193627 0.690231 0.881409 0.819155
C158  C     C_R   0.530534 0.675156 0.013652 0.632436
C159  C     C_R   0.806712 0.690355 0.118660 0.831808
C160  C     C_R   0.693629 0.190231 0.881409 0.818358
C161  C     C_R   0.306714 0.190354 0.118659 0.831468
C162  C     C_R   0.086376 0.715776 0.133257 -0.133035
C163  C     C_R   0.905643 0.783277 0.850943 -0.123034
C164  C     C_R   0.586253 0.215255 0.133019 -0.134399
C165  C     C_R   0.405983 0.283858 0.851708 -0.113323
C166  C     C_R   0.186227 0.690276 0.731710 0.163910
C167  C     C_R   0.826502 0.698234 0.278143 0.173552
C168  C     C_R   0.686247 0.190264 0.731722 0.163672
Cu1   Cu    Cu3+1 0.280870 0.719090 0.061820 1.179885
Cu2   Cu    Cu3+1 0.455560 0.999990 0.500010 1.206892
Cu3   Cu    Cu3+1 0.044440 0.499990 0.499990 1.230970
Cu4   Cu    Cu3+1 0.955560 0.499990 0.500010 1.206751
Cu5   Cu    Cu3+1 0.719130 0.719090 0.938180 1.130097
Cu6   Cu    Cu3+1 0.780870 0.219090 0.061820 1.179646
Cu7   Cu    Cu3+1 0.219130 0.219090 0.938180 1.130309
Cu8   Cu    Cu3+1 0.219120 0.780900 0.938230 1.176336
Cu9   Cu    Cu3+1 0.780880 0.780900 0.061770 1.190543
Cu10  Cu    Cu3+1 0.719120 0.280900 0.938230 1.188376
Cu11  Cu    Cu3+1 0.280880 0.280900 0.061770 1.192468
Cu12  Cu    Cu3+1 0.544440 0.999990 0.499990 1.230974
F1    F     F_    0.615898 0.831112 0.998374 -0.575002
F2    F     F_    0.929046 0.699831 0.510418 -0.538277
F3    F     F_    0.592523 0.192211 0.500877 -0.528749
F4    F     F_    0.428956 0.199807 0.510359 -0.525551
F5    F     F_    0.050614 0.620262 0.515900 -0.594637
F6    F     F_    0.955497 0.620824 0.486969 -0.597900
F7    F     F_    0.550611 0.120265 0.515899 -0.594534
F8    F     F_    0.455486 0.120826 0.486954 -0.597561
F9    F     F_    0.603775 0.675254 0.977551 -0.540950
F10   F     F_    0.411247 0.678711 0.049793 -0.531355
F11   F     F_    0.103734 0.175262 0.977475 -0.540548
F12   F     F_    0.361880 0.828109 0.960044 -0.565111
F13   F     F_    0.911228 0.178704 0.049758 -0.531254
F14   F     F_    0.555154 0.635911 0.019610 -0.509464
F15   F     F_    0.477068 0.637105 0.039764 -0.502643
F16   F     F_    0.055100 0.135911 0.019504 -0.508318
F17   F     F_    0.977021 0.137099 0.039672 -0.501967
F18   F     F_    0.115926 0.331117 0.998434 -0.574591
F19   F     F_    0.861943 0.328130 0.960183 -0.564943
F20   F     F_    0.188812 0.734936 0.642123 -0.502678
F21   F     F_    0.835991 0.748301 0.373483 -0.508150
F22   F     F_    0.688853 0.234912 0.642144 -0.501795
F23   F     F_    0.335868 0.248250 0.373397 -0.498404
F24   F     F_    0.092493 0.692224 0.500863 -0.529778
H1    H     H_    0.947111 0.735303 0.123309 0.214808
H2    H     H_    0.844314 0.611643 0.115169 0.172636
H3    H     H_    0.643812 0.117720 0.877331 0.184831
H4    H     H_    0.344370 0.111661 0.115193 0.172673
H5    H     H_    0.082481 0.564445 0.762931 0.182637
H6    H     H_    0.904192 0.557063 0.229016 0.155602
H7    H     H_    0.582464 0.064457 0.762920 0.182750
H8    H     H_    0.404243 0.057079 0.229039 0.155693
H9    H     H_    0.400651 0.843350 0.176345 0.187171
H10   H     H_    0.586906 0.844423 0.812284 0.200916
H11   H     H_    0.900699 0.343298 0.176422 0.187121
H12   H     H_    0.052561 0.780923 0.875730 0.230141
H13   H     H_    0.086793 0.344329 0.812083 0.200747
H14   H     H_    0.282934 0.907736 0.362793 0.235518
H15   H     H_    0.758378 0.896248 0.706798 0.244976
H16   H     H_    0.782926 0.407711 0.362774 0.235728
H17   H     H_    0.258644 0.396590 0.707414 0.245436
H18   H     H_    0.433395 0.968688 0.213298 0.330998
H19   H     H_    0.588637 0.986809 0.772542 0.315031
H20   H     H_    0.933656 0.468525 0.213279 0.331224
H21   H     H_    0.088518 0.486809 0.772581 0.315162
H22   H     H_    0.720170 0.703063 0.759469 0.388299
H23   H     H_    0.447045 0.234784 0.123250 0.214745
H24   H     H_    0.205788 0.623131 0.081791 0.389640
H25   H     H_    0.220204 0.203464 0.758826 0.388365
H26   H     H_    0.705312 0.122991 0.080502 0.389483
H27   H     H_    0.024980 0.665325 0.269865 0.404381
H28   H     H_    0.945824 0.792711 0.675757 0.410226
H29   H     H_    0.524328 0.164257 0.268679 0.403959
H30   H     H_    0.486914 0.371318 0.844049 0.377686
H31   H     H_    0.291127 0.636907 0.890959 0.383082
H32   H     H_    0.716716 0.643990 0.134861 0.390581
H33   H     H_    0.791131 0.136893 0.890979 0.383132
H34   H     H_    0.552703 0.281201 0.876117 0.236789
H35   H     H_    0.216691 0.143942 0.134749 0.390686
H36   H     H_    0.477152 0.954314 0.017641 0.397380
H37   H     H_    0.404596 0.881395 0.798874 0.369679
H38   H     H_    0.977511 0.454267 0.018447 0.397382
H39   H     H_    0.904630 0.381434 0.799135 0.369716
H40   H     H_    0.164325 0.882840 0.007787 0.375333
H41   H     H_    0.763518 0.916883 0.032127 0.394768
H42   H     H_    0.663832 0.382799 0.007300 0.373255
H43   H     H_    0.263205 0.416797 0.032319 0.395128
H44   H     H_    0.096592 0.899802 0.170444 0.398226
H45   H     H_    0.130796 0.703762 0.188845 0.237993
H46   H     H_    0.937668 0.860852 0.996080 0.382791
H47   H     H_    0.596536 0.399838 0.170260 0.396588
H48   H     H_    0.437744 0.361135 0.996533 0.379403
H49   H     H_    0.492184 0.846149 0.559199 0.368194
H50   H     H_    0.567278 0.837676 0.532144 0.372787
H51   H     H_    0.992232 0.346176 0.559110 0.368096
H52   H     H_    0.067698 0.337664 0.532820 0.372530
H53   H     H_    0.863919 0.799985 0.799876 0.247559
H54   H     H_    0.630591 0.203033 0.188442 0.238378
H55   H     H_    0.364327 0.300707 0.800823 0.247646
H56   H     H_    0.143822 0.617714 0.877340 0.184800
O1    O     O_R   0.321150 0.768980 0.142380 -0.569289
O2    O     O_R   0.507560 0.954900 0.590180 -0.492604
O3    O     O_2   0.552336 0.906809 0.960025 -0.078177
O4    O     O_2   0.507338 0.854289 0.843561 -0.243753
O5    O     O_3   0.435551 0.903196 0.840388 -0.407471
O6    O     O_2   0.882781 0.400728 0.909340 -0.174327
O7    O     O_2   0.945786 0.384864 0.061558 -0.186983
O8    O     O_3   0.994297 0.426527 0.016988 -0.428083
O9    O     O_2   0.052401 0.406819 0.960156 -0.077701
O10   O     O_2   0.007332 0.354318 0.843640 -0.243742
O11   O     O_3   0.935609 0.403238 0.840588 -0.407189
O12   O     O_2   0.219941 0.790836 0.135051 -0.313073
O13   O     O_R   0.992440 0.454900 0.409820 -0.489051
O14   O     O_2   0.138772 0.838173 0.093207 -0.204562
O15   O     O_3   0.175616 0.851329 0.015294 -0.503273
O16   O     O_2   0.835721 0.865721 0.028954 -0.214382
O17   O     O_2   0.821084 0.941309 0.979569 -0.191611
O18   O     O_3   0.739080 0.908822 0.971497 -0.501429
O19   O     O_2   0.719859 0.290892 0.134931 -0.312141
O20   O     O_2   0.638711 0.338268 0.093048 -0.214342
O21   O     O_3   0.675605 0.351381 0.015195 -0.504345
O22   O     O_2   0.335646 0.365876 0.029287 -0.213679
O23   O     O_2   0.320862 0.441518 0.980042 -0.191261
O24   O     O_R   0.007560 0.454900 0.590180 -0.492632
O25   O     O_3   0.238842 0.408785 0.971685 -0.501132
O26   O     O_2   0.186242 0.960892 0.236640 -0.225242
O27   O     O_2   0.136733 0.928931 0.097124 -0.215013
O28   O     O_3   0.136123 0.885011 0.201348 -0.440251
O29   O     O_2   0.871447 0.883623 0.833731 -0.265422
O30   O     O_2   0.874903 0.940895 0.917221 -0.152454
O31   O     O_3   0.895553 0.860191 0.971173 -0.496701
O32   O     O_2   0.686270 0.460922 0.236666 -0.224463
O33   O     O_2   0.636757 0.429012 0.097112 -0.227597
O34   O     O_3   0.636086 0.385059 0.201248 -0.440662
O35   O     O_R   0.417370 0.954920 0.409860 -0.596355
O36   O     O_2   0.371718 0.384326 0.834532 -0.292973
O37   O     O_2   0.374945 0.441306 0.918224 -0.155511
O38   O     O_3   0.395638 0.360488 0.971662 -0.495744
O39   O     O_2   0.404598 0.909207 0.517235 -0.217426
O40   O     O_2   0.378620 0.832029 0.478682 -0.217963
O41   O     O_3   0.469733 0.861042 0.503453 -0.541330
O42   O     O_2   0.636411 0.925377 0.535171 -0.185519
O43   O     O_2   0.666614 0.848173 0.565073 -0.198479
O44   O     O_3   0.564361 0.869170 0.518098 -0.485768
O45   O     O_2   0.904612 0.409175 0.517223 -0.217328
O46   O     O_R   0.582630 0.954920 0.590140 -0.557707
O47   O     O_2   0.878690 0.331990 0.478658 -0.217941
O48   O     O_3   0.969753 0.361075 0.503363 -0.541288
O49   O     O_2   0.136650 0.425386 0.535464 -0.185221
O50   O     O_2   0.167076 0.348226 0.565792 -0.196991
O51   O     O_3   0.064696 0.369124 0.518514 -0.485467
O52   O     O_R   0.917370 0.454920 0.409860 -0.596216
O53   O     O_R   0.082630 0.454920 0.590140 -0.557674
O54   O     O_R   0.269000 0.821180 0.038020 -0.549863
O55   O     O_R   0.731000 0.821180 0.961980 -0.525049
O56   O     O_R   0.769000 0.321180 0.038020 -0.549315
O57   O     O_R   0.678850 0.768980 0.857620 -0.577017
O58   O     O_R   0.231000 0.321180 0.961980 -0.525027
O59   O     O_R   0.340930 0.723880 0.052190 -0.528723
O60   O     O_R   0.659070 0.723880 0.947810 -0.543625
O61   O     O_R   0.840930 0.223880 0.052190 -0.529069
O62   O     O_R   0.159070 0.223880 0.947810 -0.543589
O63   O     O_R   0.288780 0.776070 0.947820 -0.503492
O64   O     O_R   0.711220 0.776070 0.052180 -0.506531
O65   O     O_R   0.788780 0.276070 0.947820 -0.503477
O66   O     O_R   0.211220 0.276070 0.052180 -0.506234
O67   O     O_R   0.230990 0.678810 0.962030 -0.568355
O68   O     O_R   0.821150 0.268980 0.142380 -0.569838
O69   O     O_R   0.769010 0.678810 0.037970 -0.572328
O70   O     O_R   0.730990 0.178810 0.962030 -0.569255
O71   O     O_R   0.269010 0.178810 0.037970 -0.572455
O72   O     O_R   0.178840 0.731000 0.857670 -0.584861
O73   O     O_R   0.821160 0.731000 0.142330 -0.575358
O74   O     O_R   0.678840 0.231000 0.857670 -0.580755
O75   O     O_R   0.321160 0.231000 0.142330 -0.574846
O76   O     O_R   0.211210 0.723910 0.052230 -0.503201
O77   O     O_R   0.788790 0.723910 0.947770 -0.536641
O78   O     O_R   0.711210 0.223910 0.052230 -0.504231
O79   O     O_R   0.178850 0.268980 0.857620 -0.577120
O80   O     O_R   0.288790 0.223910 0.947770 -0.536572
O81   O     O_R   0.159060 0.776110 0.947860 -0.545126
O82   O     O_R   0.840940 0.776110 0.052140 -0.546836
O83   O     O_R   0.659060 0.276110 0.947860 -0.540546
O84   O     O_R   0.340940 0.276110 0.052140 -0.546746
O85   O     O_R   0.992470 0.545080 0.409840 -0.529647
O86   O     O_R   0.007530 0.545080 0.590160 -0.521547
O87   O     O_R   0.492470 0.045080 0.409840 -0.529705
O88   O     O_R   0.507530 0.045080 0.590160 -0.521394
O89   O     O_2   0.543426 0.899128 0.370846 -0.111327
O90   O     O_R   0.917390 0.545090 0.409880 -0.561243
O91   O     O_2   0.483583 0.889423 0.219041 -0.209800
O92   O     O_3   0.475293 0.964211 0.268824 -0.486456
O93   O     O_2   0.471399 0.918164 0.685103 -0.135554
O94   O     O_2   0.562826 0.924244 0.835957 -0.158698
O95   O     O_3   0.544471 0.982788 0.734134 -0.502319
O96   O     O_2   0.043520 0.399023 0.371193 -0.110757
O97   O     O_2   0.983874 0.389184 0.219471 -0.209403
O98   O     O_3   0.975497 0.464064 0.268924 -0.486306
O99   O     O_2   0.971342 0.418080 0.685087 -0.135494
O100  O     O_2   0.062786 0.424186 0.835925 -0.158576
O101  O     O_R   0.082610 0.545090 0.590120 -0.563136
O102  O     O_3   0.044351 0.482746 0.734068 -0.502178
O103  O     O_2   0.749503 0.785997 0.806042 -0.355851
O104  O     O_2   0.781924 0.756266 0.735958 -0.224813
O105  O     O_3   0.764533 0.701788 0.808188 -0.473942
O106  O     O_2   0.226464 0.686571 0.186675 -0.219281
O107  O     O_2   0.141459 0.638746 0.129335 -0.234034
O108  O     O_3   0.172925 0.645043 0.043854 -0.533977
O109  O     O_2   0.249729 0.286371 0.806302 -0.355897
O110  O     O_2   0.282280 0.256794 0.736285 -0.224725
O111  O     O_3   0.264510 0.202172 0.807912 -0.474083
O112  O     O_R   0.417390 0.045090 0.409880 -0.561176
O113  O     O_2   0.726212 0.186020 0.186151 -0.219732
O114  O     O_2   0.640956 0.138309 0.128091 -0.234240
O115  O     O_3   0.672548 0.145004 0.042819 -0.534859
O116  O     O_2   0.127139 0.690635 0.300731 -0.187112
O117  O     O_2   0.056490 0.747313 0.270923 -0.223630
O118  O     O_3   0.016407 0.668079 0.216233 -0.523308
O119  O     O_2   0.873992 0.828373 0.701012 -0.183937
O120  O     O_2   0.980481 0.849310 0.799450 -0.228337
O121  O     O_3   0.949718 0.775240 0.718360 -0.495503
O122  O     O_2   0.626780 0.189393 0.300062 -0.187290
O123  O     O_R   0.582610 0.045090 0.590120 -0.563207
O124  O     O_2   0.556533 0.246184 0.271096 -0.222978
O125  O     O_3   0.515866 0.167181 0.215153 -0.523397
O126  O     O_2   0.445795 0.281143 0.721452 -0.182639
O127  O     O_2   0.376369 0.333012 0.706061 -0.175023
O128  O     O_3   0.489583 0.353695 0.807531 -0.460944
O129  O     O_2   0.291404 0.671305 0.779104 -0.207353
O130  O     O_2   0.282537 0.741075 0.825565 -0.209050
O131  O     O_3   0.294448 0.668801 0.902786 -0.514921
O132  O     O_2   0.726936 0.687355 0.249584 -0.204872
O133  O     O_2   0.730574 0.751983 0.186935 -0.195846
O134  O     O_R   0.492440 0.954900 0.409820 -0.488786
O135  O     O_3   0.713877 0.674926 0.118096 -0.521340
O136  O     O_2   0.791432 0.171286 0.779143 -0.207299
O137  O     O_2   0.782560 0.241059 0.825593 -0.208744
O138  O     O_3   0.794453 0.168787 0.902804 -0.515228
O139  O     O_2   0.226854 0.187267 0.249456 -0.204042
O140  O     O_2   0.230487 0.251923 0.186857 -0.194595
O141  O     O_3   0.213846 0.174883 0.118001 -0.521332
O142  O     O_2   0.382647 0.900676 0.909035 -0.175007
O143  O     O_2   0.445638 0.884895 0.061278 -0.186786
O144  O     O_3   0.494136 0.926541 0.016678 -0.428418
S1    S     S_3+6 0.483669 0.909419 0.283564 0.108246
S2    S     S_3+6 0.938031 0.811475 0.765783 0.085881
S3    S     S_3+6 0.562830 0.206459 0.235380 0.079552
S4    S     S_3+6 0.439031 0.313424 0.768088 0.107129
S5    S     S_3+6 0.265491 0.693571 0.811384 0.072750
S6    S     S_3+6 0.747570 0.704206 0.206977 0.079015
S7    S     S_3+6 0.765511 0.193556 0.811408 0.072551
S8    S     S_3+6 0.247504 0.204148 0.206887 0.079784
S9    S     S_3+6 0.444996 0.887603 0.990459 0.146173
S10   S     S_3+6 0.501452 0.875199 0.901638 0.175890
S11   S     S_3+6 0.945123 0.387608 0.990721 0.146539
S12   S     S_3+6 0.537046 0.929751 0.746528 0.128494
S13   S     S_3+6 0.001495 0.375223 0.901771 0.176135
S14   S     S_3+6 0.194355 0.836384 0.106424 0.033577
S15   S     S_3+6 0.789724 0.898907 0.962900 0.090143
S16   S     S_3+6 0.694312 0.336450 0.106310 0.028885
S17   S     S_3+6 0.289595 0.399044 0.963239 0.090895
S18   S     S_3+6 0.174029 0.918816 0.190159 0.114436
S19   S     S_3+6 0.856595 0.894361 0.886551 0.097755
S20   S     S_3+6 0.674032 0.418862 0.190130 0.110528
S21   S     S_3+6 0.356721 0.394805 0.887255 0.087305
S22   S     S_3+6 0.401351 0.872149 0.467697 0.071007
S23   S     S_3+6 0.983831 0.409281 0.283809 0.108776
S24   S     S_3+6 0.635722 0.884000 0.572619 0.109071
S25   S     S_3+6 0.901373 0.372137 0.467659 0.071072
S26   S     S_3+6 0.136033 0.384047 0.573068 0.109842
S27   S     S_3+6 0.036979 0.429699 0.746481 0.128607
S28   S     S_3+6 0.788866 0.752098 0.812374 0.037447
S29   S     S_3+6 0.165714 0.671129 0.106318 0.059873
S30   S     S_3+6 0.289043 0.252472 0.812529 0.037557
S31   S     S_3+6 0.665404 0.170821 0.105556 0.059209
S32   S     S_3+6 0.063066 0.707438 0.235812 0.079424

loop_
_geom_bond_atom_site_label_1
_geom_bond_atom_site_label_2
_ccdc_geom_bond_type
Cu12  O134  S    
C21   C26   A    
C92   O56   A    
O22   S17   D    
C87   C91   A    
H46   O31   S    
C142  C146  A    
O89   S1    D    
H43   O25   S    
O4    S10   D    
O43   S24   D    
C90   C95   A    
C33   H4    S    
O3    S10   D    
C109  O63   A    
C95   C99   A    
C141  C154  A    
Cu4   O90   S    
C160  O74   A    
C74   C114  A    
C29   C33   A    
C154  S2    S    
C2    F15   S    
C89   C94   A    
Cu8   O81   S    
C37   H7    S    
Cu12  O87   S    
C7    F23   S    
C9    F2    S    
C91   C96   A    
C92   O68   A    
C52   C122  S    
H26   O115  S    
H36   O144  S    
C157  O67   A    
C70   C74   A    
H40   O15   S    
C117  H13   S    
H41   O18   S    
O138  S7    S    
O33   S20   D    
C77   C147  A    
C141  C145  A    
C51   O123  A    
H49   O41   S    
C84   S19   S    
O95   S12   S    
C16   F8    S    
O127  S4    D    
C130  C134  A    
O100  S27   D    
Cu12  O46   S    
C25   C29   A    
O7    S11   D    
C8    F24   S    
O26   S18   D    
C86   C90   A    
C30   C34   A    
O137  S7    D    
C155  S3    S    
O106  S29   D    
C132  C137  A    
Cu6   O78   S    
C17   C21   A    
C21   C166  A    
H32   O135  S    
C19   C23   A    
C17   C43   A    
O38   S21   S    
Cu7   O79   S    
C50   O87   A    
C55   C126  S    
C49   O86   A    
C16   C20   A    
Cu1   O1    S    
H22   O105  S    
C111  O65   A    
C129  C133  A    
C128  C150  A    
C95   S26   S    
C65   F9    S    
C159  O73   A    
C22   C27   A    
C57   C147  A    
C130  C152  A    
H37   O5    S    
C36   C44   A    
C37   C45   A    
C2    C71   A    
C18   C44   A    
H50   O44   S    
C110  O60   A    
O98   S23   S    
C80   S16   S    
C84   C88   A    
C119  S12   S    
O34   S20   S    
C53   C123  S    
C54   C124  S    
O9    S13   D    
C13   C72   A    
C119  C123  A    
C59   C63   A    
C33   C38   A    
O131  S5    S    
C88   H15   S    
C106  C115  A    
C60   C64   A    
O116  S32   D    
C151  C165  A    
H30   O128  S    
O18   S15   S    
O14   S14   D    
C112  O62   A    
O139  S8    D    
C12   F5    S    
Cu2   O112  S    
Cu1   Cu8   S    
O97   S23   D    
H35   O141  S    
C110  O64   A    
H25   O111  S    
C127  C131  A    
C20   C47   A    
O121  S2    S    
Cu1   O59   S    
O136  S7    D    
C61   C65   A    
C115  H10   S    
C56   F1    S    
C73   C77   A    
C31   C36   A    
C49   O101  A    
C59   F18   S    
C38   H8    S    
O6    S11   D    
C44   C48   S    
C1    C105  S    
C168  S7    S    
O17   S15   D    
O28   S18   S    
Cu5   O60   S    
O45   S25   D    
O105  S28   S    
O142  S9    D    
C98   C124  A    
O129  S5    D    
O5    S10   S    
C105  C113  A    
C34   H5    S    
C78   S14   S    
Cu2   O88   S    
Cu8   O63   S    
C5    F21   S    
C79   C84   A    
C42   O84   A    
C27   C159  S    
C65   C70   A    
C59   C136  A    
C28   C160  S    
H42   O21   S    
C67   C72   A    
C118  C122  A    
O47   S25   D    
C69   F13   S    
C85   S20   S    
C139  C143  A    
C13   F16   S    
O31   S19   S    
O102  S27   S    
O91   S1    D    
H38   O8    S    
Cu8   O72   S    
C145  C150  A    
Cu1   O67   S    
O114  S31   D    
C103  O58   A    
O44   S24   S    
C1    O54   A    
O96   S23   D    
C61   C110  S    
C40   O77   A    
O36   S21   D    
O49   S26   D    
C156  S4    S    
C47   C50   S    
C50   O112  A    
C160  O70   A    
C143  C148  A    
C6    C168  A    
C71   C75   A    
C130  S31   S    
C62   C66   A    
H29   O125  S    
C99   C126  A    
C90   H17   S    
C134  C139  A    
C64   C69   A    
O16   S15   D    
O37   S21   D    
C161  O71   A    
H28   O121  S    
C165  H55   S    
C80   C102  A    
C5    C9    A    
Cu3   O13   S    
C86   S21   S    
O122  S3    D    
O124  S3    D    
C8    C12   A    
C102  C107  A    
C144  C145  A    
C32   C37   A    
Cu11  O58   S    
C40   C131  S    
C26   C30   A    
C115  C119  A    
C57   C68   A    
O143  S9    D    
C93   C97   A    
Cu2   O35   S    
C101  C106  A    
C82   C104  A    
C18   C22   A    
H47   O34   S    
C108  C117  A    
O11   S13   S    
C11   F4    S    
C148  C152  A    
H31   O131  S    
C19   C45   A    
C163  H53   S    
Cu2   O2    S    
O50   S26   D    
O10   S13   D    
C97   C123  A    
C127  C149  A    
C62   C109  S    
Cu10  O83   S    
H21   O102  S    
C96   C100  A    
O42   S24   D    
O8    S11   S    
C138  H23   S    
C54   O52   A    
C107  C116  A    
C146  C151  A    
C4    F20   S    
C79   C101  A    
O48   S25   S    
Cu11  O84   S    
C58   C62   A    
C118  S1    S    
C83   C87   A    
C35   S9    S    
H33   O138  S    
C51   O88   A    
Cu9   O55   S    
Cu10  O56   S    
O41   S22   S    
Cu4   O52   S    
Cu7   O71   S    
Cu3   O85   S    
C15   C19   A    
C158  F14   S    
C109  O59   A    
Cu5   O57   S    
Cu9   O73   S    
C129  C151  A    
C162  H45   S    
C3    C7    A    
C48   O85   A    
Cu11  O75   S    
C24   C73   A    
O130  S5    D    
C20   C25   A    
C94   C98   A    
O21   S16   S    
O32   S20   D    
C87   H14   S    
C103  O79   A    
C127  S28   S    
C91   S22   S    
C88   C93   A    
H27   O118  S    
C78   C83   A    
C79   S15   S    
O110  S30   D    
C12   C17   A    
C69   C73   A    
Cu9   O64   S    
C116  C120  A    
Cu6   Cu10  S    
C4    C8    A    
C140  C153  A    
C135  H1    S    
Cu1   O76   S    
C99   C104  A    
O119  S2    D    
C133  C138  A    
C139  H34   S    
C10   F3    S    
O20   S16   D    
O115  S31   S    
C116  H11   S    
C3    S8    S    
Cu9   O82   S    
O39   S22   D    
C146  C148  A    
C135  C140  A    
C150  C162  A    
C34   C43   A    
C3    C25   A    
Cu5   O69   S    
C138  C142  A    
C85   C89   A    
C64   C111  S    
O135  S6    S    
O12   S14   D    
C82   C86   A    
C27   C31   A    
C75   C125  A    
O15   S14   S    
O140  S8    D    
C7    C11   A    
C9    C14   A    
C93   S24   S    
C80   C85   A    
C11   C16   A    
Cu7   O62   S    
C66   C71   A    
C28   C32   A    
C2    C158  A    
C48   O90   A    
O23   S17   D    
C22   C167  A    
Cu10  O74   S    
O94   S12   D    
C24   F17   S    
C137  H12   S    
C78   C100  A    
C55   O24   A    
O128  S4    S    
C30   H56   S    
O30   S19   D    
C104  C108  A    
O19   S16   D    
C40   O82   A    
C137  C141  A    
C161  O75   A    
C166  S5    S    
C140  C144  A    
C6    C10   A    
O125  S3    S    
O29   S19   D    
C96   C122  A    
C153  C162  A    
C57   S11   S    
C153  S32   S    
C98   C102  A    
Cu7   O80   S    
C89   H16   S    
C156  C165  A    
H24   O108  S    
C52   O35   A    
C41   O83   A    
C83   S18   S    
H39   O11   S    
C23   C168  A    
Cu6   O70   S    
Cu4   O86   S    
O107  S29   D    
C45   C51   S    
C56   C61   A    
C70   C158  A    
C35   C46   A    
O113  S31   D    
H18   O92   S    
Cu3   Cu4   S    
Cu8   O54   S    
C164  H54   S    
C14   C18   A    
C113  H9    S    
O117  S32   D    
C72   C76   A    
C76   C136  A    
O118  S32   S    
C100  C105  A    
C42   C133  S    
C6    F22   S    
C131  C135  A    
C10   C15   A    
C55   O53   A    
C14   F6    S    
C67   F11   S    
C39   C132  S    
C39   O81   A    
C167  S6    S    
C66   F10   S    
C26   C157  S    
C35   C125  A    
C58   F12   S    
O25   S17   S    
C63   C112  S    
C117  C121  A    
C60   F19   S    
O141  S8    S    
C81   O55   A    
O27   S18   D    
C120  S23   S    
C103  C108  S    
C149  C163  A    
C60   C147  A    
H20   O98   S    
C142  C155  A    
C129  S30   S    
C39   O76   A    
O109  S30   D    
C121  S27   S    
C111  O61   A    
C41   O78   A    
C128  C132  A    
O99   S27   D    
C41   C134  S    
Cu10  O65   S    
O40   S22   D    
H19   O95   S    
O103  S28   D    
C63   C67   A    
C159  O69   A    
C74   C75   A    
C46   C114  A    
C94   S25   S    
O93   S12   D    
C29   C161  S    
C154  C163  A    
C68   C136  A    
H48   O38   S    
C76   C77   A    
C31   H2    S    
Cu3   O101  S    
H44   O28   S    
C43   C49   S    
Cu7   Cu11  S    
C128  S29   S    
C15   F7    S    
C53   O2    A    
C13   C24   A    
Cu2   Cu12  S    
C82   S17   S    
O51   S26   S    
C144  C149  A    
Cu11  O66   S    
O132  S6    D    
C92   C107  S    
Cu6   O68   S    
Cu5   Cu9   S    
C68   S13   S    
C32   H3    S    
C38   C47   A    
C152  C164  A    
C1    O1    A    
C112  O66   A    
Cu12  O123  S    
C23   C28   A    
H51   O48   S    
C46   S10   S    
Cu6   O61   S    
Cu3   O53   S    
O120  S2    D    
C81   C106  S    
C52   O134  A    
C155  C164  A    
C53   O46   A    
C121  C126  A    
O126  S4    D    
C81   O57   A    
C143  C156  A    
H52   O51   S    
C54   O13   A    
O92   S1    S    
O104  S28   D    
C4    C166  A    
O133  S6    D    
O144  S9    S    
C5    C167  A    
C97   C101  A    
O111  S30   S    
C113  C118  A    
Cu4   O24   S    
C42   O80   A    
C58   C125  A    
C157  O72   A    
C56   C114  A    
Cu5   O77   S    
C120  C124  A    
C36   H6    S    
O108  S29   S    
