data_mof_unit_66392.cif
_audit_creation_date              2012-12-10T20:24:02-0500
_audit_creation_method            fapswitch 2.2
_symmetry_space_group_name_H-M    P1
_symmetry_Int_Tables_number       1
_space_group_crystal_system       triclinic
_cell_length_a                    16.802429
_cell_length_b                    18.444976
_cell_length_c                    19.316963
_cell_angle_alpha                 89.873436
_cell_angle_beta                  89.459394
_cell_angle_gamma                 94.175434
_cell_volume                      5970.53991133

loop_
_atom_site_label
_atom_site_type_symbol
_atom_type_description
_atom_site_fract_x
_atom_site_fract_y
_atom_site_fract_z
_atom_type_partial_charge
Br1   Br    Br    0.394610 0.681019 0.618449 -0.448213
Br2   Br    Br    0.597801 0.317930 0.622310 -0.453637
Br3   Br    Br    0.677112 0.926894 0.466065 -0.488133
Br4   Br    Br    0.328581 0.073455 0.508505 -0.453362
Br5   Br    Br    0.392541 0.359374 0.861822 -0.436040
Br6   Br    Br    0.427776 0.647777 0.138467 -0.464039
Br7   Br    Br    0.608938 0.629811 0.705653 -0.418202
Br8   Br    Br    0.575227 0.362441 0.288991 -0.486233
C1    C     C_R   0.499931 0.500121 0.365450 0.931659
C2    C     C_R   0.522823 0.442692 0.250729 0.241221
C3    C     C_R   0.496545 0.499532 0.709280 -0.269842
C4    C     C_R   0.495205 0.500530 0.289979 -0.286613
C5    C     C_R   0.414549 0.502847 0.963775 -0.108919
C6    C     C_R   0.558446 0.499424 0.035147 -0.157389
C7    C     C_R   0.414128 0.504399 0.035524 -0.113654
C8    C     C_R   0.558755 0.497008 0.963581 -0.153980
C9    C     C_R   0.486193 0.503215 0.071059 0.177791
C10   C     C_R   0.486812 0.498405 0.927964 0.176285
C11   C     C_R   0.460642 0.728101 0.548230 0.387574
C12   C     C_R   0.500471 0.499965 0.634247 0.979429
C13   C     C_R   0.536379 0.271867 0.549854 0.410482
C14   C     C_R   0.464376 0.804266 0.545232 -0.196786
C15   C     C_R   0.533162 0.195814 0.547350 -0.266531
C16   C     C_R   0.653478 0.509172 0.501163 0.926610
C17   C     C_R   0.346437 0.490827 0.499198 0.877590
C18   C     C_R   0.504583 0.841830 0.490443 0.157039
C19   C     C_R   0.498838 0.158500 0.490881 0.205982
C20   C     C_R   0.540373 0.800518 0.439392 -0.224458
C21   C     C_R   0.462788 0.198913 0.439831 -0.179202
C22   C     C_R   0.539146 0.724675 0.446109 -0.013105
C23   C     C_R   0.447483 0.441568 0.815823 0.214920
C24   C     C_R   0.462817 0.274852 0.446084 -0.009446
C25   C     C_R   0.575681 0.968518 0.477250 0.159013
C26   C     C_R   0.429445 0.032482 0.493103 0.163690
C27   C     C_R   0.573976 0.045383 0.478282 0.394101
C28   C     C_R   0.430949 0.956268 0.490505 0.382704
C29   C     C_R   0.500516 0.077643 0.486455 -0.178650
C30   C     C_R   0.504292 0.923261 0.485349 -0.181539
C31   C     C_R   0.739255 0.513732 0.510117 -0.090067
C32   C     C_R   0.260321 0.486293 0.492163 -0.111166
C33   C     C_R   0.775727 0.451775 0.531909 -0.301897
C34   C     C_R   0.460476 0.561752 0.183864 0.209412
C35   C     C_R   0.221680 0.550533 0.484362 -0.278935
C36   C     C_R   0.858258 0.453700 0.538776 0.483224
C37   C     C_R   0.139806 0.547857 0.476453 0.488369
C38   C     C_R   0.903446 0.519788 0.526197 0.238993
C39   C     C_R   0.095300 0.479952 0.481477 0.193250
C40   C     C_R   0.866531 0.582667 0.508984 -0.235925
C41   C     C_R   0.134106 0.415735 0.484902 -0.228318
C42   C     C_R   0.784567 0.579677 0.500237 -0.191023
C43   C     C_R   0.216578 0.418709 0.490203 -0.237585
C44   C     C_R   0.449616 0.443554 0.743647 0.403765
C45   C     C_R   0.488103 0.497842 0.853011 -0.105939
C46   C     C_R   0.462428 0.559693 0.256045 0.375786
C47   C     C_3   0.693102 0.097654 0.519971 0.142576
C48   C     C_3   0.779388 0.108148 0.495049 -0.726332
C49   C     C_3   0.333422 0.892796 0.430296 0.132607
C50   C     C_3   0.262436 0.837135 0.437341 -0.760289
C51   C     C_3   0.080901 0.619124 0.398815 0.065380
C52   C     C_3   0.055726 0.695595 0.386560 -0.761285
C53   C     C_3   0.884539 0.335435 0.517000 0.097174
C54   C     C_3   0.931774 0.273361 0.542113 -0.765851
C55   C     C_3   0.332852 0.409441 0.690491 0.128083
C56   C     C_R   0.486375 0.503019 0.146025 -0.101253
C57   C     C_3   0.287299 0.347649 0.652484 -0.707191
C58   C     C_3   0.357324 0.607452 0.310164 0.154477
C59   C     C_3   0.332393 0.672118 0.351786 -0.788900
C60   C     C_R   0.533133 0.553803 0.818807 -0.227408
C61   C     C_R   0.516822 0.444105 0.179407 -0.237863
C62   C     C_R   0.538616 0.554675 0.747325 0.265580
H1    H     H_    0.254733 0.603197 0.483906 0.199132
H2    H     H_    0.434042 0.305426 0.406920 0.166348
H3    H     H_    0.901907 0.633203 0.499419 0.183841
H4    H     H_    0.100168 0.363590 0.486211 0.168997
H5    H     H_    0.756927 0.628383 0.484837 0.187702
H6    H     H_    0.245746 0.368435 0.494161 0.182309
H7    H     H_    0.565285 0.596394 0.848113 0.200095
H8    H     H_    0.537939 0.399622 0.149396 0.202360
H9    H     H_    0.358942 0.504948 0.936151 0.160594
H10   H     H_    0.614265 0.498275 0.062635 0.158720
H11   H     H_    0.687581 0.050987 0.556933 0.159075
H12   H     H_    0.740076 0.402180 0.544373 0.202137
H13   H     H_    0.680203 0.147457 0.548528 0.145611
H14   H     H_    0.795953 0.059833 0.465562 0.289553
H15   H     H_    0.787419 0.156890 0.461119 0.245935
H16   H     H_    0.819571 0.115930 0.540159 0.201863
H17   H     H_    0.380566 0.867319 0.399767 0.128936
H18   H     H_    0.314336 0.940754 0.401392 0.172374
H19   H     H_    0.213244 0.860898 0.466301 0.279675
H20   H     H_    0.240841 0.820450 0.385194 0.196461
H21   H     H_    0.280296 0.788354 0.465449 0.260914
H22   H     H_    0.029387 0.579893 0.387016 0.157393
H23   H     H_    0.358059 0.506456 0.063357 0.156905
H24   H     H_    0.131037 0.609873 0.362399 0.123373
H25   H     H_    0.106379 0.735996 0.397164 0.255842
H26   H     H_    0.037229 0.701499 0.331922 0.211844
H27   H     H_    0.004797 0.706371 0.421157 0.257935
H28   H     H_    0.906616 0.351737 0.464238 0.144561
H29   H     H_    0.820888 0.314581 0.514106 0.149037
H30   H     H_    0.907777 0.253017 0.592872 0.265593
H31   H     H_    0.927068 0.228172 0.504154 0.204728
H32   H     H_    0.995566 0.292213 0.548031 0.256532
H33   H     H_    0.336960 0.458202 0.656178 0.120996
H34   H     H_    0.614785 0.493909 0.935887 0.161600
H35   H     H_    0.298457 0.421548 0.738178 0.160004
H36   H     H_    0.280133 0.298776 0.686278 0.275159
H37   H     H_    0.227317 0.364053 0.638173 0.202423
H38   H     H_    0.320303 0.334009 0.604729 0.257420
H39   H     H_    0.345641 0.557513 0.342322 0.107209
H40   H     H_    0.320130 0.602595 0.262753 0.153829
H41   H     H_    0.267725 0.665126 0.364253 0.194008
H42   H     H_    0.366289 0.676655 0.400840 0.258330
H43   H     H_    0.344306 0.723026 0.321434 0.266709
H44   H     H_    0.434373 0.833889 0.584843 0.209170
H45   H     H_    0.558317 0.165959 0.589108 0.158643
H46   H     H_    0.568701 0.826521 0.394340 0.196861
H47   H     H_    0.434664 0.171940 0.395708 0.171435
H48   H     H_    0.568344 0.693692 0.407166 0.175581
N1    N     N_2   0.986860 0.522935 0.524457 -0.098271
N2    N     N_2   0.011744 0.475204 0.486119 -0.182288
N3    N     N_R   0.499990 0.689440 0.499980 -0.126364
N4    N     N_R   0.500010 0.310560 0.500020 -0.121609
O1    O     O_R   0.500000 0.560840 0.398180 -0.593903
O2    O     O_3   0.359953 0.913726 0.496999 -0.563866
O3    O     O_3   0.103875 0.612443 0.468546 -0.591353
O4    O     O_3   0.895066 0.394144 0.563778 -0.582266
O5    O     O_3   0.409477 0.388129 0.706949 -0.542048
O6    O     O_3   0.439082 0.619027 0.292779 -0.560125
O7    O     O_R   0.500000 0.439160 0.601820 -0.548721
O8    O     O_R   0.500030 0.439210 0.398180 -0.597159
O9    O     O_R   0.499970 0.560790 0.601820 -0.559273
O10   O     O_R   0.616110 0.567600 0.499360 -0.618804
O11   O     O_R   0.383890 0.432400 0.500640 -0.640235
O12   O     O_R   0.616150 0.445970 0.499350 -0.597087
O13   O     O_R   0.383850 0.554030 0.500650 -0.609090
O14   O     O_3   0.642398 0.089049 0.461920 -0.563489
Zn1   Zn    Zn3+2 0.499980 0.581210 0.500000 1.014325
Zn2   Zn    Zn3+2 0.500020 0.418790 0.500000 1.016307

loop_
_geom_bond_atom_site_label_1
_geom_bond_atom_site_label_2
_ccdc_geom_bond_type
C47   C48   S    
C5    H9    S    
C19   C21   A    
C26   C29   A    
C53   H28   S    
C23   C44   A    
Br7   C62   S    
C55   C57   S    
C48   H15   S    
C3    C62   A    
C24   H2    S    
C1    O8    A    
C36   O4    S    
C5    C10   A    
C27   C29   A    
C21   C24   A    
C9    C56   S    
Br3   C25   S    
C16   O12   A    
C47   O14   S    
C16   C31   S    
O13   Zn1   S    
N3    Zn1   S    
C13   N4    A    
C45   C60   A    
C3    C44   A    
C20   H46   S    
C10   C45   S    
C1    O1    A    
C8    H34   S    
C32   C35   A    
O7    Zn2   S    
C37   O3    S    
C41   C43   A    
C53   O4    S    
C51   H24   S    
C6    H10   S    
C55   H35   S    
C17   O11   A    
C50   H21   S    
C12   O7    A    
C57   H38   S    
C54   H31   S    
C40   C42   A    
C58   C59   S    
C51   C52   S    
C6    C9    A    
C61   H8    S    
C53   H29   S    
C1    C4    S    
C44   O5    S    
C36   C38   A    
C48   H14   S    
C38   C40   A    
C37   C39   A    
Br4   C26   S    
C3    C12   S    
Br1   C11   S    
C24   N4    A    
C11   C14   A    
C43   H6    S    
N4    Zn2   S    
C39   C41   A    
C52   H27   S    
C18   C30   S    
C22   H48   S    
O10   Zn1   S    
C46   O6    S    
C58   H40   S    
C49   H17   S    
C52   H25   S    
C7    H23   S    
O9    Zn1   S    
C50   H20   S    
C16   O10   A    
C48   H16   S    
C22   N3    A    
C14   H44   S    
Br2   C13   S    
C56   C61   A    
C23   C45   A    
C35   C37   A    
C2    C4    A    
C54   H30   S    
C52   H26   S    
C55   H33   S    
C39   N2    S    
C15   C19   A    
C13   C15   A    
C14   C18   A    
C33   C36   A    
C6    C8    A    
C47   H11   S    
C12   O9    A    
C47   H13   S    
C28   C30   A    
O8    Zn2   S    
C34   C56   A    
C57   H36   S    
C59   H41   S    
C60   H7    S    
C7    C9    A    
C11   N3    A    
C35   H1    S    
C28   O2    S    
C40   H3    S    
Br8   C2    S    
C27   O14   S    
O12   Zn2   S    
N1    N2    D    
C51   O3    S    
C32   C43   A    
O1    Zn1   S    
C18   C20   A    
C25   C30   A    
C49   H18   S    
C5    C7    A    
C59   H43   S    
C17   C32   S    
C42   H5    S    
C34   C46   A    
C49   O2    S    
C49   C50   S    
C21   H47   S    
C19   C29   S    
C33   H12   S    
C20   C22   A    
C25   C27   A    
C58   O6    S    
C38   N1    S    
C26   C28   A    
C51   H22   S    
C58   H39   S    
C53   C54   S    
C17   O13   A    
C50   H19   S    
C4    C46   A    
C15   H45   S    
C2    C61   A    
C59   H42   S    
O11   Zn2   S    
C31   C42   A    
C31   C33   A    
C8    C10   A    
Br6   C34   S    
C60   C62   A    
C41   H4    S    
C54   H32   S    
C57   H37   S    
C55   O5    S    
Br5   C23   S    
