data_mof_unit_35326.cif
_audit_creation_date              2012-12-11T15:21:42-0500
_audit_creation_method            fapswitch 2.2
_symmetry_space_group_name_H-M    P1
_symmetry_Int_Tables_number       1
_space_group_crystal_system       triclinic
_cell_length_a                    19.156527
_cell_length_b                    7.146841
_cell_length_c                    17.688418
_cell_angle_alpha                 90.028147
_cell_angle_beta                  109.01377
_cell_angle_gamma                 90.041425
_cell_volume                      2289.56912145

loop_
_atom_site_label
_atom_site_type_symbol
_atom_type_description
_atom_site_fract_x
_atom_site_fract_y
_atom_site_fract_z
_atom_type_partial_charge
O1    O     O_R   0.562310 0.505770 0.439670 -0.548474
O2    O     O_R   0.437690 0.005770 0.560330 -0.543154
O3    O     O_R   0.411650 0.169150 0.405330 -0.545682
O4    O     O_R   0.588350 0.669150 0.594670 -0.540884
C1    C     C_R   0.384882 0.345408 0.382764 0.736802
C2    C     C_R   0.615082 0.846138 0.617627 0.719480
O5    O     O_R   0.560140 0.175610 0.430010 -0.504393
O6    O     O_R   0.439860 0.675610 0.569990 -0.505291
O7    O     O_R   0.587240 0.012100 0.585200 -0.513326
O8    O     O_R   0.412760 0.512100 0.414800 -0.547275
C3    C     C_R   0.581406 0.344398 0.415212 0.768051
C4    C     C_R   0.418572 0.844370 0.584761 0.748389
O9    O     O_3   0.508720 0.341420 0.550890 -0.358172
O10   O     O_3   0.491280 0.841420 0.449110 -0.383372
V1    V     V_3+5 0.498380 0.063930 0.490560 1.549844
V2    V     V_3+5 0.501620 0.563930 0.509440 1.538522
C5    C     C_R   0.177019 0.066038 0.862893 -0.183837
C6    C     C_R   0.822926 0.565863 0.137000 -0.200056
C7    C     C_R   0.129707 0.916292 0.864574 -0.082913
C8    C     C_R   0.870239 0.416263 0.135361 -0.071179
C9    C     C_R   0.130197 0.754673 0.819164 -0.210097
C10   C     C_R   0.869707 0.254773 0.180758 -0.166739
C11   C     C_R   0.176818 0.742216 0.772373 0.097386
C12   C     C_R   0.823066 0.242316 0.227525 0.094260
C13   C     C_R   0.224840 0.891672 0.771940 0.092121
C14   C     C_R   0.775064 0.391642 0.227942 0.091777
C15   C     C_R   0.225095 0.053886 0.817629 0.084414
C16   C     C_R   0.774831 0.553710 0.182244 0.087975
C17   C     C_R   0.176276 0.582676 0.725982 -0.211733
C18   C     C_R   0.823577 0.082906 0.273910 -0.206137
C19   C     C_R   0.223370 0.570181 0.680111 -0.122501
C20   C     C_R   0.776473 0.070411 0.319768 -0.128693
C21   C     C_R   0.272343 0.716680 0.679975 -0.018438
C22   C     C_R   0.727531 0.216794 0.319904 -0.015369
C23   C     C_R   0.272766 0.878750 0.725867 -0.022868
C24   C     C_R   0.727136 0.378736 0.274015 -0.021880
C25   C     C_R   0.320896 0.028138 0.725703 0.088457
C26   C     C_R   0.679034 0.528006 0.274185 0.086406
C27   C     C_R   0.321178 0.187995 0.771975 -0.132119
C28   C     C_R   0.678762 0.687698 0.227886 -0.132054
C29   C     C_R   0.273787 0.200647 0.817565 -0.182881
C30   C     C_R   0.726148 0.700323 0.182284 -0.178706
C31   C     C_R   0.320508 0.704440 0.634610 0.558645
C32   C     C_R   0.679374 0.204562 0.365275 0.550234
C33   C     C_R   0.368615 0.853928 0.633891 -0.193414
C34   C     C_R   0.631328 0.353973 0.366042 -0.185978
C35   C     C_R   0.367954 0.015311 0.679424 -0.248804
C36   C     C_R   0.632002 0.515222 0.320499 -0.231955
H1    H     H_    0.177512 0.190611 0.898079 0.140762
H2    H     H_    0.822453 0.690319 0.101804 0.149674
H3    H     H_    0.139594 0.466791 0.725428 0.139879
H4    H     H_    0.860243 0.967123 0.274471 0.142241
H5    H     H_    0.221610 0.444766 0.645125 0.189657
H6    H     H_    0.778209 0.945095 0.354752 0.186779
H7    H     H_    0.404748 0.130745 0.679524 0.184030
H8    H     H_    0.595237 0.630568 0.320417 0.179586
H9    H     H_    0.357877 0.303909 0.772645 0.146504
H10   H     H_    0.642078 0.803509 0.227208 0.149219
C37   C     C_3   0.753615 0.798617 0.836870 0.523950
C38   C     C_3   0.212282 0.198778 0.202034 0.532207
H11   H     H_    0.776142 0.658492 0.859522 0.111076
H12   H     H_    0.167587 0.115698 0.213492 0.104888
C39   C     C_3   0.681215 0.770197 0.765018 -0.328878
C40   C     C_3   0.283719 0.173085 0.274124 -0.335369
H13   H     H_    0.671076 0.617831 0.753479 0.154421
H14   H     H_    0.271875 0.082131 0.319578 0.100942
H15   H     H_    0.742574 0.630100 0.654881 0.219555
H16   H     H_    0.241175 0.370374 0.385940 0.229341
C41   C     C_3   0.826193 0.805781 0.740556 0.399365
C42   C     C_3   0.179331 0.484482 0.267329 0.390131
C43   C     C_3   0.778684 0.104310 0.780035 -0.427023
C44   C     C_3   0.252893 0.518755 0.174005 -0.439978
C45   C     C_3   0.812422 0.911713 0.811672 -0.160072
C46   C     C_3   0.188300 0.410091 0.188500 -0.154149
H17   H     H_    0.768749 0.186186 0.829091 0.248997
H18   H     H_    0.260377 0.470894 0.117285 0.241741
C47   C     C_3   0.686745 0.867570 0.688906 -0.137223
C48   C     C_3   0.313530 0.364576 0.311727 -0.133599
C49   C     C_3   0.753089 0.781279 0.669279 -0.482064
C50   C     C_3   0.252056 0.457679 0.338899 -0.459793
C51   C     C_3   0.705505 0.079616 0.710172 0.531575
C52   C     C_3   0.325913 0.490850 0.245107 0.520979
H19   H     H_    0.866279 0.886558 0.719922 0.081222
H20   H     H_    0.165364 0.636042 0.260710 0.096996
O11   O     O_R   0.087220 0.271820 0.085230 -0.516682
O12   O     O_R   0.912780 0.771820 0.914770 -0.515782
O13   O     O_R   0.939860 0.595540 0.069990 -0.544829
O14   O     O_R   0.060140 0.095540 0.930010 -0.542451
C53   C     C_R   0.919136 0.426577 0.085298 0.724040
C54   C     C_R   0.080852 0.926593 0.914688 0.728980
O15   O     O_R   0.088340 0.601930 0.094680 -0.547595
O16   O     O_R   0.911660 0.101930 0.905320 -0.542323
O17   O     O_R   0.062310 0.765410 0.939660 -0.539967
O18   O     O_R   0.937690 0.265410 0.060340 -0.540559
C55   C     C_R   0.116324 0.431487 0.117675 0.759046
C56   C     C_R   0.884120 0.931665 0.882156 0.754691
O19   O     O_3   0.991270 0.429630 0.949130 -0.367981
O20   O     O_3   0.008730 0.929630 0.050870 -0.379555
V3    V     V_3+5 0.001620 0.707150 0.009440 1.512663
V4    V     V_3+5 0.998380 0.207150 0.990560 1.522068
F1    F     F_    0.737802 0.889741 0.898600 -0.681229
F2    F     F_    0.223340 0.125781 0.134077 -0.683142
H21   H     H_    0.633244 0.826765 0.780011 0.217788
H22   H     H_    0.326289 0.100192 0.254648 0.226272
F3    F     F_    0.856874 0.631145 0.764754 -0.686345
F4    F     F_    0.121722 0.392583 0.282927 -0.687412
H23   H     H_    0.818280 0.186382 0.759079 0.138116
H24   H     H_    0.239361 0.670528 0.166813 0.134739
F5    F     F_    0.648869 0.164925 0.730258 -0.661151
F6    F     F_    0.379348 0.412908 0.217501 -0.663626
H25   H     H_    0.711076 0.153820 0.657091 0.069770
H26   H     H_    0.346325 0.630749 0.270450 0.069340
H27   H     H_    0.093676 0.638970 0.819573 0.141900
H28   H     H_    0.906213 0.139174 0.180362 0.137345
H29   H     H_    0.758854 0.849876 0.615152 0.143142
H30   H     H_    0.271160 0.596626 0.366310 0.139455
F7    F     F_    0.318983 0.549221 0.589596 -0.701453
F8    F     F_    0.680845 0.049405 0.410240 -0.707711
H31   H     H_    0.275056 0.325789 0.852602 0.144927
H32   H     H_    0.724889 0.825338 0.147228 0.153555

loop_
_geom_bond_atom_site_label_1
_geom_bond_atom_site_label_2
_ccdc_geom_bond_type
H16   C50   S    
C43   H17   S    
C39   H13   S    
C20   C22   A    
C49   H29   S    
O14   C54   A    
O1    C3    A    
O2    V1    S    
C44   H18   S    
O2    C4    A    
C2    O7    A    
C27   C29   A    
O17   V3    S    
O5    C3    A    
C6    H2    S    
C11   C17   A    
C23   C25   A    
C12   C14   A    
C43   H23   S    
C39   C47   S    
C48   C50   S    
C27   H9    S    
O16   C56   A    
C6    C8    A    
C38   H12   S    
C16   C30   A    
C53   O18   A    
C15   C29   A    
C5    C7    A    
C44   H24   S    
C9    H27   S    
C42   C46   S    
C19   C21   A    
C41   C45   S    
C32   F8    S    
C25   C35   A    
C42   H20   S    
C37   C45   S    
C5    C15   A    
C26   C36   A    
C33   C35   A    
O6    V2    S    
C38   F2    S    
C20   H6    S    
C14   C16   A    
C32   C34   A    
O13   V3    S    
C47   C49   S    
C34   C36   A    
C37   H11   S    
C28   H10   S    
C42   C50   S    
C37   F1    S    
C51   H25   S    
C6    C16   A    
C44   C46   S    
C42   F4    S    
C5    H1    S    
C43   C45   S    
C41   F3    S    
C4    C33   S    
C2    C47   S    
O5    V1    S    
C40   H22   S    
C29   H31   S    
C40   H14   S    
O4    V2    S    
C41   H19   S    
C18   C20   A    
C48   C52   S    
O18   V4    S    
O6    C4    A    
C22   C32   A    
O1    V2    S    
C19   H5    S    
O12   V3    S    
C31   C33   A    
O14   V4    S    
O12   C56   A    
C31   F7    S    
C39   H21   S    
C13   C23   A    
O20   V3    S    
C9    C11   A    
C10   C12   A    
C41   C49   S    
O4    C2    A    
C8    C10   A    
C24   C26   A    
C52   F6    S    
O19   V4    S    
O3    V1    S    
O16   V4    S    
C54   O17   A    
C35   H7    S    
C17   H3    S    
C14   C24   A    
C36   H8    S    
C18   H4    S    
C7    C9    A    
C40   C48   S    
C46   C55   S    
C50   H30   S    
C51   F5    S    
C28   C30   A    
O3    C1    A    
C13   C15   A    
C8    C53   S    
C37   C39   S    
C38   C40   S    
O13   C53   A    
O7    V1    S    
C1    O8    A    
C17   C19   A    
O11   V4    S    
O8    V2    S    
C26   C28   A    
O11   C55   A    
C30   H32   S    
C38   C46   S    
C21   C23   A    
C22   C24   A    
C11   C13   A    
C12   C18   A    
O15   C55   A    
C10   H28   S    
C25   C27   A    
C47   C51   S    
O9    V2    S    
C7    C54   S    
O10   V1    S    
C3    C34   S    
C45   C56   S    
O15   V3    S    
C1    C48   S    
C21   C31   A    
H15   C49   S    
C44   C52   S    
C52   H26   S    
C43   C51   S    
