data_mof_unit_5249.cif
_audit_creation_date              2012-10-26T20:12:18-0400
_audit_creation_method            fapswitch 2.2
_symmetry_space_group_name_H-M    P1
_symmetry_Int_Tables_number       1
_space_group_crystal_system       triclinic
_cell_length_a                    12.999775
_cell_length_b                    15.151901
_cell_length_c                    13.87244
_cell_angle_alpha                 89.634215
_cell_angle_beta                  96.205037
_cell_angle_gamma                 90.569639
_cell_volume                      2716.29131156

loop_
_atom_site_label
_atom_site_type_symbol
_atom_type_description
_atom_site_fract_x
_atom_site_fract_y
_atom_site_fract_z
_atom_type_partial_charge
C1    C     C_R   0.499481 0.329717 0.500389 0.557103
C2    C     C_R   0.504561 0.951402 0.498005 -0.007902
C3    C     C_R   0.580222 0.541197 0.116056 -0.176723
C4    C     C_R   0.443578 0.436138 0.886302 -0.174812
C5    C     C_R   0.577529 0.541799 0.217079 -0.027864
C6    C     C_R   0.442905 0.438773 0.784958 -0.015073
C7    C     C_R   0.424545 0.454884 0.202059 0.422708
C8    C     C_R   0.558799 0.560712 0.795969 0.425629
C9    C     C_R   0.421544 0.457554 0.100007 -0.126370
C10   C     C_R   0.555770 0.563255 0.897604 -0.128535
C11   C     C_R   0.500688 0.499511 0.054721 -0.013355
C12   C     C_R   0.499004 0.670134 0.499285 0.563887
C13   C     C_R   0.500110 0.499386 0.945249 -0.011736
C14   C     C_R   0.300424 0.499623 0.481906 0.555601
C15   C     C_R   0.699581 0.499439 0.518060 0.534921
C16   C     C_R   0.812339 0.497320 0.528375 -0.000063
C17   C     C_R   0.187652 0.499564 0.471347 0.004471
C18   C     C_R   0.024197 0.511776 0.370893 -0.143489
C19   C     C_R   0.975730 0.482781 0.628480 -0.139724
C20   C     C_R   0.131702 0.509653 0.379677 -0.125276
C21   C     C_R   0.868246 0.484976 0.619698 -0.146728
C22   C     C_R   0.135391 0.490270 0.554083 -0.127717
C23   C     C_R   0.500614 0.232855 0.501547 0.019952
C24   C     C_R   0.864605 0.506274 0.445583 -0.129060
C25   C     C_R   0.027980 0.492071 0.545878 0.048905
C26   C     C_R   0.971978 0.503419 0.453629 0.048019
C27   C     C_R   0.474736 0.092106 0.580042 -0.100567
C28   C     C_R   0.461212 0.906292 0.415498 -0.091820
C29   C     C_R   0.475168 0.184314 0.583177 0.261734
C30   C     C_R   0.460708 0.814279 0.413336 0.260898
C31   C     C_3   0.347453 0.319606 0.226041 0.006859
C32   C     C_3   0.241944 0.291389 0.175657 -0.275656
C33   C     C_3   0.237730 0.192258 0.156592 -0.484775
C34   C     C_R   0.499955 0.766751 0.497314 0.016770
C35   C     C_3   0.718216 0.629776 0.787512 -0.005357
C36   C     C_3   0.742345 0.721595 0.829993 -0.276817
C37   C     C_3   0.855598 0.729893 0.871419 -0.482493
C38   C     C_3   0.506702 0.212846 0.746991 0.005770
C39   C     C_3   0.442322 0.190594 0.830006 -0.263635
C40   C     C_3   0.509024 0.188294 0.927517 -0.493151
C41   C     C_3   0.479727 0.759323 0.262391 0.032769
C42   C     C_3   0.463595 0.829209 0.182105 -0.280337
C43   C     C_3   0.523200 0.806333 0.096703 -0.489847
C44   C     C_R   0.529226 0.188073 0.420387 -0.193037
C45   C     C_R   0.542263 0.812431 0.580030 -0.180195
C46   C     C_R   0.531553 0.096463 0.419468 -0.145147
C47   C     C_R   0.545421 0.904026 0.580125 -0.147675
C48   C     C_R   0.504278 0.048067 0.499299 -0.007174
Cu1   Cu    Cu3+1 0.500000 0.499990 0.596430 1.001717
Cu2   Cu    Cu3+1 0.500000 0.500010 0.403570 0.988905
H1    H     H_    0.821962 0.515537 0.374684 0.113939
H2    H     H_    0.425210 0.942602 0.353554 0.113010
H3    H     H_    0.550670 0.223899 0.357640 0.126456
H4    H     H_    0.573880 0.777272 0.644466 0.167002
H5    H     H_    0.555115 0.063363 0.356551 0.110596
H6    H     H_    0.579819 0.937929 0.644384 0.110196
H7    H     H_    0.645244 0.572922 0.087281 0.094531
H8    H     H_    0.400118 0.384118 0.917361 0.095266
H9    H     H_    0.638160 0.575839 0.262255 0.118170
H10   H     H_    0.397038 0.391020 0.741054 0.162314
H11   H     H_    0.360038 0.284340 0.296676 0.166919
H12   H     H_    0.178090 0.481748 0.625077 0.123137
H13   H     H_    0.409951 0.297773 0.182415 0.097241
H14   H     H_    0.180632 0.308628 0.222118 0.174999
H15   H     H_    0.226307 0.327163 0.105565 0.151691
H16   H     H_    0.296825 0.173935 0.108274 0.140814
H17   H     H_    0.160093 0.173715 0.120720 0.147692
H18   H     H_    0.251837 0.154954 0.225896 0.152207
H19   H     H_    0.765530 0.620848 0.726380 0.158921
H20   H     H_    0.743048 0.577627 0.842149 0.097669
H21   H     H_    0.725690 0.772230 0.772257 0.160927
H22   H     H_    0.692589 0.734876 0.888362 0.153817
H23   H     H_    0.356496 0.427063 0.057476 0.091899
H24   H     H_    0.873488 0.681341 0.931074 0.143702
H25   H     H_    0.870903 0.797329 0.900744 0.146239
H26   H     H_    0.907009 0.718337 0.813863 0.151034
H27   H     H_    0.550792 0.275049 0.763821 0.157435
H28   H     H_    0.564818 0.159634 0.742436 0.105279
H29   H     H_    0.380819 0.240581 0.832874 0.164937
H30   H     H_    0.404323 0.125142 0.816477 0.159775
H31   H     H_    0.569664 0.137206 0.927102 0.144386
H32   H     H_    0.459779 0.172114 0.985939 0.138634
H33   H     H_    0.546392 0.253645 0.943227 0.150947
H34   H     H_    0.595794 0.616130 0.938137 0.087082
H35   H     H_    0.461228 0.693796 0.229315 0.178079
H36   H     H_    0.562968 0.757515 0.292594 0.112058
H37   H     H_    0.379857 0.833682 0.156167 0.179580
H38   H     H_    0.490941 0.894522 0.210832 0.141852
H39   H     H_    0.607306 0.801874 0.120851 0.140305
H40   H     H_    0.511195 0.858538 0.040182 0.146728
H41   H     H_    0.495385 0.742348 0.064401 0.153944
H42   H     H_    0.829037 0.476359 0.684159 0.116669
H43   H     H_    0.170916 0.516731 0.314990 0.161033
H44   H     H_    0.982021 0.520205 0.299714 0.100899
H45   H     H_    0.017861 0.473540 0.699551 0.101390
H46   H     H_    0.449584 0.054971 0.640415 0.113165
N1    N     N_R   0.500000 0.500020 0.258690 -0.215337
N2    N     N_R   0.500000 0.499980 0.741310 -0.216486
O1    O     O_R   0.500010 0.371450 0.581430 -0.475696
O2    O     O_3   0.612742 0.624497 0.749315 -0.546373
O3    O     O_3   0.439164 0.226513 0.661005 -0.569052
O4    O     O_3   0.410570 0.771784 0.333306 -0.560168
O5    O     O_R   0.499990 0.628550 0.418570 -0.492949
O6    O     O_R   0.500010 0.371460 0.418560 -0.505141
O7    O     O_R   0.499990 0.628540 0.581440 -0.457011
O8    O     O_R   0.349000 0.499980 0.568210 -0.519611
O9    O     O_R   0.651000 0.500020 0.431790 -0.528316
O10   O     O_R   0.349000 0.499990 0.405340 -0.446205
O11   O     O_R   0.651000 0.500010 0.594660 -0.491518
O12   O     O_3   0.347253 0.411410 0.245198 -0.545214

loop_
_geom_bond_atom_site_label_1
_geom_bond_atom_site_label_2
_ccdc_geom_bond_type
C27   C48   A    
C20   H43   S    
Cu2   O6    S    
C16   C21   A    
C27   C29   A    
C28   H2    S    
C41   C42   S    
C31   H11   S    
C35   C36   S    
C18   C26   A    
C37   H24   S    
C1    O1    A    
C41   H36   S    
C43   H39   S    
C23   C29   A    
C36   C37   S    
C19   C21   A    
C24   C26   A    
C38   O3    S    
C38   C39   S    
C22   H12   S    
C15   C16   S    
C17   C20   A    
C41   O4    S    
C15   O9    A    
C4    C13   A    
C15   O11   A    
C8    N2    A    
Cu1   N2    S    
C44   H3    S    
C35   H20   S    
C22   C25   A    
C46   H5    S    
C36   H21   S    
C24   H1    S    
C14   O10   A    
C37   H25   S    
Cu2   O5    S    
C16   C24   A    
Cu2   O10   S    
C40   H33   S    
C27   H46   S    
C9    H23   S    
C44   C46   A    
C33   H16   S    
C45   C47   A    
C46   C48   A    
C43   H40   S    
C30   C34   A    
C6    H10   S    
C32   H14   S    
C12   O5    A    
C4    C6    A    
C39   C40   S    
C5    H9    S    
Cu1   O7    S    
C38   H28   S    
C2    C48   S    
C25   C26   A    
C43   H41   S    
C23   C44   A    
C39   H29   S    
C31   H13   S    
Cu1   O1    S    
C40   H32   S    
C31   C32   S    
C30   O4    S    
C29   O3    S    
C34   C45   A    
C9    C11   A    
C1    O6    A    
C3    H7    S    
C37   H26   S    
C5    N1    A    
C45   H4    S    
C1    C23   S    
Cu2   O9    S    
C18   H44   S    
C42   H38   S    
C42   C43   S    
C12   C34   S    
C35   O2    S    
C6    N2    A    
C19   H45   S    
C33   H17   S    
Cu1   O11   S    
C7    C9    A    
Cu2   N1    S    
C7    N1    A    
C40   H31   S    
C3    C5    A    
C10   C13   A    
Cu1   O8    S    
C38   H27   S    
C2    C47   A    
C41   H35   S    
C17   C22   A    
C7    O12   S    
C32   C33   S    
C28   C30   A    
C8    O2    S    
C39   H30   S    
C11   C13   S    
C12   O7    A    
C10   H34   S    
C31   O12   S    
C18   C20   A    
C19   C25   A    
C3    C11   A    
C14   O8    A    
C35   H19   S    
C8    C10   A    
Cu1   Cu2   S    
C4    H8    S    
C32   H15   S    
C2    C28   A    
C42   H37   S    
C36   H22   S    
C33   H18   S    
C47   H6    S    
C21   H42   S    
C14   C17   S    
