data_mof_unit_38042.cif
_audit_creation_date              2013-03-05T15:45:39-0500
_audit_creation_method            fapswitch 2.2
_symmetry_space_group_name_H-M    P1
_symmetry_Int_Tables_number       1
_space_group_crystal_system       triclinic
_cell_length_a                    15.05195
_cell_length_b                    10.88163
_cell_length_c                    9.85443
_cell_angle_alpha                 110.785417
_cell_angle_beta                  98.974967
_cell_angle_gamma                 90.555841
_cell_volume                      1486.82630236

loop_
_atom_site_label
_atom_site_type_symbol
_atom_site_description
_atom_site_fract_x
_atom_site_fract_y
_atom_site_fract_z
_atom_type_partial_charge
O1    O     O_R   0.508410 0.332340 0.577400 -0.572238
O2    O     O_R   0.491590 0.667660 0.422600 -0.571613
O3    O     O_R   0.481780 0.295500 0.332650 -0.516349
O4    O     O_R   0.518220 0.704500 0.667350 -0.517458
C1    C     C_R   0.497368 0.253095 0.441443 0.790908
C2    C     C_R   0.510544 0.747009 0.558517 0.799417
O5    O     O_R   0.383570 0.518390 0.622380 -0.591904
O6    O     O_R   0.616430 0.481610 0.377620 -0.581677
O7    O     O_R   0.356940 0.481550 0.377630 -0.548050
O8    O     O_R   0.643060 0.518450 0.622370 -0.530607
C3    C     C_R   0.329092 0.498705 0.500528 0.770522
C4    C     C_R   0.670997 0.500163 0.499730 0.822895
Cu1   Cu    Cu3+1 0.515770 0.521810 0.644910 1.128658
Cu2   Cu    Cu3+1 0.484230 0.478190 0.355090 1.124709
C5    C     C_R   0.824747 0.605205 0.603232 -0.087978
C6    C     C_R   0.178590 0.377557 0.426030 -0.104068
C7    C     C_R   0.768386 0.497816 0.501849 -0.093544
C8    C     C_R   0.232432 0.494909 0.504638 -0.114774
C9    C     C_R   0.804192 0.383111 0.416006 -0.055071
C10   C     C_R   0.197386 0.605151 0.599860 -0.065823
C11   C     C_R   0.898690 0.371751 0.437094 0.004828
C12   C     C_R   0.107071 0.597871 0.621681 0.007699
C13   C     C_R   0.956065 0.483982 0.531601 0.033647
C14   C     C_R   0.050255 0.483375 0.532786 0.032605
C15   C     C_R   0.919391 0.597823 0.622683 -0.020126
C16   C     C_R   0.087246 0.369162 0.443226 -0.011540
C17   C     C_R   0.938298 0.251346 0.372392 -0.167880
C18   C     C_R   0.071792 0.699098 0.731629 -0.167055
C19   C     C_R   0.031874 0.249866 0.376547 0.280718
C20   C     C_R   0.978795 0.699306 0.732076 0.274539
C21   C     C_2   0.502139 0.111382 0.413431 0.088191
C22   C     C_2   0.521843 0.889085 0.586939 0.086661
C23   C     C_2   0.560436 0.070664 0.507101 0.210018
C24   C     C_2   0.558847 0.930993 0.491434 0.210795
H1    H     H_    0.438187 0.421876 0.845490 0.172898
H2    H     H_    0.560257 0.580305 0.154820 0.199516
N1    N     N_2   0.460520 0.445420 0.137370 -0.080485
N2    N     N_2   0.539480 0.554580 0.862630 -0.080346
C25   C     C_2   0.506823 0.510337 0.080706 0.083194
C26   C     C_2   0.492598 0.490382 0.919388 0.079069
C27   C     C_1   0.783516 0.726810 0.673837 0.430638
N3    N     N_1   0.750267 0.823328 0.729385 -0.117694
C28   C     C_1   0.217411 0.270508 0.321370 0.383163
N4    N     N_1   0.248575 0.185476 0.238083 -0.086920
C29   C     C_1   0.742640 0.282580 0.300773 0.305076
N5    N     N_1   0.693025 0.203412 0.209078 -0.137223
C30   C     C_1   0.252521 0.729040 0.659165 0.267136
N6    N     N_1   0.296682 0.827350 0.705332 -0.131669
C31   C     C_1   0.886585 0.124995 0.317805 0.418819
N7    N     N_1   0.846032 0.023746 0.274656 -0.097657
C32   C     C_1   0.130014 0.795306 0.856535 0.413249
N8    N     N_1   0.175951 0.871950 0.956787 -0.100076
N9    N     N_R   0.070702 0.124822 0.325620 0.109841
O9    O     O_R   0.047849 0.045114 0.189594 -0.266847
O10   O     O_R   0.122484 0.085742 0.418895 -0.299382
N10   N     N_R   0.946457 0.797742 0.851620 0.116720
O11   O     O_R   0.913295 0.763865 0.948662 -0.267930
O12   O     O_R   0.957544 0.921951 0.870847 -0.283499
N11   N     N_R   0.603993 0.844421 0.378912 0.120324
O13   O     O_R   0.606576 0.868019 0.259021 -0.263532
O14   O     O_R   0.658551 0.762162 0.409100 -0.385593
N12   N     N_R   0.631075 0.158332 0.615367 0.140189
O15   O     O_R   0.659573 0.138601 0.737122 -0.263234
O16   O     O_R   0.679504 0.237921 0.579493 -0.369202
N13   N     N_R   0.488192 0.980284 0.711507 0.144422
O17   O     O_R   0.441273 0.076491 0.698303 -0.312942
O18   O     O_R   0.496330 0.959119 0.834630 -0.214901
N14   N     N_R   0.440137 0.019308 0.292501 0.136653
O19   O     O_R   0.394147 0.926372 0.311156 -0.315767
O20   O     O_R   0.423160 0.035908 0.166871 -0.213409
N15   N     N_R   0.619037 0.625947 0.946829 0.259253
O21   O     O_R   0.641217 0.736795 0.934600 -0.224579
O22   O     O_R   0.681070 0.568269 0.005177 -0.296702
N16   N     N_R   0.383469 0.369012 0.050334 0.238707
O23   O     O_R   0.368986 0.251077 0.050184 -0.218293
O24   O     O_R   0.317227 0.424113 0.997538 -0.340039

loop_
_geom_bond_atom_site_label_1
_geom_bond_atom_site_label_2
_geom_bond_distance
_ccdc_geom_bond_type
C2    C22   1.473180 S    
N1    N16   1.391691 S    
C3    C8    1.462381 S    
C17   C19   1.403117 A    
C27   N3    1.157930 T    
C28   N4    1.157303 T    
N9    O9    1.301013 A    
O5    C3    1.291123 A    
N16   O24   1.302114 A    
O1    C1    1.293829 A    
C9    C11   1.418112 A    
C14   C16   1.421894 A    
C18   C32   1.452625 S    
C5    C15   1.414421 A    
N10   O11   1.301961 A    
O4    Cu1   1.919972 S    
N12   O16   1.300720 A    
N14   O19   1.301454 A    
N13   O18   1.301027 A    
C4    C7    1.463376 S    
C13   C14   1.416073 A    
C21   C23   1.365093 D    
C11   C17   1.421071 A    
N11   O13   1.301065 A    
C12   C18   1.418807 A    
Cu1   Cu2   2.686620 S    
O2    C2    1.294633 A    
N9    O10   1.301359 A    
C6    C16   1.417269 A    
C21   N14   1.443040 S    
N11   O14   1.300431 A    
N16   O23   1.299063 A    
C32   N8    1.157823 T    
C5    C27   1.455157 S    
O4    C2    1.300778 A    
C25   C26   1.505995 S    
N15   O22   1.302433 A    
C23   N12   1.443212 S    
C29   N5    1.157953 T    
C20   N10   1.437180 S    
C22   C24   1.366458 D    
O7    Cu2   1.962132 S    
N12   O15   1.301427 A    
C30   N6    1.157441 T    
O6    C4    1.295898 A    
C23   C24   1.471709 S    
O7    C3    1.294888 A    
C6    C28   1.452810 S    
Cu1   N2    2.018255 S    
O3    Cu2   1.919974 S    
O8    C4    1.290936 A    
N14   O20   1.300583 A    
C10   C12   1.414834 A    
C31   N7    1.157895 T    
C11   C13   1.423374 A    
C24   N11   1.443904 S    
C12   C14   1.421964 A    
O1    Cu1   1.924765 S    
C15   C20   1.419958 A    
C5    C7    1.403960 A    
N2    N15   1.392892 S    
O6    Cu2   1.965988 S    
H2    C25   1.081732 S    
O3    C1    1.300804 A    
O8    Cu1   1.962132 S    
C9    C29   1.454296 S    
C18   C20   1.400503 A    
H1    C26   1.083301 S    
N15   O21   1.299554 A    
N1    C25   1.299380 D    
Cu2   N1    2.018255 S    
N2    C26   1.299890 D    
C19   N9    1.437761 S    
C7    C9    1.403539 A    
N10   O12   1.301753 A    
C8    C10   1.402012 A    
C13   C15   1.422531 A    
O2    Cu2   1.924765 S    
C10   C30   1.454465 S    
O5    Cu1   1.965988 S    
C16   C19   1.419263 A    
C6    C8    1.403390 A    
N13   O17   1.301533 A    
C17   C31   1.452341 S    
C22   N13   1.444787 S    
C1    C21   1.471573 S    
