data_mof_unit_31572.cif
_audit_creation_date              2013-03-05T15:55:42-0500
_audit_creation_method            fapswitch 2.2
_symmetry_space_group_name_H-M    P1
_symmetry_Int_Tables_number       1
_space_group_crystal_system       triclinic
_cell_length_a                    6.930879
_cell_length_b                    17.595232
_cell_length_c                    19.444637
_cell_angle_alpha                 108.54896
_cell_angle_beta                  89.616229
_cell_angle_gamma                 90.495478
_cell_volume                      2247.99523735

loop_
_atom_site_label
_atom_site_type_symbol
_atom_site_description
_atom_site_fract_x
_atom_site_fract_y
_atom_site_fract_z
_atom_type_partial_charge
O1    O     O_R   0.494330 0.415710 0.413720 -0.601658
O2    O     O_R   0.819360 0.430070 0.560210 -0.558713
O3    O     O_R   0.994320 0.584290 0.586280 -0.585771
C1    C     C_R   0.650958 0.417405 0.583830 1.018826
O4    O     O_R   0.823740 0.406290 0.412670 -0.598935
O5    O     O_R   0.998730 0.560340 0.437690 -0.602447
C2    C     C_R   0.654839 0.383308 0.384659 0.948640
O6    O     O_R   0.489920 0.439660 0.562310 -0.571493
O7    O     O_3   0.662330 0.550570 0.508380 -0.296020
V1    V     V_3+5 0.935370 0.490620 0.498440 1.227866
O8    O     O_R   0.328720 0.569930 0.439790 -0.608420
C3    C     C_R   0.160613 0.585118 0.418179 0.937146
O9    O     O_R   0.324340 0.593710 0.587330 -0.605247
C4    C     C_R   0.155193 0.616810 0.615356 0.988966
V2    V     V_3+5 0.435940 0.509380 0.501560 1.194341
O10   O     O_3   0.159110 0.449430 0.491620 -0.250892
C5    C     C_R   0.312364 0.723340 0.718882 -0.117686
H1    H     H_    0.453287 0.704000 0.695924 0.121767
C6    C     C_R   0.301130 0.787169 0.783847 -0.120665
H2    H     H_    0.433987 0.815171 0.808817 0.121994
C7    C     C_R   0.121263 0.814498 0.815972 -0.126451
C8    C     C_R   0.952968 0.776164 0.781322 -0.129641
C9    C     C_R   0.964201 0.712374 0.716341 -0.058517
C10   C     C_R   0.144045 0.685113 0.684167 -0.130037
C11   C     C_R   0.307982 0.634262 0.321553 -0.225415
C12   C     C_R   0.153015 0.634538 0.368875 -0.136742
C13   C     C_R   0.989792 0.681420 0.368156 -0.245284
C14   C     C_R   0.981643 0.728237 0.321603 0.153485
C15   C     C_R   0.136522 0.726735 0.273686 0.035439
C16   C     C_R   0.299679 0.679161 0.273371 0.138445
C17   C     C_R   0.821384 0.776669 0.322135 -0.210122
C18   C     C_R   0.813283 0.822404 0.275004 -0.200812
C19   C     C_R   0.965007 0.820418 0.226284 0.153217
C20   C     C_R   0.128155 0.772837 0.225958 0.035808
C21   C     C_R   0.283054 0.771358 0.178055 0.138758
C22   C     C_R   0.443260 0.722884 0.177492 -0.183211
C23   C     C_R   0.451352 0.677140 0.224619 -0.174225
C24   C     C_R   0.956781 0.865389 0.178166 -0.242910
C25   C     C_R   0.111830 0.865203 0.130907 -0.142126
C26   C     C_R   0.274995 0.818263 0.131570 -0.223467
H3    H     H_    0.433657 0.597883 0.321271 0.138666
H4    H     H_    0.870053 0.682315 0.404573 0.137209
H5    H     H_    0.701443 0.778809 0.358726 0.143090
H6    H     H_    0.687404 0.858953 0.276330 0.144216
H7    H     H_    0.831111 0.901777 0.178467 0.132469
H8    H     H_    0.394760 0.817407 0.095174 0.144235
H9    H     H_    0.563194 0.720740 0.140897 0.154542
H10   H     H_    0.577216 0.640581 0.223286 0.154711
C27   C     C_R   0.774485 0.189399 0.874806 -0.105662
C28   C     C_R   0.623081 0.134649 0.869624 -0.175863
C29   C     C_R   0.476412 0.128679 0.818873 -0.151737
C30   C     C_R   0.482573 0.175450 0.772424 0.175543
C31   C     C_R   0.633925 0.231394 0.778118 0.077126
C32   C     C_R   0.778237 0.239982 0.831147 -0.037005
C33   C     C_R   0.338353 0.166849 0.720606 -0.330646
C34   C     C_R   0.343417 0.211386 0.672470 0.351826
C35   C     C_R   0.492884 0.268643 0.678069 0.042852
C36   C     C_R   0.638823 0.279027 0.731458 0.026569
C37   C     C_R   0.787325 0.337437 0.738883 -0.139452
C38   C     C_R   0.925947 0.348337 0.795305 0.223525
C39   C     C_R   0.921718 0.299465 0.840364 0.191309
C40   C     C_R   0.496615 0.316865 0.632699 -0.089613
C41   C     C_R   0.645078 0.372244 0.636833 -0.324737
C42   C     C_R   0.789979 0.383461 0.690256 0.385813
H11   H     H_    0.358853 0.086355 0.814644 0.114676
H12   H     H_    0.223038 0.123531 0.716196 0.168631
H13   H     H_    0.384959 0.311401 0.592845 0.193036
C43   C     C_R   0.790741 0.259032 0.294207 -0.071932
C44   C     C_R   0.778375 0.195874 0.228826 -0.074205
H14   H     H_    0.892363 0.151769 0.215368 0.137914
C45   C     C_R   0.620762 0.188873 0.181768 -0.302031
C46   C     C_R   0.475171 0.248382 0.201413 0.368447
C47   C     C_R   0.485808 0.309665 0.268700 -0.223470
C48   C     C_R   0.643446 0.316026 0.315316 -0.184494
O11   O     O_R   0.774940 0.060470 0.937800 -0.604584
O12   O     O_R   0.440880 0.093730 0.087350 -0.569603
O13   O     O_R   0.266130 0.939630 0.062280 -0.604279
C49   C     C_R   0.609894 0.118475 0.114256 0.993242
O14   O     O_R   0.445480 0.069960 0.939820 -0.574714
O15   O     O_R   0.270770 0.915690 0.913690 -0.607190
C50   C     C_R   0.614568 0.084911 0.918224 0.973062
O16   O     O_R   0.770300 0.084410 0.086380 -0.589557
O17   O     O_3   0.602600 0.949510 0.991670 -0.289832
V3    V     V_3+5 0.329470 0.009370 0.001550 1.216823
O18   O     O_R   0.940760 0.906160 0.912560 -0.603158
C51   C     C_R   0.109992 0.882997 0.884651 0.917200
O19   O     O_R   0.936150 0.929930 0.060100 -0.601024
C52   C     C_R   0.104263 0.914739 0.081703 0.950908
V4    V     V_3+5 0.828930 0.990450 0.998310 1.181399
O20   O     O_3   0.105670 0.050490 0.008320 -0.240746
H15   H     H_    0.886794 0.193285 0.914235 0.177676
N1    N     N_R   0.197454 0.196247 0.617493 0.234994
O21   O     O_R   0.247282 0.177587 0.549530 -0.405160
O22   O     O_R   0.019410 0.184544 0.633492 -0.418474
N2    N     N_R   0.936504 0.442906 0.695196 0.245239
O23   O     O_R   0.892015 0.518536 0.718687 -0.385251
O24   O     O_R   0.103511 0.421533 0.664541 -0.370615
N3    N     N_R   0.061584 0.413487 0.812405 0.278228
O25   O     O_R   0.242569 0.400039 0.795043 -0.324711
O26   O     O_R   0.010183 0.483492 0.855466 -0.300106
N4    N     N_R   0.055440 0.315128 0.899457 0.256488
O27   O     O_R   0.992981 0.340536 0.966082 -0.313073
O28   O     O_R   0.239901 0.307007 0.887011 -0.335208
H16   H     H_    0.914337 0.262451 0.328887 0.133671
N5    N     N_R   0.322583 0.250700 0.152425 0.238786
O29   O     O_R   0.362271 0.242885 0.085010 -0.342492
O30   O     O_R   0.152214 0.275717 0.177678 -0.398359
H17   H     H_    0.374300 0.354857 0.283188 0.166496
H18   H     H_    0.812037 0.795455 0.804296 0.121552
H19   H     H_    0.831338 0.684363 0.691383 0.129019

loop_
_geom_bond_atom_site_label_1
_geom_bond_atom_site_label_2
_geom_bond_distance
_ccdc_geom_bond_type
O19   C52   1.299574 A    
N4    O27   1.301126 A    
C47   C48   1.405147 A    
C39   N4    1.436525 S    
N2    O23   1.301166 A    
O15   V3    2.001805 S    
O12   V3    2.001189 S    
C35   C40   1.405147 A    
C31   C32   1.413698 A    
C26   H8    1.084277 S    
N5    O30   1.301113 A    
C1    C41   1.488359 S    
C12   C13   1.408606 A    
C40   C41   1.395947 A    
O16   V4    2.007984 S    
C17   H5    1.083651 S    
C40   H13   1.080753 S    
C22   C23   1.400511 A    
C6    C7    1.408668 A    
O12   C49   1.299989 A    
C38   N3    1.432280 S    
O5    C3    1.297675 A    
O14   V3    2.002551 S    
C43   C48   1.402343 A    
C27   C32   1.411929 A    
C34   C35   1.419031 A    
C22   H9    1.083651 S    
C20   C21   1.411580 A    
C29   H11   1.084739 S    
C4    C10   1.489192 S    
C44   C45   1.408951 A    
C24   H7    1.084336 S    
O15   C51   1.296983 A    
O8    V2    1.992416 S    
C17   C18   1.400433 A    
O13   C52   1.297733 A    
C43   C44   1.399810 A    
C9    C10   1.408599 A    
O1    V2    2.002182 S    
O7    V1    2.152010 S    
C30   C33   1.396833 A    
C1    O6    1.300866 A    
C37   C38   1.428489 A    
N4    O28   1.300192 A    
O9    C4    1.302042 A    
V3    O20   1.703787 S    
C25   C52   1.486558 S    
C27   H15   1.082637 S    
C5    H1    1.082738 S    
C2    C48   1.486612 S    
O17   V4    1.708882 S    
C5    C10   1.406103 A    
C29   C30   1.402340 A    
C11   H3    1.084342 S    
C25   C26   1.408659 A    
O14   C50   1.295109 A    
O18   V4    2.002431 S    
O11   C50   1.297454 A    
C47   H17   1.083574 S    
O13   V3    1.999649 S    
C28   C29   1.401388 A    
C11   C12   1.408666 A    
O18   C51   1.302065 A    
C15   C20   1.415328 A    
C16   C23   1.403862 A    
C3    C12   1.486534 S    
C38   C39   1.409442 A    
C21   C22   1.403842 A    
O2    C1    1.294727 A    
C15   C16   1.411551 A    
C49   O16   1.298394 A    
O17   V3    2.151902 S    
C34   N1    1.437295 S    
C31   C36   1.417611 A    
C8    H18   1.082719 S    
C33   C34   1.398972 A    
N1    O22   1.301213 A    
C19   C20   1.411541 A    
C18   H6    1.083627 S    
C23   H10   1.083629 S    
O3    C4    1.296862 A    
N3    O25   1.300800 A    
O6    V2    1.994006 S    
N3    O26   1.301012 A    
O19   V4    1.992333 S    
O2    V1    2.002644 S    
C33   H12   1.084366 S    
C30   C31   1.412789 A    
O4    C2    1.300299 A    
C11   C16   1.406270 A    
C9    H19   1.082755 S    
C7    C51   1.489405 S    
C14   C15   1.411573 A    
O1    C2    1.295963 A    
C14   C17   1.403801 A    
C43   H16   1.083137 S    
C42   N2    1.433036 S    
C46   C47   1.407939 A    
O5    V1    1.999700 S    
O8    C3    1.299589 A    
N2    O24   1.300848 A    
C32   C39   1.407661 A    
N5    O29   1.301567 A    
C19   C24   1.406175 A    
C18   C19   1.403830 A    
C6    H2    1.082744 S    
O9    V2    2.002381 S    
C21   C26   1.406181 A    
C36   C37   1.423285 A    
O4    V1    2.001179 S    
O3    V1    2.001829 S    
V1    O10   1.703848 S    
C13   H4    1.084280 S    
C35   C36   1.422806 A    
C24   C25   1.408616 A    
N1    O21   1.301258 A    
C5    C6    1.400253 A    
O7    V2    1.710799 S    
C44   H14   1.083286 S    
O11   V4    1.994597 S    
C41   C42   1.416594 A    
C37   C42   1.427165 A    
C45   C46   1.420968 A    
C46   N5    1.437515 S    
C27   C28   1.400537 A    
C13   C14   1.406070 A    
C8    C9    1.400085 A    
V4    O20   2.161472 S    
C7    C8    1.406154 A    
C45   C49   1.492778 S    
V2    O10   2.161389 S    
C28   C50   1.478838 S    
