data_mof_unit_33873.cif
_audit_creation_date              2012-12-10T18:09:34-0500
_audit_creation_method            fapswitch 2.2
_symmetry_space_group_name_H-M    P1
_symmetry_Int_Tables_number       1
_space_group_crystal_system       triclinic
_cell_length_a                    15.139625
_cell_length_b                    15.223076
_cell_length_c                    9.410246
_cell_angle_alpha                 90.139785
_cell_angle_beta                  90.016442
_cell_angle_gamma                 89.992423
_cell_volume                      2168.78847273

loop_
_atom_site_label
_atom_site_type_symbol
_atom_type_description
_atom_site_fract_x
_atom_site_fract_y
_atom_site_fract_z
_atom_type_partial_charge
C1    C     C_R   0.118566 0.378443 0.499757 0.812252
C2    C     C_R   0.118665 0.621461 0.500277 0.815105
C3    C     C_R   0.618562 0.878438 0.499759 0.812461
C4    C     C_R   0.618675 0.121450 0.500279 0.814931
C5    C     C_3   0.092203 0.506177 0.083944 -0.191792
C6    C     C_3   0.092235 0.505616 0.916200 -0.190986
C7    C     C_3   0.592303 0.004509 0.083938 -0.191747
C8    C     C_3   0.592328 0.003921 0.916189 -0.191122
C9    C     C_R   0.878941 0.380875 0.500010 0.874593
C10   C     C_R   0.878833 0.618999 0.499973 0.876720
C11   C     C_R   0.378932 0.880886 0.500009 0.874836
C12   C     C_R   0.378836 0.119003 0.499971 0.876669
C13   C     C_3   0.761872 0.309132 0.648298 0.178348
C14   C     C_3   0.850984 0.220202 0.471925 0.176891
C15   C     C_3   0.851223 0.779940 0.523154 0.175242
C16   C     C_3   0.759644 0.688680 0.353370 0.176573
C17   C     C_3   0.261650 0.809362 0.648123 0.178061
C18   C     C_3   0.351011 0.720180 0.472415 0.176774
C19   C     C_3   0.351210 0.279926 0.523421 0.175311
C20   C     C_3   0.259764 0.188804 0.353259 0.176776
C21   C     C_3   0.191229 0.736568 0.648547 -0.371924
C22   C     C_3   0.277940 0.649219 0.468180 -0.396841
C23   C     C_3   0.278182 0.350943 0.527909 -0.396429
C24   C     C_3   0.189247 0.261572 0.352840 -0.372663
C25   C     C_3   0.691432 0.236360 0.648698 -0.372151
C26   C     C_3   0.777911 0.149243 0.467747 -0.396778
C27   C     C_3   0.778192 0.850952 0.527735 -0.396539
C28   C     C_3   0.689169 0.761490 0.352912 -0.372357
C29   C     C_3   0.738654 0.331778 0.384260 -0.290144
C30   C     C_3   0.740224 0.669696 0.619015 -0.293100
C31   C     C_3   0.238809 0.831626 0.383912 -0.290447
C32   C     C_3   0.240129 0.169607 0.618822 -0.292757
C33   C     C_3   0.809126 0.312469 0.500300 -0.037326
C34   C     C_3   0.808988 0.687359 0.499698 -0.034525
C35   C     C_3   0.309114 0.812485 0.500292 -0.037041
C36   C     C_3   0.308991 0.187365 0.499690 -0.034738
C37   C     C_3   0.186939 0.690827 0.501068 0.012510
C38   C     C_3   0.186797 0.309020 0.499020 0.013725
C39   C     C_3   0.686952 0.190811 0.501079 0.012563
C40   C     C_3   0.686792 0.809013 0.499028 0.013636
C41   C     C_3   0.165708 0.761363 0.387213 -0.372379
C42   C     C_3   0.166962 0.239793 0.615594 -0.373131
C43   C     C_3   0.665573 0.261490 0.387532 -0.372556
C44   C     C_3   0.667020 0.739843 0.615723 -0.372916
C45   C     C_3   0.950536 0.575079 0.083905 -0.201061
C46   C     C_3   0.951013 0.575396 0.916622 -0.164069
C47   C     C_3   0.961563 0.418580 0.083344 -0.156188
C48   C     C_3   0.960994 0.418857 0.915994 -0.200117
C49   C     C_3   0.451965 0.076021 0.083916 -0.201082
C50   C     C_3   0.452474 0.076346 0.916626 -0.162882
C51   C     C_3   0.460027 0.919347 0.083339 -0.157042
C52   C     C_3   0.459447 0.919643 0.916002 -0.200362
Cu1   Cu    Cu3+1 0.000100 0.500000 0.642410 0.937036
Cu2   Cu    Cu3+1 0.000100 0.500000 0.357590 0.936139
Cu3   Cu    Cu3+1 0.500100 0.000000 0.642410 0.936915
Cu4   Cu    Cu3+1 0.500100 0.000000 0.357590 0.936259
H1    H     H_    0.811247 0.293345 0.732163 0.107926
H2    H     H_    0.897299 0.204633 0.560278 0.105755
H3    H     H_    0.896128 0.794316 0.432460 0.105788
H4    H     H_    0.807782 0.703232 0.267127 0.108528
H5    H     H_    0.310905 0.793725 0.732246 0.107964
H6    H     H_    0.397185 0.704727 0.561014 0.105791
H7    H     H_    0.396217 0.294356 0.432881 0.105722
H8    H     H_    0.307966 0.203477 0.267167 0.108455
H9    H     H_    0.208436 0.687865 0.732218 0.141748
H10   H     H_    0.293214 0.597246 0.547556 0.141990
H11   H     H_    0.292467 0.402041 0.446616 0.142062
H12   H     H_    0.205282 0.309275 0.267084 0.143682
H13   H     H_    0.708713 0.187544 0.732159 0.141975
H14   H     H_    0.793294 0.097184 0.546921 0.141945
H15   H     H_    0.792419 0.902037 0.446394 0.142090
H16   H     H_    0.705214 0.809143 0.267093 0.143411
H17   H     H_    0.125121 0.763639 0.676145 0.256604
H18   H     H_    0.275528 0.616532 0.362299 0.216231
H19   H     H_    0.277063 0.384757 0.632917 0.215776
H20   H     H_    0.122819 0.234160 0.328266 0.255429
H21   H     H_    0.625364 0.263420 0.676581 0.256350
H22   H     H_    0.775357 0.116670 0.361783 0.216259
H23   H     H_    0.777136 0.884783 0.632731 0.215765
H24   H     H_    0.622720 0.734107 0.328415 0.255684
H25   H     H_    0.708961 0.397745 0.400869 0.247186
H26   H     H_    0.769468 0.332423 0.276994 0.208806
H27   H     H_    0.772587 0.670755 0.725124 0.206828
H28   H     H_    0.710455 0.603425 0.606199 0.245219
H29   H     H_    0.209113 0.897631 0.400117 0.247127
H30   H     H_    0.269775 0.832080 0.276758 0.208550
H31   H     H_    0.272407 0.170525 0.724999 0.206956
H32   H     H_    0.210333 0.103369 0.605738 0.245420
H33   H     H_    0.101024 0.792887 0.411199 0.199427
H34   H     H_    0.160360 0.730710 0.280036 0.182875
H35   H     H_    0.162874 0.271645 0.722003 0.183243
H36   H     H_    0.102032 0.207993 0.594485 0.196155
H37   H     H_    0.600909 0.292967 0.411820 0.199338
H38   H     H_    0.660107 0.230972 0.280269 0.183092
H39   H     H_    0.662941 0.771752 0.722087 0.183065
H40   H     H_    0.602101 0.707999 0.594698 0.196410
H41   H     H_    0.978174 0.638076 0.124411 0.147474
H42   H     H_    0.979751 0.638165 0.877872 0.191951
H43   H     H_    0.998311 0.360129 0.122366 0.187639
H44   H     H_    0.996550 0.360018 0.875164 0.146226
H45   H     H_    0.480739 0.138489 0.124512 0.147335
H46   H     H_    0.482395 0.138560 0.877842 0.191427
H47   H     H_    0.495688 0.860226 0.122316 0.188460
H48   H     H_    0.493881 0.860144 0.875176 0.146358
H49   H     H_    0.880844 0.571896 0.120736 0.191029
H50   H     H_    0.881503 0.573246 0.878537 0.175746
H51   H     H_    0.892335 0.411522 0.120898 0.177855
H52   H     H_    0.891404 0.412931 0.879659 0.186471
H53   H     H_    0.382207 0.074108 0.120633 0.190235
H54   H     H_    0.382927 0.075513 0.878617 0.175577
H55   H     H_    0.390683 0.913588 0.120957 0.177337
H56   H     H_    0.389757 0.915046 0.879635 0.187319
H57   H     H_    0.124785 0.567326 0.121803 0.152413
H58   H     H_    0.125462 0.566138 0.877834 0.149523
H59   H     H_    0.133211 0.450729 0.123200 0.147183
H60   H     H_    0.132670 0.449460 0.877578 0.150650
H61   H     H_    0.626032 0.065023 0.121887 0.152341
H62   H     H_    0.626724 0.063764 0.877674 0.149215
H63   H     H_    0.632265 0.948294 0.123102 0.147383
H64   H     H_    0.631674 0.946975 0.877701 0.150809
N1    N     N_3   0.001260 0.500000 0.143650 -0.137118
N2    N     N_3   0.001260 0.500000 0.856350 -0.134985
N3    N     N_3   0.501260 0.000000 0.143650 -0.136818
N4    N     N_3   0.501260 0.000000 0.856350 -0.135255
O1    O     O_R   0.091250 0.408820 0.620260 -0.605337
O2    O     O_R   0.091250 0.408820 0.379740 -0.588220
O3    O     O_R   0.091250 0.591180 0.620260 -0.587730
O4    O     O_R   0.091250 0.591180 0.379740 -0.605560
O5    O     O_R   0.591250 0.908820 0.620260 -0.605375
O6    O     O_R   0.591250 0.908820 0.379740 -0.588175
O7    O     O_R   0.591250 0.091180 0.620260 -0.587776
O8    O     O_R   0.591250 0.091180 0.379740 -0.605517
O9    O     O_R   0.908940 0.408800 0.620260 -0.594180
O10   O     O_R   0.908940 0.408800 0.379740 -0.554950
O11   O     O_R   0.908940 0.591200 0.620260 -0.556453
O12   O     O_R   0.908940 0.591200 0.379740 -0.596585
O13   O     O_R   0.408940 0.908800 0.620260 -0.594517
O14   O     O_R   0.408940 0.908800 0.379740 -0.555097
O15   O     O_R   0.408940 0.091200 0.620260 -0.556319
O16   O     O_R   0.408940 0.091200 0.379740 -0.596350
Cl1   Cl    Cl    0.712927 0.412550 0.697478 -0.629286
Cl2   Cl    Cl    0.915288 0.215329 0.311570 -0.668065
Cl3   Cl    Cl    0.918066 0.786807 0.680660 -0.666321
Cl4   Cl    Cl    0.710090 0.584665 0.309809 -0.633095
Cl5   Cl    Cl    0.212606 0.912839 0.696684 -0.629483
Cl6   Cl    Cl    0.415569 0.715101 0.312345 -0.668009
Cl7   Cl    Cl    0.417881 0.286685 0.681132 -0.666346
Cl8   Cl    Cl    0.210310 0.084803 0.309300 -0.632793

loop_
_geom_bond_atom_site_label_1
_geom_bond_atom_site_label_2
_ccdc_geom_bond_type
C16   C28   S    
C41   H33   S    
Cu3   Cu4   S    
C14   Cl2   S    
C31   H29   S    
C29   C33   S    
C3    O6    A    
C51   N3    S    
C7    H61   S    
C17   Cl5   S    
Cu1   O11   S    
C52   H56   S    
C13   C25   S    
C14   C33   S    
C8    H62   S    
C7    C8    S    
C4    O8    A    
C45   C46   S    
C29   H25   S    
Cu2   O2    S    
C26   H22   S    
Cu3   O15   S    
C37   C41   S    
C25   H21   S    
C32   C36   S    
C16   Cl4   S    
C11   O14   A    
C1    O1    A    
C38   C42   S    
C27   H23   S    
C19   C36   S    
C49   H45   S    
C5    C6    S    
Cu4   O16   S    
C26   C39   S    
C47   N1    S    
C13   H1    S    
C28   C40   S    
C51   H47   S    
Cu2   O10   S    
C21   H17   S    
C50   H54   S    
C43   H38   S    
C47   H43   S    
C42   H35   S    
C16   H4    S    
C23   H11   S    
C30   H27   S    
C6    H58   S    
Cu1   O3    S    
C17   H5    S    
C21   H9    S    
C22   H10   S    
C20   C24   S    
C19   H7    S    
Cu3   O5    S    
C24   C38   S    
C12   O16   A    
C22   C37   S    
C13   Cl1   S    
C12   C36   S    
C18   C35   S    
C15   C34   S    
C16   C34   S    
C2    O3    A    
C41   H34   S    
C46   H42   S    
C31   H30   S    
C18   C22   S    
C5    H59   S    
C9    C33   S    
C30   C44   S    
C28   H16   S    
C14   H2    S    
C45   H49   S    
C4    O7    A    
C48   H44   S    
C30   C34   S    
C51   C52   S    
Cu4   N3    S    
C7    H63   S    
C22   H18   S    
Cu1   O9    S    
C1    O2    A    
C23   H19   S    
C8    N4    S    
C39   C43   S    
Cu4   O6    S    
C45   N1    S    
Cu1   Cu2   S    
C32   H31   S    
Cu2   O4    S    
C19   Cl7   S    
C20   H8    S    
C19   C23   S    
C13   C33   S    
C44   H40   S    
Cu4   O14   S    
C15   C27   S    
C47   C48   S    
C4    C39   S    
C27   C40   S    
C10   O12   A    
Cu2   O12   S    
C20   Cl8   S    
C12   O15   A    
C50   N4    S    
C10   C34   S    
C14   C26   S    
C6    H60   S    
Cu4   O8    S    
Cu1   O1    S    
C1    C38   S    
C15   Cl3   S    
C29   C43   S    
Cu2   N1    S    
C3    C40   S    
C50   H46   S    
Cu3   O7    S    
C26   H14   S    
C31   C35   S    
C25   H13   S    
C6    N2    S    
C27   H15   S    
C8    H64   S    
C49   H53   S    
C9    O9    A    
Cu3   N4    S    
C52   H48   S    
C5    N1    S    
C51   H55   S    
C31   C41   S    
C5    H57   S    
C3    O5    A    
C15   H3    S    
C24   H20   S    
C7    N3    S    
C18   Cl6   S    
C23   C38   S    
C47   H51   S    
Cu3   O13   S    
Cu1   N2    S    
C11   C35   S    
C11   O13   A    
C10   O11   A    
C44   H39   S    
C45   H41   S    
C9    O10   A    
C48   N2    S    
C52   N4    S    
C2    C37   S    
C48   H52   S    
C46   H50   S    
C43   H37   S    
C42   H36   S    
C30   H28   S    
C28   H24   S    
C17   C21   S    
C24   H12   S    
C20   C36   S    
C40   C44   S    
C21   C37   S    
C29   H26   S    
C49   N3    S    
C49   C50   S    
C32   C42   S    
C46   N2    S    
C18   H6    S    
C17   C35   S    
C25   C39   S    
C2    O4    A    
C32   H32   S    
