data_mof_unit_43214.cif
_audit_creation_date              2012-10-26T20:32:59-0400
_audit_creation_method            fapswitch 2.2
_symmetry_space_group_name_H-M    P1
_symmetry_Int_Tables_number       1
_space_group_crystal_system       triclinic
_cell_length_a                    27.816754
_cell_length_b                    10.809881
_cell_length_c                    9.541022
_cell_angle_alpha                 90.009159
_cell_angle_beta                  90.167013
_cell_angle_gamma                 90.147302
_cell_volume                      2868.92353855

loop_
_atom_site_label
_atom_site_type_symbol
_atom_type_description
_atom_site_fract_x
_atom_site_fract_y
_atom_site_fract_z
_atom_type_partial_charge
C1    C     C_R   0.499046 0.262297 0.499958 0.548509
C2    C     C_R   0.974374 0.386568 0.483305 0.018958
C3    C     C_R   0.974705 0.614361 0.505129 0.019003
C4    C     C_R   0.407462 0.499873 0.499783 0.549555
C5    C     C_R   0.949291 0.500535 0.494111 0.034068
C6    C     C_R   0.947253 0.275576 0.479931 -0.139889
C7    C     C_R   0.897340 0.276848 0.481938 -0.110687
C8    C     C_R   0.872365 0.388554 0.487769 0.025548
C9    C     C_R   0.898159 0.500673 0.494024 -0.027045
C10   C     C_R   0.872689 0.612926 0.500326 0.024850
C11   C     C_R   0.822213 0.611031 0.499885 0.399639
C12   C     C_R   0.278796 0.511969 0.624528 -0.055859
C13   C     C_R   0.821897 0.390680 0.488906 0.397664
C14   C     C_R   0.720511 0.459736 0.378588 -0.050108
C15   C     C_R   0.670388 0.459402 0.380053 -0.125750
C16   C     C_R   0.498968 0.737687 0.499942 0.560510
C17   C     C_R   0.671452 0.542105 0.616224 -0.145035
C18   C     C_R   0.721570 0.542222 0.614746 -0.054655
C19   C     C_R   0.746312 0.500970 0.495995 0.237959
C20   C     C_R   0.025440 0.387024 0.477414 0.018843
C21   C     C_R   0.050851 0.500223 0.495002 0.034187
C22   C     C_R   0.025768 0.613596 0.511950 0.018810
C23   C     C_R   0.253663 0.499481 0.497988 0.244042
C24   C     C_R   0.052245 0.277889 0.453535 -0.140336
C25   C     C_R   0.102795 0.720867 0.538999 -0.111262
C26   C     C_R   0.947907 0.725514 0.508012 -0.139752
C27   C     C_R   0.897987 0.724512 0.505869 -0.110744
C28   C     C_R   0.592511 0.500213 0.500020 0.559308
C29   C     C_R   0.052881 0.722562 0.536416 -0.140273
C30   C     C_R   0.494724 0.063589 0.625789 0.025005
C31   C     C_R   0.494008 0.129202 0.499896 0.011770
C32   C     C_R   0.485920 0.064394 0.374148 -0.161259
C33   C     C_R   0.485648 0.935394 0.374294 -0.157226
C34   C     C_R   0.101980 0.500037 0.495714 -0.027058
C35   C     C_R   0.493806 0.870701 0.499919 0.014903
C36   C     C_R   0.494677 0.936399 0.625696 0.031396
C37   C     C_3   0.529041 0.929680 0.745858 -0.275919
C38   C     C_3   0.529155 0.070181 0.746068 -0.269428
C39   C     C_R   0.525164 0.587994 0.074375 0.167719
C40   C     C_R   0.177929 0.391120 0.475295 0.398493
C41   C     C_R   0.471672 0.420745 0.074150 -0.024731
C42   C     C_R   0.471626 0.420844 0.925261 -0.014254
C43   C     C_R   0.525518 0.587348 0.926453 0.103681
C44   C     C_3   0.578580 0.607753 0.919747 -0.249325
C45   C     C_R   0.127455 0.389215 0.474470 0.024552
C46   C     C_3   0.578434 0.607902 0.079432 0.155560
C47   C     C_R   0.178235 0.608369 0.518490 0.398902
C48   C     C_R   0.278886 0.486963 0.372088 -0.055586
C49   C     C_R   0.329014 0.487320 0.372493 -0.141517
C50   C     C_R   0.328929 0.511737 0.625355 -0.141522
C51   C     C_3   0.572719 0.828484 0.100232 -0.095476
C52   C     C_R   0.102167 0.279220 0.452349 -0.111401
C53   C     C_R   0.127769 0.610667 0.517717 0.024394
C54   C     C_R   0.354513 0.499639 0.499225 0.005968
C55   C     C_R   0.645410 0.500324 0.499110 0.013435
Cu1   Cu    Cu3+1 0.500000 0.499980 0.640670 0.941335
Cu2   Cu    Cu3+1 0.500000 0.500020 0.359330 0.962121
H1    H     H_    0.347591 0.521487 0.724536 0.131696
H2    H     H_    0.481311 0.887050 0.275709 0.131024
H3    H     H_    0.512013 0.889000 0.840442 0.129396
H4    H     H_    0.259413 0.521510 0.722181 0.129114
H5    H     H_    0.564228 0.888818 0.716230 0.137949
H6    H     H_    0.512406 0.110530 0.841293 0.133348
H7    H     H_    0.564410 0.111128 0.716421 0.147213
H8    H     H_    0.449483 0.354875 0.129841 0.116665
H9    H     H_    0.449392 0.355077 0.869167 0.120418
H10   H     H_    0.597510 0.525709 0.877166 0.117672
H11   H     H_    0.588115 0.696113 0.867901 0.121183
H12   H     H_    0.259576 0.477407 0.273954 0.128876
H13   H     H_    0.597350 0.525759 0.122218 0.135185
H14   H     H_    0.120907 0.193019 0.433861 0.167754
H15   H     H_    0.651236 0.425833 0.288714 0.117481
H16   H     H_    0.739355 0.427973 0.286235 0.134872
H17   H     H_    0.878361 0.189218 0.479041 0.167730
H18   H     H_    0.963414 0.185225 0.478528 0.106335
H19   H     H_    0.035825 0.189513 0.432577 0.107882
H20   H     H_    0.347738 0.477571 0.273759 0.128917
H21   H     H_    0.533539 0.820031 0.080428 0.089804
H22   H     H_    0.591595 0.862993 0.005710 0.115751
H23   H     H_    0.121777 0.806937 0.557975 0.168033
H24   H     H_    0.577252 0.900157 0.182452 0.150153
H25   H     H_    0.964333 0.815772 0.509289 0.106265
H26   H     H_    0.653226 0.576522 0.707956 0.116505
H27   H     H_    0.879258 0.812244 0.508640 0.167354
H28   H     H_    0.741241 0.574447 0.705862 0.136741
H29   H     H_    0.036708 0.811063 0.556891 0.107973
H30   H     H_    0.482034 0.112605 0.275259 0.127830
N1    N     N_R   0.202147 0.499648 0.497294 -0.399443
N2    N     N_R   0.797913 0.500905 0.494718 -0.398719
N3    N     N_R   0.500300 0.500930 0.147930 -0.253852
N4    N     N_R   0.500310 0.500890 0.852020 -0.233990
O1    O     O_R   0.500000 0.319640 0.618810 -0.503409
O2    O     O_R   0.569730 0.499960 0.618810 -0.509984
O3    O     O_R   0.569740 0.500000 0.381220 -0.487821
O4    O     O_2   0.202644 0.285327 0.455264 -0.489341
O5    O     O_3   0.594118 0.717831 0.148999 -0.537303
O6    O     O_2   0.796972 0.283419 0.485461 -0.492559
O7    O     O_2   0.203249 0.713978 0.539261 -0.488186
O8    O     O_2   0.797586 0.718402 0.503635 -0.487470
O9    O     O_R   0.500010 0.319680 0.381230 -0.516129
O10   O     O_R   0.430260 0.500000 0.618780 -0.504557
O11   O     O_R   0.430270 0.500040 0.381190 -0.506969
O12   O     O_R   0.499990 0.680320 0.618770 -0.497526
O13   O     O_R   0.500000 0.680360 0.381190 -0.484449

loop_
_geom_bond_atom_site_label_1
_geom_bond_atom_site_label_2
_ccdc_geom_bond_type
C10   C27   A    
C24   C52   A    
C8    C13   A    
C22   C29   A    
C25   H23   S    
C41   C42   A    
C35   C36   A    
C48   H12   S    
C37   H5    S    
C6    H18   S    
C15   H15   S    
C12   C23   A    
C26   C27   A    
C50   C54   A    
C47   O7    S    
C11   O8    S    
C36   C37   S    
C25   C53   A    
Cu1   O10   S    
C18   C19   A    
C16   C35   S    
C30   C31   A    
C49   C54   A    
C1    C31   S    
Cu1   Cu2   S    
C30   C38   S    
C28   O3    A    
C42   N4    A    
C16   O13   A    
Cu1   N4    S    
C20   C24   A    
C8    C9    A    
C4    O11   A    
C9    C10   A    
C17   C55   A    
C39   N3    A    
C51   O5    S    
C47   C53   A    
C4    C54   S    
C41   N3    A    
C33   H2    S    
C21   C22   A    
C2    C6    A    
C1    O9    A    
C28   C55   S    
C44   C46   S    
C7    H17   S    
C38   H7    S    
C25   C29   A    
C40   C45   A    
Cu1   O2    S    
C18   H28   S    
Cu2   N3    S    
C2    C20   A    
C50   H1    S    
C14   H16   S    
C7    C8    A    
C24   H19   S    
C39   C43   A    
C21   C34   A    
C45   C52   A    
Cu2   O9    S    
C43   N4    A    
C28   O2    A    
C17   H26   S    
C15   C55   A    
C43   C44   S    
C5    C9    A    
C37   C38   S    
C19   N2    S    
C11   N2    A    
C16   O12   A    
C12   C50   A    
C31   C32   A    
C4    O10   A    
C17   C18   A    
C34   C45   A    
Cu2   O11   S    
C29   H29   S    
C39   C46   S    
C48   C49   A    
C1    O1    A    
Cu2   O3    S    
C44   H11   S    
C2    C5    A    
C40   O4    S    
C38   H6    S    
Cu2   O13   S    
C51   H24   S    
C27   H27   S    
C23   C48   A    
C13   N2    A    
C14   C19   A    
C3    C26   A    
Cu1   O12   S    
C3    C22   A    
C3    C5    A    
C41   H8    S    
C6    C7    A    
C30   C36   A    
C23   N1    S    
C47   N1    A    
C40   N1    A    
C51   H21   S    
C52   H14   S    
C32   C33   A    
C12   H4    S    
C32   H30   S    
C33   C35   A    
C49   H20   S    
C13   O6    S    
C51   H22   S    
C46   H13   S    
C37   H3    S    
C10   C11   A    
Cu1   O1    S    
C46   O5    S    
C20   C21   A    
C34   C53   A    
C26   H25   S    
C42   H9    S    
C14   C15   A    
C44   H10   S    
