data_mof_unit_55843.cif
_audit_creation_date              2012-12-11T14:03:53-0500
_audit_creation_method            fapswitch 2.2
_symmetry_space_group_name_H-M    P1
_symmetry_Int_Tables_number       1
_space_group_crystal_system       triclinic
_cell_length_a                    19.211587
_cell_length_b                    10.98975
_cell_length_c                    18.931591
_cell_angle_alpha                 89.87354
_cell_angle_beta                  89.407525
_cell_angle_gamma                 89.877694
_cell_volume                      3996.80465144

loop_
_atom_site_label
_atom_site_type_symbol
_atom_type_description
_atom_site_fract_x
_atom_site_fract_y
_atom_site_fract_z
_atom_type_partial_charge
C1    C     C_R   0.239611 0.468433 0.646583 0.541416
C2    C     C_R   0.759703 0.466735 0.352866 0.545907
C3    C     C_R   0.739610 0.968436 0.646582 0.541414
C4    C     C_R   0.259703 0.966735 0.352866 0.545947
C5    C     C_2   0.274122 0.817691 0.531881 -0.150179
C6    C     C_2   0.721445 0.824288 0.466944 -0.156624
C7    C     C_2   0.774120 0.317690 0.531881 -0.150179
C8    C     C_2   0.221440 0.324289 0.466945 -0.156621
C9    C     C_R   0.950688 0.667508 0.437329 -0.028282
C10   C     C_R   0.002885 0.669939 0.574324 -0.018734
C11   C     C_R   0.450691 0.167514 0.437329 -0.028261
C12   C     C_R   0.502880 0.169939 0.574328 -0.018732
C13   C     C_R   0.945082 0.902147 0.443162 0.301416
C14   C     C_R   0.957234 0.889445 0.588244 0.263105
C15   C     C_R   0.445120 0.402162 0.443158 0.301400
C16   C     C_R   0.457232 0.389448 0.588245 0.263100
C17   C     C_R   0.920336 0.996408 0.484977 -0.175879
C18   C     C_R   0.928232 0.991442 0.556538 -0.163569
C19   C     C_R   0.420376 0.496427 0.484970 -0.175892
C20   C     C_R   0.428250 0.491455 0.556533 -0.163556
C21   C     C_R   0.971739 0.780476 0.547605 -0.035551
C22   C     C_R   0.956526 0.783412 0.473756 -0.037450
C23   C     C_R   0.471739 0.280480 0.547606 -0.035548
C24   C     C_R   0.456538 0.283421 0.473754 -0.037418
C25   C     C_R   0.006845 0.565076 0.530995 0.004448
C26   C     C_R   0.962742 0.558937 0.474884 -0.001889
C27   C     C_R   0.506839 0.065079 0.530999 0.004448
C28   C     C_R   0.462736 0.058943 0.474888 -0.001908
C29   C     C_R   0.051338 0.463311 0.541934 -0.065376
C30   C     C_R   0.941251 0.442522 0.452587 -0.076245
C31   C     C_R   0.551343 0.963325 0.541928 -0.065372
C32   C     C_R   0.441253 0.942529 0.452585 -0.076251
C33   C     C_R   0.035389 0.349685 0.513711 -0.113828
C34   C     C_R   0.977450 0.338450 0.471722 -0.120926
C35   C     C_R   0.535418 0.849712 0.513675 -0.113824
C36   C     C_R   0.477480 0.838472 0.471686 -0.120913
C37   C     C_2   0.255751 0.929217 0.916031 0.254824
C38   C     C_2   0.742270 0.931918 0.084898 0.252476
C39   C     C_2   0.755752 0.429219 0.916030 0.254823
C40   C     C_2   0.242269 0.431919 0.084898 0.252469
C41   C     C_2   0.281583 0.008760 0.067150 -0.131501
C42   C     C_2   0.717103 0.011863 0.933152 -0.130282
C43   C     C_2   0.781584 0.508760 0.067150 -0.131497
C44   C     C_2   0.217103 0.511870 0.933153 -0.130274
C45   C     C_R   0.226345 0.871718 0.646655 0.548232
C46   C     C_R   0.773179 0.872460 0.352864 0.541040
C47   C     C_R   0.726345 0.371718 0.646655 0.548230
C48   C     C_R   0.273181 0.372458 0.352865 0.541040
C49   C     C_2   0.229649 0.045714 0.026102 -0.130217
C50   C     C_2   0.768254 0.049981 0.974701 -0.129645
C51   C     C_2   0.729649 0.545714 0.026101 -0.130219
C52   C     C_2   0.268256 0.549973 0.974701 -0.129632
C53   C     C_2   0.222737 0.023323 0.949681 -0.033971
C54   C     C_2   0.773920 0.027929 0.051571 -0.033134
C55   C     C_2   0.722738 0.523325 0.949680 -0.033974
C56   C     C_2   0.273917 0.527932 0.051572 -0.033136
C57   C     C_2   0.047339 0.658713 0.933473 0.266377
C58   C     C_2   0.950625 0.657761 0.066464 0.262680
C59   C     C_2   0.547335 0.158713 0.933472 0.266381
C60   C     C_2   0.450625 0.157761 0.066464 0.262694
C61   C     C_2   0.981686 0.563372 0.034420 -0.155369
C62   C     C_2   0.017286 0.563853 0.966053 -0.157341
C63   C     C_2   0.481686 0.063372 0.034420 -0.155373
C64   C     C_2   0.517282 0.063853 0.966052 -0.157341
C65   C     C_R   0.031239 0.656417 0.644947 0.556627
C66   C     C_R   0.936964 0.652736 0.361487 0.569942
C67   C     C_R   0.531238 0.156418 0.644949 0.556633
C68   C     C_R   0.436966 0.152737 0.361487 0.569941
C69   C     C_R   0.222626 0.523185 0.856615 0.544956
C70   C     C_R   0.777122 0.522713 0.143261 0.544616
C71   C     C_R   0.722626 0.023184 0.856615 0.544955
C72   C     C_R   0.277122 0.022713 0.143261 0.544622
C73   C     C_R   0.228405 0.876853 0.850935 0.546558
C74   C     C_R   0.771027 0.877995 0.149559 0.541407
C75   C     C_R   0.728405 0.376854 0.850935 0.546552
C76   C     C_R   0.271026 0.377996 0.149560 0.541401
C77   C     C_R   0.062854 0.647868 0.857948 0.530458
C78   C     C_R   0.936397 0.647898 0.142287 0.536187
C79   C     C_R   0.562853 0.147868 0.857948 0.530451
C80   C     C_R   0.436397 0.147897 0.142288 0.536174
C81   C     C_2   0.245806 0.903854 0.574422 -0.100984
C82   C     C_2   0.751779 0.907861 0.423924 -0.099147
C83   C     C_2   0.745806 0.403854 0.574422 -0.100977
C84   C     C_2   0.251784 0.407856 0.423928 -0.099159
C85   C     C_2   0.241141 0.909953 0.420107 -0.120622
C86   C     C_2   0.755439 0.915836 0.578096 -0.130359
C87   C     C_2   0.741141 0.409956 0.420108 -0.120622
C88   C     C_2   0.255446 0.415809 0.578102 -0.130379
C89   C     C_2   0.282710 0.834483 0.455207 -0.181271
C90   C     C_2   0.712890 0.842403 0.543573 -0.185682
C91   C     C_2   0.782709 0.334481 0.455206 -0.181273
C92   C     C_2   0.212883 0.342405 0.543573 -0.185666
Cr1   Cr    Cr6+3 0.113970 0.508630 0.747920 0.976089
Cr2   Cr    Cr6+3 0.886030 0.508630 0.252080 0.970398
Cr3   Cr    Cr6+3 0.613970 0.008630 0.747920 0.976094
Cr4   Cr    Cr6+3 0.386030 0.008630 0.252080 0.970394
Cr5   Cr    Cr6+3 0.269200 0.666740 0.749850 0.951338
Cr6   Cr    Cr6+3 0.730800 0.666740 0.250150 0.952503
Cr7   Cr    Cr6+3 0.769200 0.166740 0.749850 0.951326
Cr8   Cr    Cr6+3 0.230800 0.166740 0.250150 0.952511
Cr9   Cr    Cr6+3 0.112300 0.820070 0.749800 1.032284
Cr10  Cr    Cr6+3 0.887700 0.820070 0.250200 1.027505
Cr11  Cr    Cr6+3 0.612300 0.320070 0.749800 1.032296
Cr12  Cr    Cr6+3 0.387700 0.320070 0.250200 1.027537
H1    H     H_    0.324220 0.785870 0.428086 0.124437
H2    H     H_    0.671771 0.795237 0.571905 0.133207
H3    H     H_    0.824215 0.285864 0.428085 0.124432
H4    H     H_    0.171750 0.295270 0.571900 0.133205
H5    H     H_    0.329478 0.971599 0.046534 0.139844
H6    H     H_    0.668995 0.975643 0.953975 0.142081
H7    H     H_    0.829479 0.471602 0.046533 0.139848
H8    H     H_    0.168992 0.475666 0.953978 0.142062
H9    H     H_    0.979603 0.475249 0.059266 0.092802
H10   H     H_    0.020334 0.476048 0.941609 0.093913
H11   H     H_    0.479603 0.975249 0.059267 0.092799
H12   H     H_    0.520330 0.976048 0.941608 0.093914
H13   H     H_    0.291354 0.731136 0.553462 0.153012
H14   H     H_    0.703852 0.737713 0.446116 0.150955
H15   H     H_    0.791350 0.231133 0.553462 0.153001
H16   H     H_    0.203836 0.237723 0.446114 0.150951
H17   H     H_    0.194218 0.944404 0.445716 0.102201
H18   H     H_    0.799935 0.952773 0.551080 0.119052
H19   H     H_    0.694220 0.444412 0.445718 0.102208
H20   H     H_    0.299958 0.452703 0.551094 0.119052
H21   H     H_    0.228806 0.991227 0.553982 0.094924
H22   H     H_    0.768774 0.995630 0.443287 0.097233
H23   H     H_    0.728808 0.491228 0.553982 0.094919
H24   H     H_    0.268789 0.495615 0.443297 0.097252
H25   H     H_    0.903106 0.080244 0.460863 0.115482
H26   H     H_    0.916760 0.072013 0.587508 0.144689
H27   H     H_    0.403158 0.580258 0.460853 0.115498
H28   H     H_    0.416780 0.572029 0.587502 0.144689
H29   H     H_    0.900222 0.432874 0.416007 0.160400
H30   H     H_    0.098099 0.471322 0.572056 0.165172
H31   H     H_    0.400223 0.932879 0.416005 0.160401
H32   H     H_    0.598103 0.971340 0.572051 0.165177
H33   H     H_    0.066625 0.270287 0.524857 0.101263
H34   H     H_    0.963725 0.251581 0.449698 0.095126
H35   H     H_    0.566674 0.770329 0.524795 0.101266
H36   H     H_    0.463783 0.751623 0.449627 0.095117
H37   H     H_    0.185931 0.090165 0.050901 0.157889
H38   H     H_    0.812160 0.094888 0.950100 0.160631
H39   H     H_    0.685931 0.590163 0.050900 0.157889
H40   H     H_    0.312167 0.594856 0.950101 0.160608
O1    O     O_R   0.043230 0.549300 0.667990 -0.535760
O2    O     O_R   0.956770 0.549300 0.332010 -0.520552
O3    O     O_R   0.543230 0.049300 0.667990 -0.535762
O4    O     O_R   0.456770 0.049300 0.332010 -0.520558
O5    O     O_R   0.262920 0.788600 0.824420 -0.511956
O6    O     O_R   0.737080 0.788600 0.175580 -0.509479
O7    O     O_R   0.762920 0.288600 0.824420 -0.511958
O8    O     O_R   0.237080 0.288600 0.175580 -0.509483
O9    O     O_R   0.167530 0.905110 0.830340 -0.550666
O10   O     O_R   0.832470 0.905110 0.169660 -0.542338
O11   O     O_R   0.667530 0.405110 0.830340 -0.550652
O12   O     O_R   0.332470 0.405110 0.169660 -0.542300
O13   O     O_R   0.054010 0.748440 0.822860 -0.491375
O14   O     O_R   0.945990 0.748440 0.177140 -0.488731
O15   O     O_R   0.554010 0.248440 0.822860 -0.491361
O16   O     O_R   0.445990 0.248440 0.177140 -0.488725
O17   O     O_3   0.165160 0.665150 0.749190 -0.288998
O18   O     O_3   0.834840 0.665150 0.250810 -0.309819
O19   O     O_3   0.665160 0.165150 0.749190 -0.288999
O20   O     O_3   0.334840 0.165150 0.250810 -0.309818
O21   O     O_R   0.178620 0.457600 0.674100 -0.497831
O22   O     O_R   0.821380 0.457600 0.325900 -0.520862
O23   O     O_R   0.678620 0.957600 0.674100 -0.497829
O24   O     O_R   0.321380 0.957600 0.325900 -0.520864
O25   O     O_R   0.284680 0.542100 0.669460 -0.550005
O26   O     O_R   0.715320 0.542100 0.330540 -0.537342
O27   O     O_R   0.784680 0.042100 0.669460 -0.550015
O28   O     O_R   0.215320 0.042100 0.330540 -0.537326
O29   O     O_R   0.262860 0.790390 0.676650 -0.503367
O30   O     O_R   0.737140 0.790390 0.323350 -0.508147
O31   O     O_R   0.762860 0.290390 0.676650 -0.503367
O32   O     O_R   0.237140 0.290390 0.323350 -0.508157
O33   O     O_R   0.167460 0.907030 0.670940 -0.492019
O34   O     O_R   0.832540 0.907030 0.329060 -0.480053
O35   O     O_R   0.667460 0.407030 0.670940 -0.492021
O36   O     O_R   0.332540 0.407030 0.329060 -0.480049
O37   O     O_R   0.053950 0.750220 0.675100 -0.426301
O38   O     O_R   0.946050 0.750220 0.324900 -0.435651
O39   O     O_R   0.553950 0.250220 0.675100 -0.426297
O40   O     O_R   0.446050 0.250220 0.324900 -0.435699
O41   O     O_R   0.043300 0.547370 0.827390 -0.569677
O42   O     O_R   0.956700 0.547370 0.172610 -0.557406
O43   O     O_R   0.543300 0.047370 0.827390 -0.569671
O44   O     O_R   0.456700 0.047370 0.172610 -0.557413
O45   O     O_R   0.178690 0.455820 0.821860 -0.514425
O46   O     O_R   0.821310 0.455820 0.178140 -0.514867
O47   O     O_R   0.678690 0.955820 0.821860 -0.514426
O48   O     O_R   0.321310 0.955820 0.178140 -0.514863
O49   O     O_R   0.284750 0.540170 0.828860 -0.561937
O50   O     O_R   0.715250 0.540170 0.171140 -0.549560
O51   O     O_R   0.784750 0.040170 0.828860 -0.561958
O52   O     O_R   0.215250 0.040170 0.171140 -0.549551
C93   C     C_3   0.166357 0.099285 0.914856 -0.417811
H41   H     H_    0.157842 0.186396 0.943235 0.145873
H42   H     H_    0.181097 0.123573 0.859768 0.151320
H43   H     H_    0.116058 0.049777 0.915966 0.155249
C94   C     C_3   0.828611 0.105329 0.087280 -0.416721
H44   H     H_    0.835770 0.193452 0.059353 0.151445
H45   H     H_    0.812915 0.127169 0.142430 0.150371
H46   H     H_    0.879739 0.058023 0.086225 0.162561
C95   C     C_3   0.666358 0.599288 0.914854 -0.417809
H47   H     H_    0.657842 0.686397 0.943235 0.145870
H48   H     H_    0.681101 0.623579 0.859768 0.151320
H49   H     H_    0.616060 0.549778 0.915962 0.155251
C96   C     C_3   0.328605 0.605337 0.087283 -0.416716
H50   H     H_    0.335757 0.693462 0.059357 0.151461
H51   H     H_    0.312908 0.627171 0.142433 0.150367
H52   H     H_    0.379735 0.558039 0.086226 0.162562
O53   O     O_3   0.306673 0.859986 0.949047 -0.615308
C97   C     C_3   0.372484 0.878701 0.915826 -0.000580
H53   H     H_    0.405287 0.926052 0.953913 0.132850
H54   H     H_    0.370837 0.935184 0.866661 0.126432
C98   C     C_3   0.408321 0.757417 0.899402 -0.271240
H55   H     H_    0.413084 0.703154 0.948682 0.147888
H56   H     H_    0.376621 0.706516 0.861120 0.201803
C99   C     C_3   0.481102 0.774818 0.867544 -0.479279
H57   H     H_    0.481461 0.850245 0.828683 0.190215
H58   H     H_    0.498462 0.692652 0.839168 0.127065
H59   H     H_    0.519619 0.789518 0.909764 0.143961
O54   O     O_3   0.692100 0.861832 0.051511 -0.615078
C100  C     C_3   0.626288 0.874664 0.085923 0.002853
H60   H     H_    0.592458 0.923708 0.049310 0.131892
H61   H     H_    0.627548 0.927102 0.136412 0.132277
C101  C     C_3   0.592678 0.750134 0.099639 -0.268354
H62   H     H_    0.587076 0.700792 0.048940 0.146967
H63   H     H_    0.626074 0.696780 0.135399 0.208111
C102  C     C_3   0.520726 0.759172 0.134349 -0.474879
H64   H     H_    0.521085 0.823704 0.179383 0.175689
H65   H     H_    0.504864 0.668417 0.154515 0.131854
H66   H     H_    0.481301 0.786769 0.095164 0.146618
O55   O     O_3   0.806677 0.359992 0.949044 -0.615312
C103  C     C_3   0.872485 0.378710 0.915818 -0.000576
H67   H     H_    0.905289 0.426069 0.953903 0.132853
H68   H     H_    0.870834 0.435188 0.866651 0.126429
C104  C     C_3   0.908324 0.257427 0.899394 -0.271243
H69   H     H_    0.913087 0.203162 0.948674 0.147889
H70   H     H_    0.876625 0.206528 0.861111 0.201798
C105  C     C_3   0.981107 0.274830 0.867537 -0.479275
H71   H     H_    0.981467 0.350270 0.828684 0.190230
H72   H     H_    0.998466 0.192672 0.839152 0.127067
H73   H     H_    0.019625 0.289516 0.909760 0.143960
O56   O     O_3   0.192100 0.361833 0.051511 -0.615073
C106  C     C_3   0.126287 0.374668 0.085920 0.002856
H74   H     H_    0.092459 0.423713 0.049306 0.131894
H75   H     H_    0.127547 0.427106 0.136410 0.132275
C107  C     C_3   0.092675 0.250140 0.099636 -0.268361
H76   H     H_    0.087076 0.200796 0.048937 0.146971
H77   H     H_    0.126070 0.196787 0.135398 0.208082
C108  C     C_3   0.020721 0.259181 0.134342 -0.474882
H78   H     H_    0.021077 0.323722 0.179372 0.175707
H79   H     H_    0.004858 0.168431 0.154514 0.131847
H80   H     H_    0.981298 0.286768 0.095153 0.146615
O57   O     O_3   0.944138 0.769919 0.033814 -0.517392
C109  C     C_3   0.877645 0.782300 0.003741 0.030012
H81   H     H_    0.871696 0.879720 0.990090 0.169859
H82   H     H_    0.835676 0.758011 0.041981 0.127565
C110  C     C_3   0.869820 0.707276 0.936097 -0.291481
H83   H     H_    0.918618 0.704956 0.905193 0.193832
H84   H     H_    0.856793 0.613453 0.951127 0.148031
C111  C     C_3   0.813042 0.756624 0.888744 -0.465182
H85   H     H_    0.765259 0.774798 0.920021 0.197311
H86   H     H_    0.802025 0.690273 0.846199 0.137186
H87   H     H_    0.830389 0.842184 0.863865 0.185118
O58   O     O_3   0.052680 0.771678 0.965134 -0.519415
C112  C     C_3   0.117528 0.783609 0.998766 0.026942
H88   H     H_    0.124777 0.881989 0.008010 0.169169
H89   H     H_    0.161473 0.751469 0.964867 0.123939
C113  C     C_3   0.118665 0.719851 0.070884 -0.276105
H90   H     H_    0.069966 0.738666 0.100367 0.215808
H91   H     H_    0.124532 0.621044 0.062739 0.146204
C114  C     C_3   0.177654 0.763799 0.116761 -0.462650
H92   H     H_    0.225660 0.776808 0.084943 0.190302
H93   H     H_    0.187413 0.697173 0.159730 0.143564
H94   H     H_    0.162122 0.850951 0.141073 0.187523
O59   O     O_3   0.444136 0.269918 0.033815 -0.517382
C115  C     C_3   0.377642 0.282297 0.003744 0.030018
H95   H     H_    0.371691 0.379717 0.990093 0.169856
H96   H     H_    0.335674 0.258007 0.041986 0.127562
C116  C     C_3   0.369816 0.207272 0.936101 -0.291475
H97   H     H_    0.418614 0.204953 0.905195 0.193828
H98   H     H_    0.356790 0.113448 0.951131 0.148029
C117  C     C_3   0.313036 0.256618 0.888748 -0.465182
H99   H     H_    0.265258 0.274809 0.920026 0.197316
H100  H     H_    0.302012 0.190259 0.846211 0.137184
H101  H     H_    0.330385 0.342165 0.863860 0.185116
O60   O     O_3   0.552676 0.271678 0.965132 -0.519413
C118  C     C_3   0.617526 0.283611 0.998760 0.026949
H102  H     H_    0.624775 0.381990 0.008004 0.169166
H103  H     H_    0.661469 0.251472 0.964858 0.123931
C119  C     C_3   0.618669 0.219849 0.070877 -0.276109
H104  H     H_    0.569972 0.238668 0.100366 0.215791
H105  H     H_    0.624532 0.121041 0.062731 0.146213
C120  C     C_3   0.677665 0.263792 0.116746 -0.462684
H106  H     H_    0.725669 0.276779 0.084922 0.190312
H107  H     H_    0.687420 0.197174 0.159721 0.143564
H108  H     H_    0.662144 0.350956 0.141047 0.187513
O61   O     O_3   0.966715 0.936450 0.376298 -0.509436
C121  C     C_3   0.032864 0.992360 0.379432 0.012023
H109  H     H_    0.073625 0.923206 0.391039 0.140191
H110  H     H_    0.034855 0.064022 0.420915 0.096058
C122  C     C_3   0.048459 0.054655 0.308689 -0.250556
H111  H     H_    0.002787 0.110163 0.292670 0.148133
H112  H     H_    0.092999 0.117777 0.314610 0.153304
C123  C     C_3   0.065470 0.962284 0.250960 -0.370409
H113  H     H_    0.110551 0.904884 0.266242 0.161701
H114  H     H_    0.078572 0.010292 0.201042 0.125805
H115  H     H_    0.019896 0.903354 0.241556 0.213840
O62   O     O_3   0.981383 0.910628 0.654908 -0.536277
C124  C     C_3   0.928527 0.898753 0.706375 0.029911
H116  H     H_    0.934127 0.808696 0.732422 0.151151
H117  H     H_    0.875246 0.898538 0.684577 0.126077
C125  C     C_3   0.936515 0.003988 0.758925 -0.259215
H118  H     H_    0.974193 0.072198 0.738012 0.160135
H119  H     H_    0.886994 0.053847 0.763237 0.182115
C126  C     C_3   0.960574 0.962277 0.831941 -0.399222
H120  H     H_    0.945692 0.867643 0.842894 0.171478
H121  H     H_    0.936223 0.017793 0.874119 0.124266
H122  H     H_    0.017977 0.970409 0.835664 0.190818
O63   O     O_3   0.466738 0.436440 0.376285 -0.509463
C127  C     C_3   0.532873 0.492404 0.379391 0.011984
H123  H     H_    0.573650 0.423308 0.391046 0.140192
H124  H     H_    0.534837 0.564146 0.420827 0.096062
C128  C     C_3   0.548459 0.554576 0.308608 -0.250521
H125  H     H_    0.502756 0.609948 0.292531 0.148209
H126  H     H_    0.592954 0.617803 0.314500 0.153240
C129  C     C_3   0.565560 0.462122 0.250953 -0.370572
H127  H     H_    0.610769 0.405051 0.266222 0.161776
H128  H     H_    0.578495 0.510034 0.200966 0.125778
H129  H     H_    0.520100 0.402888 0.241686 0.213959
O64   O     O_3   0.481377 0.410621 0.654911 -0.536291
C130  C     C_3   0.428520 0.398752 0.706377 0.029916
H130  H     H_    0.434118 0.308692 0.732424 0.151137
H131  H     H_    0.375238 0.398537 0.684579 0.126085
C131  C     C_3   0.436518 0.503984 0.758929 -0.259181
H132  H     H_    0.474224 0.572151 0.738029 0.160158
H133  H     H_    0.387012 0.553894 0.763221 0.182083
C132  C     C_3   0.460545 0.462261 0.831951 -0.399244
H134  H     H_    0.445689 0.367613 0.842880 0.171486
H135  H     H_    0.436163 0.517745 0.874124 0.124287
H136  H     H_    0.517938 0.470429 0.835708 0.190753

loop_
_geom_bond_atom_site_label_1
_geom_bond_atom_site_label_2
_ccdc_geom_bond_type
C87   C91   D    
C120  H107  S    
C19   C20   A    
C15   O63   S    
O61   C121  S    
C12   C23   A    
C52   H40   S    
Cr11  O39   S    
C14   C21   A    
C62   H10   S    
C107  H77   S    
Cr7   O51   S    
C100  C101  S    
Cr5   O49   S    
C93   H42   S    
C35   H35   S    
C118  H102  S    
C33   H33   S    
C127  H123  S    
C105  H72   S    
Cr4   O24   S    
C85   H17   S    
C8    C92   S    
C47   C83   S    
C123  H115  S    
C63   H11   S    
C107  C108  S    
C95   H48   S    
C66   O38   A    
C21   C22   A    
C94   H46   S    
C20   H28   S    
C41   C49   D    
C101  H62   S    
Cr6   O18   S    
C9    C26   A    
Cr8   O52   S    
C10   C21   A    
C25   C29   A    
C105  H73   S    
Cr5   O29   S    
C129  H127  S    
C12   C27   A    
C27   C31   A    
O63   C127  S    
Cr10  O38   S    
C7    H15   S    
C28   C32   A    
C86   C90   D    
C130  H131  S    
Cr9   O9    S    
C40   C76   S    
C125  H118  S    
C35   C36   A    
Cr2   O46   S    
C72   O52   A    
C45   O29   A    
Cr1   O17   S    
C16   C20   A    
C69   O49   A    
C44   H8    S    
C112  H89   S    
C67   O3    A    
C18   H26   S    
C70   O46   A    
C108  H79   S    
Cr6   O6    S    
C106  C107  S    
C68   O40   A    
C117  H101  S    
C45   C81   S    
C31   H32   S    
Cr12  O20   S    
C32   H31   S    
C51   H39   S    
C53   C93   S    
C25   C26   A    
C56   C96   S    
C117  H100  S    
C113  C114  S    
C49   C53   S    
C102  H66   S    
C51   C55   S    
C66   O2    A    
C130  H130  S    
C75   O11   A    
C101  C102  S    
C5    C89   S    
C84   H24   S    
C7    C83   D    
C126  H121  S    
C29   C33   A    
Cr8   O28   S    
C88   H20   S    
Cr10  O14   S    
C3    O23   A    
Cr8   O8    S    
C125  C126  S    
C32   C36   A    
C118  H103  S    
C127  C128  S    
C110  H83   S    
C97   H54   S    
C124  H117  S    
O62   C124  S    
C74   O10   A    
O57   C109  S    
C46   C82   S    
C92   H4    S    
C75   O7    A    
C111  H85   S    
C122  H112  S    
C60   O59   S    
C23   C24   A    
C39   C75   S    
C68   O4    A    
C37   C53   D    
C44   C52   D    
C41   H5    S    
C116  C117  S    
C94   H45   S    
C43   H7    S    
C99   H57   S    
C123  H114  S    
C96   H50   S    
C16   O64   S    
C132  H135  S    
C121  H110  S    
C30   C34   A    
C114  H94   S    
Cr3   O3    S    
C115  H95   S    
C128  H126  S    
O64   C130  S    
C113  H90   S    
C98   H55   S    
C6    C90   S    
C34   H34   S    
Cr4   O20   S    
C14   O62   S    
Cr8   O32   S    
C71   O51   A    
O59   C115  S    
C46   O30   A    
C17   C18   A    
C80   O44   A    
C2    C87   S    
C104  H70   S    
C67   O39   A    
C42   C50   D    
C78   O42   A    
C10   C25   A    
C15   C24   A    
C26   C30   A    
C16   C23   A    
C131  H133  S    
Cr10  O34   S    
Cr7   O19   S    
C48   O36   A    
Cr9   O37   S    
C11   C68   S    
C38   C74   S    
C2    O22   A    
O56   C106  S    
C60   C80   S    
C4    O28   A    
C81   H21   S    
Cr2   O42   S    
C83   H23   S    
Cr3   O23   S    
C108  H80   S    
Cr1   O45   S    
C131  C132  S    
Cr5   O17   S    
C103  C104  S    
C13   C17   A    
Cr4   O48   S    
C109  H81   S    
C42   H6    S    
C87   H19   S    
C58   C61   D    
C111  H87   S    
C100  H61   S    
C61   C62   S    
C63   C64   S    
Cr6   O26   S    
Cr7   O31   S    
C127  H124  S    
C89   H1    S    
C116  H97   S    
Cr5   O5    S    
C71   O47   A    
C72   O48   A    
C99   H59   S    
C47   O31   A    
C50   H38   S    
C48   O32   A    
Cr2   O2    S    
C64   H12   S    
C104  H69   S    
C115  C116  S    
O54   C100  S    
Cr2   O22   S    
C101  H63   S    
Cr3   O43   S    
O53   C97   S    
C98   C99   S    
C15   C19   A    
C50   C54   S    
C129  H128  S    
C100  H60   S    
C79   O15   A    
C119  H104  S    
C80   O16   A    
C76   O8    A    
C96   H52   S    
Cr6   O50   S    
C125  H119  S    
O60   C118  S    
C120  H106  S    
C38   O54   S    
C46   O34   A    
C82   H22   S    
C39   C55   D    
C57   O58   S    
C40   C56   D    
C129  H129  S    
C49   H37   S    
C86   H18   S    
O55   C103  S    
Cr10  O10   S    
C70   O50   A    
C1    C88   S    
C29   H30   S    
Cr9   O13   S    
C112  H88   S    
C3    C86   S    
Cr12  O16   S    
Cr4   O4    S    
C37   O53   S    
C106  H75   S    
C55   C95   S    
C57   C77   S    
C90   H2    S    
C119  C120  S    
C59   C79   S    
C85   C89   D    
C107  H76   S    
C132  H134  S    
C76   O12   A    
C93   H43   S    
C91   H3    S    
C110  C111  S    
C5    C81   D    
C38   C54   D    
Cr10  O18   S    
C7    C91   S    
C105  H71   S    
C44   C69   S    
Cr8   O20   S    
C2    O26   A    
Cr11  O11   S    
Cr12  O40   S    
C30   H29   S    
C31   C35   A    
C54   C94   S    
C73   O5    A    
C8    C84   D    
C14   C18   A    
C130  C131  S    
C40   O56   S    
C128  H125  S    
C43   C51   D    
C124  H116  S    
C108  H78   S    
C11   C28   A    
C42   C71   S    
C103  H68   S    
C13   C22   A    
Cr11  O35   S    
Cr9   O33   S    
C58   C78   S    
C126  H120  S    
C4    O24   A    
O58   C112  S    
C111  H86   S    
C122  H111  S    
C112  C113  S    
Cr1   O41   S    
C119  H105  S    
C6    C82   D    
C116  H98   S    
C77   O41   A    
C94   H44   S    
Cr4   O44   S    
C3    O27   A    
C99   H58   S    
C57   C62   D    
C59   O60   S    
C65   O37   A    
C95   H47   S    
C103  H67   S    
C121  C122  S    
C59   C64   D    
C79   O43   A    
C60   C63   D    
C114  H93   S    
C115  H96   S    
Cr3   O19   S    
C117  H99   S    
Cr6   O30   S    
C9    C22   A    
Cr7   O27   S    
C11   C24   A    
Cr5   O25   S    
C9    C66   S    
C47   O35   A    
C88   C92   D    
C95   H49   S    
Cr1   O1    S    
Cr2   O18   S    
C45   O33   A    
C126  H122  S    
Cr1   O21   S    
C13   O61   S    
C93   H41   S    
C10   C65   S    
C78   O14   A    
C19   H27   S    
C12   C67   S    
C58   O57   S    
C17   H25   S    
C118  C119  S    
C102  H65   S    
C69   O45   A    
C110  H84   S    
C97   H53   S    
C124  C125  S    
C4    C85   S    
Cr7   O7    S    
C48   C84   S    
C5    H13   S    
C109  H82   S    
C1    O21   A    
C122  C123  S    
C33   C34   A    
Cr12  O12   S    
C36   H36   S    
C41   C72   S    
C113  H91   S    
C114  H92   S    
C43   C70   S    
C61   H9    S    
C120  H108  S    
C109  C110  S    
C65   O1    A    
C102  H64   S    
C123  H113  S    
C8    H16   S    
C132  H136  S    
C37   C73   S    
C121  H109  S    
C97   C98   S    
C128  C129  S    
C106  H74   S    
Cr3   O47   S    
C98   H56   S    
Cr11  O19   S    
Cr9   O17   S    
C39   O55   S    
Cr11  O15   S    
Cr12  O36   S    
C1    O25   A    
C96   H51   S    
C104  C105  S    
C131  H132  S    
C73   O9    A    
C27   C28   A    
C74   O6    A    
C6    H14   S    
C52   C56   S    
C77   O13   A    
