data_mof_unit_63699.cif
_audit_creation_date              2012-12-10T21:38:59-0500
_audit_creation_method            fapswitch 2.2
_symmetry_space_group_name_H-M    P1
_symmetry_Int_Tables_number       1
_space_group_crystal_system       triclinic
_cell_length_a                    16.154737
_cell_length_b                    16.889981
_cell_length_c                    19.190041
_cell_angle_alpha                 90.61109
_cell_angle_beta                  92.839507
_cell_angle_gamma                 87.705519
_cell_volume                      5225.24478775

loop_
_atom_site_label
_atom_site_type_symbol
_atom_type_description
_atom_site_fract_x
_atom_site_fract_y
_atom_site_fract_z
_atom_type_partial_charge
C1    C     C_R   0.488870 0.652463 0.496597 0.982966
C2    C     C_R   0.530370 0.097814 0.506693 0.304039
C3    C     C_R   0.407813 0.859301 0.521188 -0.157622
C4    C     C_R   0.592050 0.140734 0.478437 -0.157508
C5    C     C_R   0.413502 0.777379 0.519930 -0.184020
C6    C     C_R   0.586398 0.222653 0.479819 -0.183888
C7    C     C_R   0.762789 0.463471 0.465178 -0.003487
C8    C     C_R   0.237211 0.536534 0.534816 -0.003491
C9    C     C_R   0.849713 0.466143 0.467446 -0.258763
C10   C     C_R   0.150286 0.533865 0.532546 -0.258774
C11   C     C_R   0.891434 0.517273 0.514977 0.318949
C12   C     C_R   0.511131 0.347538 0.503401 0.983122
C13   C     C_R   0.108565 0.482735 0.485018 0.318998
C14   C     C_R   0.843128 0.565270 0.559582 -0.190177
C15   C     C_R   0.156871 0.434735 0.440416 -0.190152
C16   C     C_R   0.500157 0.500084 0.634362 0.963321
C17   C     C_R   0.499843 0.499924 0.365638 0.963071
C18   C     C_R   0.755349 0.559984 0.555536 0.033965
C19   C     C_R   0.244651 0.440016 0.444466 0.033982
C20   C     C_R   0.445379 0.552479 0.744780 -0.100361
C21   C     C_R   0.554600 0.447597 0.255187 -0.100246
C22   C     C_R   0.442393 0.549158 0.817638 -0.110002
C23   C     C_R   0.480864 0.737753 0.489644 -0.089891
C24   C     C_R   0.557577 0.450962 0.182331 -0.109997
C25   C     C_R   0.494235 0.493302 0.854800 -0.033157
C26   C     C_R   0.505749 0.506855 0.145201 -0.033183
C27   C     C_R   0.550003 0.441049 0.820752 -0.081593
C28   C     C_R   0.450017 0.559119 0.179282 -0.081682
C29   C     C_R   0.554020 0.445826 0.747927 -0.070601
C30   C     C_R   0.446005 0.554288 0.252106 -0.070571
C31   C     C_R   0.500424 0.499994 0.710288 -0.158542
C32   C     C_R   0.499572 0.500069 0.289712 -0.158429
C33   C     C_R   0.502835 0.503557 0.069818 0.384161
C34   C     C_R   0.519139 0.262244 0.510281 -0.089987
C35   C     C_R   0.497133 0.496632 0.930183 0.384016
C36   C     C_2   0.391904 0.611875 0.704909 0.962082
C37   C     C_2   0.608067 0.388167 0.295024 0.961960
C38   C     C_2   0.883127 0.621046 0.610949 0.482906
C39   C     C_2   0.116872 0.378961 0.389051 0.482853
C40   C     C_2   0.705432 0.609922 0.602394 0.928002
C41   C     C_2   0.294568 0.390072 0.397613 0.928002
C42   C     C_2   0.389012 0.607542 0.855527 0.987459
C43   C     C_2   0.610937 0.392585 0.144408 0.987439
C44   C     C_2   0.603583 0.380565 0.860222 0.462662
C45   C     C_R   0.540174 0.780706 0.455377 -0.050298
C46   C     C_2   0.396478 0.619674 0.139862 0.462930
C47   C     C_2   0.611610 0.391641 0.710449 0.913818
C48   C     C_2   0.388437 0.608460 0.289619 0.913509
C49   C     C_2   0.392733 0.256921 0.585321 0.983665
C50   C     C_2   0.607502 0.742983 0.414884 0.983747
C51   C     C_R   0.459909 0.219251 0.544609 -0.050623
C52   C     C_R   0.534168 0.862953 0.458161 -0.181664
C53   C     C_R   0.465883 0.137003 0.541700 -0.181552
C54   C     C_R   0.469559 0.902189 0.492989 0.304132
H1    H     H_    0.116261 0.572015 0.567676 0.212268
H2    H     H_    0.731795 0.423905 0.428712 0.158126
H3    H     H_    0.277560 0.661893 0.686408 0.344132
H4    H     H_    0.722414 0.338141 0.313506 0.344115
H5    H     H_    0.848735 0.646228 0.653508 0.093938
H6    H     H_    0.151268 0.353761 0.346501 0.093935
H7    H     H_    0.658813 0.623495 0.697518 0.352854
H8    H     H_    0.341200 0.376492 0.302496 0.352885
H9    H     H_    0.354036 0.722136 0.870919 0.369832
H10   H     H_    0.645837 0.277991 0.128927 0.369821
H11   H     H_    0.659699 0.355789 0.838552 0.107451
H12   H     H_    0.883738 0.427996 0.432313 0.212277
H13   H     H_    0.340562 0.644653 0.161655 0.107302
H14   H     H_    0.625178 0.298552 0.644888 0.344346
H15   H     H_    0.374904 0.701551 0.355181 0.344335
H16   H     H_    0.275385 0.252273 0.616047 0.357898
H17   H     H_    0.725128 0.747361 0.384761 0.357771
H18   H     H_    0.420631 0.103256 0.567263 0.189154
H19   H     H_    0.579504 0.896652 0.432652 0.188870
H20   H     H_    0.357130 0.889529 0.546796 0.166003
H21   H     H_    0.642652 0.110537 0.452702 0.165972
H22   H     H_    0.366798 0.744999 0.544991 0.191702
H23   H     H_    0.633046 0.255065 0.454717 0.191769
H24   H     H_    0.268205 0.576101 0.571278 0.158136
N1    N     N_R   0.555295 0.539509 0.964861 -0.128452
N2    N     N_2   0.019582 0.478804 0.479079 -0.108170
N3    N     N_R   0.444673 0.460681 0.035139 -0.128279
N4    N     N_R   0.558128 0.542976 0.034018 -0.071634
N5    N     N_R   0.441840 0.457214 0.965983 -0.071480
N6    N     N_2   0.465604 0.984926 0.501464 -0.172535
N7    N     N_2   0.534315 0.015085 0.498167 -0.172581
N8    N     N_R   0.716910 0.509720 0.508510 -0.128543
N9    N     N_R   0.283090 0.490280 0.491490 -0.128528
N10   N     N_2   0.980417 0.521205 0.520915 -0.108190
O1    O     O_R   0.422540 0.612660 0.496960 -0.631633
O2    O     O_R   0.307072 0.619168 0.716139 -0.773484
O3    O     O_2   0.577673 0.345406 0.337116 -0.649081
O4    O     O_R   0.692907 0.380893 0.283801 -0.773469
O5    O     O_2   0.954411 0.640952 0.606104 -0.540250
O6    O     O_2   0.045583 0.359077 0.393886 -0.540275
O7    O     O_2   0.682708 0.676981 0.584852 -0.605638
O8    O     O_R   0.692066 0.583412 0.669490 -0.770278
O9    O     O_2   0.317284 0.323014 0.415159 -0.605839
O10   O     O_R   0.307947 0.416578 0.330520 -0.770231
O11   O     O_2   0.341593 0.584844 0.898147 -0.562206
O12   O     O_R   0.577460 0.387340 0.503040 -0.631711
O13   O     O_R   0.393230 0.688468 0.842170 -0.762626
O14   O     O_2   0.658386 0.415292 0.101817 -0.562270
O15   O     O_R   0.606660 0.311655 0.157700 -0.762618
O16   O     O_2   0.584780 0.355702 0.916573 -0.524687
O17   O     O_2   0.415095 0.644376 0.083410 -0.524776
O18   O     O_2   0.686337 0.400831 0.716119 -0.586267
O19   O     O_R   0.580014 0.331153 0.668045 -0.788631
O20   O     O_2   0.313704 0.599272 0.283974 -0.586144
O21   O     O_R   0.420059 0.668947 0.332011 -0.788742
O22   O     O_2   0.404989 0.316974 0.619813 -0.586253
O23   O     O_R   0.561840 0.618900 0.502420 -0.591298
O24   O     O_R   0.315938 0.221659 0.586214 -0.777838
O25   O     O_2   0.595260 0.683078 0.380190 -0.586270
O26   O     O_R   0.684451 0.778007 0.414462 -0.777520
O27   O     O_R   0.438160 0.381100 0.497580 -0.591116
O28   O     O_R   0.430320 0.496890 0.599130 -0.600790
O29   O     O_R   0.569680 0.503110 0.400870 -0.600850
O30   O     O_R   0.569630 0.503130 0.604590 -0.603416
O31   O     O_R   0.430370 0.496870 0.395410 -0.603382
O32   O     O_2   0.422286 0.654590 0.662778 -0.649016
Zn1   Zn    Zn3+2 0.406980 0.495830 0.496350 1.038342
Zn2   Zn    Zn3+2 0.593020 0.504170 0.503650 1.038269

loop_
_geom_bond_atom_site_label_1
_geom_bond_atom_site_label_2
_ccdc_geom_bond_type
H10   O15   S    
H4    O4    S    
C23   C45   A    
C27   C29   A    
C14   C18   A    
H9    O13   S    
C54   N6    S    
C44   O16   D    
H7    O8    S    
C22   C42   S    
C16   C31   S    
C15   C19   A    
C28   C46   S    
C34   C51   A    
C18   N8    A    
C29   C47   S    
O27   Zn1   S    
C30   C48   S    
C24   C26   A    
C19   N9    A    
C3    C54   A    
C7    N8    A    
C46   O17   D    
C2    N7    S    
O30   Zn2   S    
C3    H20   S    
C18   C40   S    
C9    H12   S    
C4    H21   S    
H8    O10   S    
H15   O21   S    
C27   C44   S    
C49   C51   S    
C22   C25   A    
N8    Zn2   S    
H14   O19   S    
C33   N4    A    
C17   O29   A    
C12   O27   A    
C48   O21   S    
C13   N2    S    
O23   Zn2   S    
C8    H24   S    
C44   H11   S    
C7    H2    S    
C40   O8    S    
C16   O28   A    
N3    N5    A    
C52   C54   A    
O31   Zn1   S    
C21   C32   A    
H3    O2    S    
C37   O3    D    
C24   C43   S    
N6    N7    D    
C4    C6    A    
C52   H19   S    
O28   Zn1   S    
N9    Zn1   S    
C35   N5    A    
C6    H23   S    
C45   C52   A    
C10   C13   A    
C6    C34   A    
H17   O26   S    
C50   O26   S    
C2    C4    A    
O29   Zn2   S    
C39   O6    D    
C16   O30   A    
C14   C38   S    
C26   C33   S    
C5    C23   A    
C11   N10   S    
C47   O18   D    
C10   H1    S    
C9    C11   A    
C15   C39   S    
H16   O24   S    
C25   C35   S    
C49   O24   S    
C8    C10   A    
C20   C22   A    
C1    C23   S    
C47   O19   S    
C13   C15   A    
C41   O9    D    
C40   O7    D    
C12   C34   S    
C42   O13   S    
C36   O2    S    
C7    C9    A    
C1    O1    A    
C37   O4    S    
C3    C5    A    
C2    C53   A    
N1    N4    A    
C25   C27   A    
C26   C28   A    
C8    N9    A    
C50   O25   D    
C5    H22   S    
C28   C30   A    
C43   O14   D    
C46   H13   S    
N2    N10   D    
C42   O11   D    
C1    O23   A    
C30   C32   A    
C48   O20   D    
O1    Zn1   S    
C45   C50   S    
C39   H6    S    
C38   O5    D    
C35   N1    A    
C11   C14   A    
O12   Zn2   S    
C36   O32   D    
C43   O15   S    
C12   O12   A    
C17   O31   A    
C38   H5    S    
C20   C36   S    
C21   C37   S    
C29   C31   A    
C21   C24   A    
C17   C32   S    
C41   O10   S    
C51   C53   A    
C53   H18   S    
C33   N3    A    
C19   C41   S    
C49   O22   D    
C20   C31   A    
