data_mof_unit_16016.cif
_audit_creation_date              2012-10-26T18:44:12-0400
_audit_creation_method            fapswitch 2.2
_symmetry_space_group_name_H-M    P1
_symmetry_Int_Tables_number       1
_space_group_crystal_system       triclinic
_cell_length_a                    19.384179
_cell_length_b                    9.110944
_cell_length_c                    7.758226
_cell_angle_alpha                 89.421981
_cell_angle_beta                  90.000537
_cell_angle_gamma                 89.99989
_cell_volume                      1370.09636785

loop_
_atom_site_label
_atom_site_type_symbol
_atom_type_description
_atom_site_fract_x
_atom_site_fract_y
_atom_site_fract_z
_atom_type_partial_charge
C1    C     C_R   0.500001 0.219879 0.500526 0.540507
C2    C     C_R   0.253144 0.596873 0.386713 -0.009966
C3    C     C_R   0.180328 0.400894 0.607410 0.075843
C4    C     C_R   0.819675 0.599076 0.392586 0.075848
C5    C     C_R   0.819673 0.400904 0.607425 0.075843
C6    C     C_R   0.180323 0.599079 0.392585 0.075845
C7    C     C_R   0.144869 0.499984 0.499999 0.024762
C8    C     C_R   0.855131 0.499987 0.500005 0.024762
C9    C     C_R   0.290071 0.499995 0.499997 -0.001388
C10   C     C_R   0.709929 0.499996 0.500004 -0.001391
C11   C     C_R   0.930450 0.499981 0.500003 0.377596
C12   C     C_R   0.500000 0.780121 0.499474 0.540519
C13   C     C_R   0.069549 0.499979 0.500001 0.377596
C14   C     C_3   0.290389 0.295959 0.733876 -0.249223
C15   C     C_3   0.316189 0.162347 0.636559 -0.416797
C16   C     C_3   0.709619 0.704028 0.266122 -0.249237
C17   C     C_3   0.683835 0.837653 0.363430 -0.416815
C18   C     C_3   0.709615 0.295963 0.733891 -0.249222
C19   C     C_3   0.683829 0.162334 0.636581 -0.416802
C20   C     C_3   0.290379 0.704042 0.266128 -0.249227
C21   C     C_3   0.316154 0.837674 0.363451 -0.416814
C22   C     C_R   0.366776 0.500001 0.499999 0.541782
C23   C     C_R   0.633224 0.499998 0.500001 0.541781
C24   C     C_1   0.500001 0.065294 0.500719 -0.072758
C25   C     C_1   0.500001 0.934706 0.499281 -0.072752
C26   C     C_R   0.253149 0.403111 0.613282 -0.009966
C27   C     C_R   0.746854 0.596871 0.386716 -0.009966
C28   C     C_R   0.746853 0.403117 0.613294 -0.009966
Cu1   Cu    Cu3+1 0.500000 0.500000 0.669080 0.985136
Cu2   Cu    Cu3+1 0.500000 0.500000 0.330920 0.985137
H1    H     H_    0.350686 0.195262 0.528886 0.155537
H2    H     H_    0.667177 0.651782 0.194610 0.177745
H3    H     H_    0.655026 0.088334 0.725527 0.145097
H4    H     H_    0.649331 0.195230 0.528902 0.155528
H5    H     H_    0.728672 0.102054 0.584045 0.171391
H6    H     H_    0.743093 0.257193 0.840234 0.174204
H7    H     H_    0.667173 0.348211 0.805409 0.177737
H8    H     H_    0.350658 0.804784 0.471119 0.155523
H9    H     H_    0.344948 0.911692 0.274508 0.145096
H10   H     H_    0.271306 0.897928 0.416005 0.171405
H11   H     H_    0.332828 0.651811 0.194616 0.177736
H12   H     H_    0.344999 0.088359 0.725503 0.145096
H13   H     H_    0.256902 0.742803 0.159782 0.174208
H14   H     H_    0.271352 0.102049 0.584016 0.171372
H15   H     H_    0.332825 0.348218 0.805408 0.177739
H16   H     H_    0.256910 0.257167 0.840204 0.174206
H17   H     H_    0.655030 0.911649 0.274485 0.145097
H18   H     H_    0.649339 0.804757 0.471111 0.155532
H19   H     H_    0.728677 0.897937 0.415957 0.171395
H20   H     H_    0.743096 0.742800 0.159781 0.174208
I1    I     I_    0.120754 0.241152 0.750649 -0.222457
I2    I     I_    0.879253 0.758799 0.249329 -0.222449
I3    I     I_    0.879249 0.241174 0.750680 -0.222454
I4    I     I_    0.120742 0.758815 0.249352 -0.222440
N1    N     N_1   0.500000 0.500000 0.076820 -0.090495
N2    N     N_1   0.500000 0.500000 0.923180 -0.090495
N3    N     N_R   0.034302 0.558630 0.633650 -0.150958
N4    N     N_R   0.965697 0.441329 0.366354 -0.150957
N5    N     N_R   0.965699 0.558632 0.633651 -0.150957
N6    N     N_R   0.034301 0.441327 0.366353 -0.150957
O1    O     O_R   0.500000 0.288390 0.642760 -0.495947
O2    O     O_R   0.500000 0.711610 0.357240 -0.495945
O3    O     O_R   0.500000 0.711610 0.642760 -0.492669
O4    O     O_R   0.500000 0.288390 0.357240 -0.492669
O5    O     O_R   0.400140 0.500000 0.642830 -0.508666
O6    O     O_R   0.599860 0.500000 0.357170 -0.508670
O7    O     O_R   0.599860 0.500000 0.642830 -0.508668
O8    O     O_R   0.400140 0.500000 0.357170 -0.508670

loop_
_geom_bond_atom_site_label_1
_geom_bond_atom_site_label_2
_ccdc_geom_bond_type
C10   C27   A    
C9    C26   A    
C5    C8    A    
N1    N2    T    
Cu1   O3    S    
C22   O5    A    
C15   H1    S    
C6    C7    A    
Cu2   O8    S    
Cu1   N2    S    
Cu2   O4    S    
C10   C23   S    
C16   H2    S    
C11   N4    A    
C12   O2    A    
Cu2   N1    S    
C21   H9    S    
C17   H18   S    
C12   C25   S    
C4    C8    A    
C20   C21   S    
C16   C27   S    
C20   H11   S    
C14   H16   S    
C13   N6    A    
C19   H5    S    
C14   C26   S    
C22   O8    A    
Cu1   Cu2   S    
C21   H10   S    
C18   H6    S    
C4    I2    S    
C8    C11   S    
C11   N5    A    
C23   O6    A    
C5    I3    S    
Cu2   O6    S    
C18   H7    S    
C16   H20   S    
C15   H14   S    
C6    I4    S    
C14   H15   S    
C3    C7    A    
Cu2   O2    S    
Cu1   O5    S    
C9    C22   S    
N3    N5    A    
C13   N3    A    
Cu1   O1    S    
C2    C20   S    
C5    C28   A    
C1    O4    A    
C17   H17   S    
C7    C13   S    
C4    C27   A    
C18   C28   S    
C24   C25   T    
C1    C24   S    
C10   C28   A    
C19   H3    S    
C23   O7    A    
C12   O3    A    
C3    I1    S    
C14   C15   S    
C18   C19   S    
Cu1   O7    S    
C2    C9    A    
N4    N6    A    
C20   H13   S    
C3    C26   A    
C17   H19   S    
C21   H8    S    
C2    C6    A    
C15   H12   S    
C16   C17   S    
C19   H4    S    
C1    O1    A    
