data_mof_unit_48031.cif
_audit_creation_date              2012-12-10T19:43:22-0500
_audit_creation_method            fapswitch 2.2
_symmetry_space_group_name_H-M    P1
_symmetry_Int_Tables_number       1
_space_group_crystal_system       triclinic
_cell_length_a                    10.763206
_cell_length_b                    10.839614
_cell_length_c                    9.737781
_cell_angle_alpha                 92.367484
_cell_angle_beta                  89.260719
_cell_angle_gamma                 93.159363
_cell_volume                      1133.33785517

loop_
_atom_site_label
_atom_site_type_symbol
_atom_type_description
_atom_site_fract_x
_atom_site_fract_y
_atom_site_fract_z
_atom_type_partial_charge
C1    C     C_R   0.492049 0.262214 0.496829 0.880243
C2    C     C_R   0.214803 0.852432 0.133533 -0.112365
C3    C     C_R   0.937021 0.552164 0.388877 -0.219772
C4    C     C_R   0.872583 0.495625 0.497465 -0.058757
C5    C     C_R   0.938532 0.462632 0.613880 -0.016433
C6    C     C_R   0.061626 0.509477 0.626817 -0.028977
C7    C     C_R   0.129019 0.524931 0.504260 -0.153023
C8    C     C_R   0.066504 0.568800 0.391444 0.035624
C9    C     C_R   0.881866 0.423224 0.862414 -0.072638
C10   C     C_R   0.821235 0.350509 0.960835 -0.127534
C11   C     C_R   0.758565 0.238733 0.921048 -0.103963
C12   C     C_R   0.263635 0.511324 0.501468 0.897044
C13   C     C_R   0.756905 0.199065 0.782743 -0.123048
C14   C     C_R   0.817361 0.271446 0.683948 -0.122874
C15   C     C_R   0.879744 0.384929 0.722422 0.116290
C16   C     C_R   0.263554 0.090291 0.582675 -0.059790
C17   C     C_R   0.193874 0.032587 0.686712 -0.209900
C18   C     C_R   0.239996 0.934116 0.751687 -0.108076
C19   C     C_R   0.345751 0.880249 0.699940 -0.160869
C20   C     C_R   0.415290 0.935151 0.592391 0.036658
C21   C     C_R   0.387669 0.055368 0.556426 0.062485
C22   C     C_R   0.481288 0.126554 0.486304 -0.088581
C23   C     C_R   0.503601 0.737618 0.503354 0.736198
C24   C     C_R   0.577593 0.066589 0.417940 -0.228534
C25   C     C_R   0.584005 0.939213 0.423526 -0.191513
C26   C     C_R   0.504660 0.872665 0.512127 -0.095576
C27   C     C_R   0.669095 0.661430 0.146782 -0.134891
C28   C     C_R   0.749110 0.743028 0.077743 -0.248859
C29   C     C_R   0.746240 0.745403 0.936320 -0.174362
C30   C     C_R   0.666170 0.663605 0.862236 -0.090985
C31   C     C_R   0.583983 0.577970 0.927745 0.155519
C32   C     C_R   0.583467 0.578605 0.076515 0.159025
C33   C     C_R   0.420134 0.426050 0.071476 0.289189
C34   C     C_R   0.737209 0.495109 0.499018 0.759909
C35   C     C_R   0.412470 0.434648 0.926489 0.002635
C36   C     C_R   0.252675 0.850621 0.269464 -0.090938
C37   C     C_R   0.207823 0.755627 0.352409 -0.138886
C38   C     C_R   0.127851 0.658784 0.298277 0.112027
C39   C     C_R   0.092204 0.660508 0.160571 -0.084738
C40   C     C_R   0.133388 0.758271 0.080408 -0.118314
Cu1   Cu    Cu3+1 0.499990 0.499990 0.640660 0.990055
Cu2   Cu    Cu3+1 0.500010 0.500010 0.359340 0.999898
H1    H     H_    0.246475 0.928208 0.070753 0.152989
H2    H     H_    0.711155 0.182959 0.997376 0.138462
H3    H     H_    0.708241 0.112473 0.751875 0.139242
H4    H     H_    0.814623 0.239552 0.577059 0.128188
H5    H     H_    0.647693 0.118507 0.359832 0.153972
H6    H     H_    0.102413 0.062499 0.715833 0.139926
H7    H     H_    0.188313 0.893911 0.835062 0.139422
H8    H     H_    0.371689 0.797889 0.747524 0.210264
H9    H     H_    0.654024 0.893109 0.362745 0.144663
H10   H     H_    0.313532 0.924984 0.311256 0.153135
H11   H     H_    0.676777 0.668483 0.255417 0.191567
H12   H     H_    0.812510 0.806377 0.134873 0.154851
H13   H     H_    0.805512 0.812380 0.883579 0.163467
H14   H     H_    0.669486 0.673423 0.754070 0.203819
H15   H     H_    0.231873 0.760053 0.459987 0.110493
H16   H     H_    0.028562 0.589065 0.116803 0.144196
H17   H     H_    0.098513 0.762319 0.978681 0.156109
H18   H     H_    0.886004 0.590500 0.307131 0.137212
H19   H     H_    0.926960 0.510332 0.896264 0.154316
H20   H     H_    0.821925 0.381512 0.067979 0.143999
N1    N     N_R   0.501190 0.501210 0.147910 -0.229288
N2    N     N_R   0.501230 0.501290 0.852040 -0.251443
O1    O     O_R   0.499990 0.319640 0.618810 -0.539787
O2    O     O_R   0.500000 0.319660 0.381240 -0.535831
O3    O     O_R   0.319640 0.500000 0.618780 -0.548441
O4    O     O_R   0.319650 0.500020 0.381210 -0.506395
O5    O     O_R   0.500000 0.680340 0.618760 -0.621898
O6    O     O_R   0.500010 0.680360 0.381190 -0.589765
O7    O     O_R   0.680350 0.499980 0.618790 -0.586843
O8    O     O_R   0.680360 0.500000 0.381220 -0.617437
C41   C     C_2   0.194238 0.164542 0.488063 0.834779
O9    O     O_2   0.241941 0.258804 0.444427 -0.531370
O10   O     O_R   0.072571 0.129047 0.447984 -0.734493
H21   H     H_    0.042843 0.044034 0.478183 0.289505
Br1   Br    Br    0.314680 0.301986 0.156466 -0.406394
C42   C     C_2   0.292509 0.391939 0.866440 0.967887
O11   O     O_2   0.196943 0.432887 0.914839 -0.597133
O12   O     O_R   0.285116 0.300351 0.763287 -0.732228
H22   H     H_    0.195608 0.283901 0.733778 0.309439
C43   C     C_2   0.077331 0.619090 0.721158 0.809690
O13   O     O_2   0.176826 0.645097 0.776654 -0.608731
O14   O     O_R   0.980169 0.699529 0.734614 -0.801963
H23   H     H_    0.005259 0.781689 0.781709 0.299246

loop_
_geom_bond_atom_site_label_1
_geom_bond_atom_site_label_2
_ccdc_geom_bond_type
C16   C21   A    
C6    C43   S    
C41   O9    D    
C23   O5    A    
C19   C20   A    
C17   H6    S    
C7    C8    A    
C14   H4    S    
C12   O4    A    
C37   C38   A    
C9    H19   S    
C28   C29   A    
C5    C6    A    
C42   O12   S    
Cu2   O6    S    
C18   C19   A    
Cu1   Cu2   S    
C23   C26   S    
C16   C17   A    
C1    O1    A    
C35   N2    A    
C9    C10   A    
C36   H10   S    
Cu1   O7    S    
C3    H18   S    
C1    C22   S    
C40   H17   S    
C21   C22   A    
Cu2   O4    S    
C41   O10   S    
C23   O6    A    
C10   H20   S    
C8    C38   S    
C1    O2    A    
C7    C12   S    
C12   O3    A    
C4    C34   S    
C16   C41   S    
O14   H23   S    
Cu1   O3    S    
C3    C8    A    
C39   C40   A    
C28   H12   S    
C42   O11   D    
C4    C5    A    
Cu1   O1    S    
C29   H13   S    
C25   C26   A    
C39   H16   S    
C30   H14   S    
O10   H21   S    
C25   H9    S    
C29   C30   A    
C31   C32   A    
C2    H1    S    
C33   N1    A    
Cu2   O8    S    
C17   C18   A    
C11   H2    S    
C24   C25   A    
C43   O14   S    
C22   C24   A    
C3    C4    A    
C34   O8    A    
Cu1   O5    S    
C2    C36   A    
C30   C31   A    
C36   C37   A    
C27   C32   A    
C24   H5    S    
C31   N2    A    
C32   N1    A    
O12   H22   S    
C27   H11   S    
C6    C7    A    
C35   C42   S    
C9    C15   A    
C13   H3    S    
C11   C13   A    
C19   H8    S    
C33   Br1   S    
C38   C39   A    
C20   C26   A    
Cu2   N1    S    
C33   C35   A    
C5    C15   S    
C10   C11   A    
C2    C40   A    
C20   C21   A    
C43   O13   D    
C27   C28   A    
Cu2   O2    S    
C14   C15   A    
Cu1   N2    S    
C13   C14   A    
C34   O7    A    
C37   H15   S    
C18   H7    S    
