data_mof_unit_44993.cif
_audit_creation_date              2013-03-05T15:50:33-0500
_audit_creation_method            fapswitch 2.2
_symmetry_space_group_name_H-M    P1
_symmetry_Int_Tables_number       1
_space_group_crystal_system       triclinic
_cell_length_a                    9.574799
_cell_length_b                    10.868972
_cell_length_c                    13.48422
_cell_angle_alpha                 92.017144
_cell_angle_beta                  72.355607
_cell_angle_gamma                 89.543255
_cell_volume                      1336.17843474

loop_
_atom_site_label
_atom_site_type_symbol
_atom_site_description
_atom_site_fract_x
_atom_site_fract_y
_atom_site_fract_z
_atom_type_partial_charge
O1    O     O_R   0.381190 0.680360 0.500010 -0.596325
O2    O     O_R   0.618760 0.680340 0.500000 -0.583400
C1    C     C_R   0.500481 0.737638 0.494392 0.818791
O3    O     O_R   0.323240 0.499990 0.650990 -0.521208
O4    O     O_R   0.560820 0.499960 0.650980 -0.577698
C2    C     C_R   0.420703 0.496895 0.700434 0.831747
Cu1   Cu    Cu3+1 0.359340 0.500010 0.500010 0.979251
Cu2   Cu    Cu3+1 0.640660 0.499990 0.499990 0.968250
O5    O     O_R   0.381240 0.319660 0.500000 -0.610551
O6    O     O_R   0.618810 0.319640 0.499990 -0.588611
O7    O     O_R   0.439180 0.500040 0.349020 -0.611956
O8    O     O_R   0.676760 0.500010 0.349010 -0.600067
C3    C     C_R   0.496781 0.262911 0.507151 0.765316
C4    C     C_R   0.578692 0.498830 0.300180 0.779608
C5    C     C_R   0.790960 0.410147 0.023966 -0.077736
H1    H     H_    0.843974 0.420821 0.167138 0.158417
H2    H     H_    0.894775 0.365217 0.982732 0.206300
C6    C     C_R   0.624140 0.489338 0.186378 -0.072186
C7    C     C_R   0.236456 0.563537 0.870614 0.255176
C8    C     C_R   0.216335 0.614426 0.970179 -0.253802
C9    C     C_R   0.323137 0.601678 0.019453 0.561894
C10   C     C_R   0.447624 0.523401 0.975041 -0.041069
C11   C     C_R   0.471903 0.474794 0.871771 -0.132509
C12   C     C_R   0.550729 0.493917 0.028272 0.026294
C13   C     C_R   0.683615 0.430431 0.974319 0.005938
C14   C     C_R   0.702924 0.380439 0.874435 0.645307
C15   C     C_R   0.595383 0.397043 0.826290 -0.195221
C16   C     C_R   0.520687 0.516098 0.135738 -0.135059
C17   C     C_R   0.762327 0.441835 0.129218 -0.225894
C18   C     C_R   0.372140 0.504648 0.816155 -0.182125
H3    H     H_    0.412775 0.544682 0.183379 0.220900
H4    H     H_    0.117891 0.668090 0.009086 0.208753
H5    H     H_    0.609716 0.346589 0.753232 0.210828
H6    H     H_    0.728737 0.886797 0.469214 0.168654
C19   C     C_R   0.233982 0.888016 0.488090 -0.209637
H7    H     H_    0.234794 0.802290 0.445307 0.192063
C20   C     C_R   0.099478 0.950501 0.522988 -0.231736
H8    H     H_    0.003127 0.907515 0.512251 0.163369
C21   C     C_R   0.089301 0.067030 0.571369 0.393175
C22   C     C_R   0.217871 0.124043 0.575952 -0.208218
H9    H     H_    0.206863 0.212294 0.617302 0.213427
C23   C     C_R   0.357074 0.065743 0.531780 0.026390
C24   C     C_R   0.362477 0.939764 0.502510 0.109197
C25   C     C_R   0.496012 0.872231 0.489186 -0.109263
C26   C     C_R   0.625158 0.935520 0.482330 -0.176524
H10   H     H_    0.727204 0.108929 0.476264 0.195114
C27   C     C_R   0.623724 0.062617 0.489787 -0.137321
C28   C     C_R   0.491139 0.129014 0.514382 -0.092707
H11   H     H_    0.819784 0.640305 0.616493 0.155308
C29   C     C_R   0.914907 0.336650 0.362464 -0.152500
H12   H     H_    0.807992 0.330856 0.355189 0.191291
C30   C     C_R   0.015509 0.254928 0.296236 -0.215676
H13   H     H_    0.981533 0.192451 0.243948 0.162076
C31   C     C_R   0.159191 0.253608 0.296612 -0.191079
H14   H     H_    0.237731 0.189973 0.244645 0.166365
C32   C     C_R   0.203180 0.334241 0.362984 -0.142298
H15   H     H_    0.316269 0.325613 0.355583 0.196498
C33   C     C_R   0.104070 0.418880 0.432545 0.235287
C34   C     C_R   0.954408 0.419487 0.432351 0.253082
N1    N     N_R   0.852480 0.498790 0.499000 -0.205471
C35   C     C_R   0.898043 0.577106 0.564023 -0.013341
H16   H     H_    0.078917 0.640921 0.615713 0.182094
C36   C     C_R   0.046174 0.577316 0.563764 0.016449
N2    N     N_R   0.148360 0.498710 0.498970 -0.210600
N3    N     N_R   0.949724 0.129318 0.612137 0.137557
O9    O     O_R   0.829403 0.067059 0.638849 -0.362512
O10   O     O_R   0.941783 0.248863 0.621691 -0.311594
F1    F     F_    0.821526 0.307692 0.826215 -0.591676
N4    N     N_R   0.119920 0.576745 0.825149 0.125356
O11   O     O_R   0.048022 0.680970 0.835882 -0.367042
O12   O     O_R   0.065896 0.478989 0.793258 -0.310284
F2    F     F_    0.305561 0.673202 0.106966 -0.680624

loop_
_geom_bond_atom_site_label_1
_geom_bond_atom_site_label_2
_geom_bond_distance
_ccdc_geom_bond_type
Cu2   N1    2.024062 S    
C3    C28   1.462332 S    
C29   C30   1.386848 A    
C24   C25   1.429095 A    
C12   C13   1.419091 A    
C20   H8    1.083241 S    
C11   C15   1.412841 A    
O4    Cu2   1.945800 S    
C19   C24   1.419927 A    
C4    C6    1.462223 S    
C7    C8    1.390946 A    
N3    O10   1.300512 A    
Cu2   O8    1.958979 S    
C13   C14   1.392618 A    
C14   F1    1.356241 S    
C30   C31   1.377227 A    
C22   C23   1.418258 A    
C29   H12   1.059715 S    
C33   C34   1.433739 A    
N4    O12   1.301096 A    
C34   N1    1.379650 A    
C20   C21   1.393038 A    
C6    C17   1.397914 A    
C23   C28   1.420769 A    
C9    C10   1.420712 A    
C8    C9    1.386536 A    
Cu1   O7    1.945801 S    
C21   N3    1.435468 S    
C31   H14   1.083074 S    
C14   C15   1.387360 A    
H16   C36   1.081381 S    
H6    C26   1.083509 S    
C30   H13   1.083028 S    
O3    Cu1   1.958979 S    
C29   C34   1.415457 A    
Cu2   O6    1.973009 S    
C22   H9    1.080352 S    
C19   C20   1.391907 A    
O8    C4    1.299917 A    
C5    C17   1.391487 A    
C10   C12   1.425911 A    
N4    O11   1.301449 A    
C26   C27   1.381190 A    
C33   N2    1.384329 A    
O4    C2    1.305987 A    
C1    C25   1.467939 S    
O7    C4    1.297715 A    
C31   C32   1.387675 A    
Cu1   N2    2.024545 S    
C7    N4    1.435193 S    
O3    C2    1.301816 A    
H11   C35   1.081708 S    
C23   C24   1.407760 A    
C9    F2    1.355773 S    
C36   N2    1.366192 A    
C11   C18   1.423580 A    
Cu1   O5    1.969731 S    
Cu1   Cu2   2.693498 S    
C12   C16   1.400829 A    
C6    C16   1.396952 A    
C32   H15   1.059914 S    
C5    C13   1.406080 A    
C35   C36   1.417295 A    
N3    O9    1.301118 A    
C8    H4    1.083435 S    
O2    Cu2   1.969732 S    
C21   C22   1.399588 A    
C5    H2    1.083409 S    
O5    C3    1.292902 A    
C10   C11   1.422060 A    
O1    Cu1   1.973010 S    
O2    C1    1.311529 A    
C2    C18   1.486085 S    
H1    C17   1.082793 S    
H10   C27   1.083147 S    
C7    C18   1.418458 A    
O6    C3    1.304586 A    
C16   H3    1.074824 S    
C15   H5    1.081142 S    
C25   C26   1.399820 A    
C27   C28   1.398454 A    
C32   C33   1.418573 A    
N1    C35   1.367079 A    
O1    C1    1.288449 A    
C19   H7    1.077207 S    
