data_mof_unit_33693.cif
_audit_creation_date              2012-12-11T15:26:35-0500
_audit_creation_method            fapswitch 2.2
_symmetry_space_group_name_H-M    P1
_symmetry_Int_Tables_number       1
_space_group_crystal_system       triclinic
_cell_length_a                    7.222615
_cell_length_b                    12.125535
_cell_length_c                    29.110424
_cell_angle_alpha                 89.998844
_cell_angle_beta                  89.954963
_cell_angle_gamma                 90.246026
_cell_volume                      2549.41048749

loop_
_atom_site_label
_atom_site_type_symbol
_atom_type_description
_atom_site_fract_x
_atom_site_fract_y
_atom_site_fract_z
_atom_type_partial_charge
O1    O     O_R   0.647170 0.849180 0.201220 -0.540286
O2    O     O_R   0.352830 0.150820 0.798780 -0.540286
O3    O     O_R   0.352830 0.150820 0.701220 -0.540286
O4    O     O_R   0.647170 0.849180 0.298780 -0.540286
O5    O     O_R   0.147170 0.650820 0.298780 -0.542731
O6    O     O_R   0.852830 0.349180 0.701220 -0.542731
O7    O     O_R   0.852830 0.349180 0.798780 -0.542761
O8    O     O_R   0.147170 0.650820 0.201220 -0.542761
O9    O     O_R   0.317430 0.862210 0.298450 -0.540049
O10   O     O_R   0.682570 0.137790 0.701550 -0.540049
O11   O     O_R   0.682570 0.137790 0.798450 -0.540041
O12   O     O_R   0.317430 0.862210 0.201550 -0.540041
O13   O     O_R   0.817430 0.637790 0.201550 -0.537275
O14   O     O_R   0.182570 0.362210 0.798450 -0.537274
O15   O     O_R   0.182570 0.362210 0.701550 -0.537256
O16   O     O_R   0.817430 0.637790 0.298450 -0.537256
H1    H     H_    0.964093 0.224105 0.455270 0.140465
H2    H     H_    0.035907 0.775895 0.544730 0.140465
H3    H     H_    0.028243 0.776137 0.955192 0.140383
H4    H     H_    0.971757 0.223862 0.044808 0.140383
H5    H     H_    0.544842 0.275212 0.045001 0.140552
H6    H     H_    0.455158 0.724788 0.954999 0.140552
H7    H     H_    0.463515 0.724379 0.545030 0.140412
H8    H     H_    0.536485 0.275621 0.454970 0.140412
C1    C     C_R   0.486009 0.887786 0.313355 0.780505
C2    C     C_R   0.513991 0.112214 0.686645 0.780505
C3    C     C_R   0.513881 0.112210 0.813352 0.780553
C4    C     C_R   0.486119 0.887790 0.186648 0.780553
C5    C     C_R   0.985481 0.612168 0.186634 0.780151
C6    C     C_R   0.014519 0.387832 0.813365 0.780151
C7    C     C_R   0.014626 0.387837 0.686632 0.780086
C8    C     C_R   0.985374 0.612163 0.313368 0.780085
H9    H     H_    0.958619 0.260118 0.373757 0.163772
H10   H     H_    0.041381 0.739882 0.626243 0.163772
H11   H     H_    0.033798 0.740107 0.873675 0.163843
H12   H     H_    0.966202 0.259893 0.126325 0.163843
H13   H     H_    0.541243 0.239084 0.126527 0.164138
H14   H     H_    0.458756 0.760916 0.873473 0.164138
H15   H     H_    0.467129 0.760504 0.626555 0.164202
H16   H     H_    0.532871 0.239496 0.373445 0.164202
H17   H     H_    0.985813 0.337751 0.599624 0.125566
H18   H     H_    0.014187 0.662249 0.400376 0.125565
H19   H     H_    0.010571 0.662449 0.099579 0.125423
H20   H     H_    0.989429 0.337551 0.900421 0.125423
H21   H     H_    0.527110 0.162198 0.900540 0.125191
H22   H     H_    0.472890 0.837802 0.099459 0.125191
H23   H     H_    0.476946 0.837569 0.400558 0.125128
H24   H     H_    0.523054 0.162431 0.599442 0.125128
O17   O     O_3   0.480630 0.680630 0.250000 -0.382046
O18   O     O_3   0.519370 0.319370 0.750000 -0.382046
O19   O     O_3   0.980630 0.819370 0.250000 -0.381581
O20   O     O_3   0.019370 0.180630 0.750000 -0.381581
V1    V     V_3+5 0.205800 0.762860 0.250000 1.532917
V2    V     V_3+5 0.794200 0.237140 0.750000 1.532917
V3    V     V_3+5 0.705800 0.737140 0.250000 1.546606
V4    V     V_3+5 0.294200 0.262860 0.750000 1.546606
H25   H     H_    0.975165 0.283314 0.532704 0.127121
H26   H     H_    0.024835 0.716686 0.467296 0.127121
H27   H     H_    0.019181 0.716917 0.032644 0.127145
H28   H     H_    0.980819 0.283083 0.967356 0.127145
H29   H     H_    0.535801 0.216359 0.967506 0.127281
H30   H     H_    0.464199 0.783641 0.032494 0.127281
H31   H     H_    0.470383 0.783320 0.467530 0.127281
H32   H     H_    0.529617 0.216680 0.532470 0.127282
C9    C     C_R   0.991041 0.534004 0.351698 -0.179287
C10   C     C_R   0.008959 0.465996 0.648302 -0.179287
C11   C     C_R   0.008422 0.465951 0.851700 -0.179250
C12   C     C_R   0.991578 0.534049 0.148300 -0.179250
C13   C     C_R   0.495482 0.965726 0.148290 -0.179415
C14   C     C_R   0.504518 0.034274 0.851710 -0.179415
C15   C     C_R   0.505079 0.034270 0.648289 -0.179416
C16   C     C_R   0.494921 0.965730 0.351711 -0.179416
C17   C     C_R   0.971336 0.347714 0.380610 -0.250251
C18   C     C_R   0.028664 0.652286 0.619390 -0.250251
C19   C     C_R   0.023580 0.652411 0.880558 -0.250377
C20   C     C_R   0.976420 0.347589 0.119442 -0.250377
C21   C     C_R   0.526071 0.151667 0.119574 -0.249390
C22   C     C_R   0.473928 0.848333 0.880426 -0.249390
C23   C     C_R   0.479535 0.848068 0.619594 -0.249492
C24   C     C_R   0.520464 0.151932 0.380406 -0.249492
C25   C     C_R   0.974492 0.420799 0.343733 0.670476
C26   C     C_R   0.025508 0.579201 0.656267 0.670476
C27   C     C_R   0.021731 0.579280 0.843694 0.670402
C28   C     C_R   0.978269 0.420720 0.156306 0.670402
C29   C     C_R   0.515013 0.078690 0.156406 0.670659
C30   C     C_R   0.484987 0.921310 0.843593 0.670659
C31   C     C_R   0.489173 0.921116 0.656419 0.670841
C32   C     C_R   0.510827 0.078884 0.343581 0.670841
C33   C     C_R   0.003239 0.574106 0.396696 -0.327827
C34   C     C_R   0.996761 0.425894 0.603304 -0.327827
C35   C     C_R   0.998064 0.425776 0.896717 -0.327785
C36   C     C_R   0.001936 0.574224 0.103283 -0.327785
C37   C     C_R   0.487545 0.925744 0.103225 -0.327879
C38   C     C_R   0.512455 0.074256 0.896775 -0.327879
C39   C     C_R   0.510971 0.074356 0.603217 -0.327898
C40   C     C_R   0.489029 0.925644 0.396783 -0.327898
C41   C     C_R   0.997214 0.501735 0.434945 0.095883
C42   C     C_R   0.002786 0.498265 0.565055 0.095883
C43   C     C_R   0.002496 0.498226 0.934946 0.096050
C44   C     C_R   0.997503 0.501774 0.065054 0.096050
C45   C     C_R   0.499356 0.998066 0.065050 0.095994
C46   C     C_R   0.500644 0.001934 0.934950 0.095994
C47   C     C_R   0.500938 0.001937 0.565050 0.096111
C48   C     C_R   0.499062 0.998063 0.434950 0.096111
C49   C     C_R   0.981855 0.386968 0.425910 0.029049
C50   C     C_R   0.018145 0.613032 0.574090 0.029049
C51   C     C_R   0.014663 0.613107 0.925875 0.028943
C52   C     C_R   0.985337 0.386893 0.074125 0.028943
C53   C     C_R   0.518474 0.112587 0.074209 0.028755
C54   C     C_R   0.481526 0.887413 0.925791 0.028755
C55   C     C_R   0.485336 0.887238 0.574224 0.028602
C56   C     C_R   0.514664 0.112762 0.425776 0.028602
C57   C     C_R   0.004082 0.539235 0.481614 0.074341
C58   C     C_R   0.995918 0.460765 0.518386 0.074341
C59   C     C_R   0.996889 0.460714 0.981626 0.074407
C60   C     C_R   0.003111 0.539286 0.018374 0.074406
C61   C     C_R   0.493403 0.960782 0.018346 0.074265
C62   C     C_R   0.506597 0.039217 0.981654 0.074265
C63   C     C_R   0.505525 0.039277 0.518341 0.074313
C64   C     C_R   0.494475 0.960723 0.481659 0.074313
C65   C     C_R   0.981938 0.347519 0.507252 -0.192254
C66   C     C_R   0.018062 0.652481 0.492748 -0.192254
C67   C     C_R   0.014014 0.652631 0.007210 -0.192348
C68   C     C_R   0.985986 0.347369 0.992790 -0.192348
C69   C     C_R   0.524960 0.152197 0.992897 -0.191992
C70   C     C_R   0.475040 0.847803 0.007102 -0.191992
C71   C     C_R   0.479465 0.847578 0.492914 -0.192118
C72   C     C_R   0.520534 0.152422 0.507085 -0.192118
C73   C     C_R   0.975484 0.311840 0.462026 -0.165788
C74   C     C_R   0.024516 0.688160 0.537974 -0.165788
C75   C     C_R   0.019269 0.688318 0.961973 -0.166064
C76   C     C_R   0.980731 0.311682 0.038027 -0.166064
C77   C     C_R   0.530411 0.187668 0.038160 -0.165882
C78   C     C_R   0.469589 0.812332 0.961840 -0.165882
C79   C     C_R   0.475315 0.812056 0.538181 -0.165996
C80   C     C_R   0.524684 0.187944 0.461818 -0.165996
F1    F     F_    0.039400 0.618819 0.699731 -0.590822
F2    F     F_    0.960600 0.381181 0.300269 -0.590822
F3    F     F_    0.966394 0.381014 0.199798 -0.590936
F4    F     F_    0.033606 0.618986 0.800202 -0.590936
F5    F     F_    0.476338 0.881811 0.800033 -0.590481
F6    F     F_    0.523661 0.118189 0.199967 -0.590481
F7    F     F_    0.517193 0.118505 0.300015 -0.590552
F8    F     F_    0.482807 0.881495 0.699985 -0.590552

loop_
_geom_bond_atom_site_label_1
_geom_bond_atom_site_label_2
_ccdc_geom_bond_type
C7    C10   S    
O14   V4    S    
C11   C27   A    
C60   C67   A    
C4    C13   S    
C44   C60   A    
C19   C27   A    
C20   C28   A    
C23   C31   A    
O4    C1    A    
C64   C71   A    
O9    C1    A    
C10   C34   A    
C9    C33   A    
H11   C19   S    
H6    C78   S    
O8    C5    A    
O5    V1    S    
C14   C38   A    
C56   C80   A    
C26   F1    S    
C13   C37   A    
C72   C80   A    
C43   C59   A    
C42   C58   A    
C10   C26   A    
C45   C53   A    
C59   C60   A    
C68   C76   A    
C47   C55   A    
H5    C77   S    
H28   C68   S    
H12   C20   S    
C58   C65   A    
C9    C25   A    
C57   C66   A    
C28   F3    S    
C39   C47   A    
H32   C72   S    
O1    C4    A    
H23   C40   S    
H16   C24   S    
O2    C3    A    
C62   C69   A    
C31   F8    S    
C61   C70   A    
C32   F7    S    
C6    C11   S    
C46   C62   A    
O5    C8    A    
C41   C49   A    
C63   C72   A    
H8    C80   S    
H17   C34   S    
C21   C29   A    
C20   C52   A    
O7    C6    A    
H3    C75   S    
C2    C15   S    
H4    C76   S    
H21   C38   S    
C17   C25   A    
C27   F4    S    
C16   C32   A    
O20   V2    S    
H27   C67   S    
C25   F2    S    
C44   C52   A    
H26   C66   S    
C53   C77   A    
C12   C28   A    
C19   C51   A    
C51   C75   A    
H24   C39   S    
C37   C45   A    
C48   C56   A    
C49   C73   A    
H14   C22   S    
O17   V3    S    
H13   C21   S    
O18   V4    S    
C33   C41   A    
O19   V1    S    
H15   C23   S    
O8    V1    S    
C18   C50   A    
C5    C12   S    
O3    V4    S    
C17   C49   A    
O11   C3    A    
C69   C77   A    
C24   C56   A    
C11   C35   A    
O10   C2    A    
C22   C54   A    
C1    C16   S    
C21   C53   A    
C3    C14   S    
C70   C78   A    
H20   C35   S    
H10   C18   S    
C15   C31   A    
H9    C17   S    
O12   C4    A    
O6    V2    S    
C40   C48   A    
O4    V3    S    
C46   C54   A    
O9    V1    S    
C41   C57   A    
C14   C30   A    
C13   C29   A    
C36   C44   A    
H30   C70   S    
C57   C58   A    
C18   C26   A    
O13   C5    A    
C50   C74   A    
C65   C73   A    
C59   C68   A    
C67   C75   A    
O3    C2    A    
C47   C63   A    
O12   V1    S    
C71   C79   A    
C29   F6    S    
C63   C64   A    
O15   C7    A    
H7    C79   S    
O16   C8    A    
C43   C51   A    
H19   C36   S    
C42   C50   A    
H2    C74   S    
C23   C55   A    
H18   C33   S    
C45   C61   A    
O15   V4    S    
O1    V3    S    
O16   V3    S    
O14   C6    A    
C24   C32   A    
O2    V4    S    
C61   C62   A    
C55   C79   A    
H22   C37   S    
C12   C36   A    
C34   C42   A    
O6    C7    A    
O10   V2    S    
O13   V3    S    
C52   C76   A    
C54   C78   A    
H25   C65   S    
C16   C40   A    
C15   C39   A    
C38   C46   A    
C22   C30   A    
O11   V2    S    
H29   C69   S    
O7    V2    S    
C35   C43   A    
C66   C74   A    
H1    C73   S    
H31   C71   S    
C30   F5    S    
C8    C9    S    
C48   C64   A    
