data_mof_unit_12531.cif
_audit_creation_date              2013-03-05T15:44:59-0500
_audit_creation_method            fapswitch 2.2
_symmetry_space_group_name_H-M    P1
_symmetry_Int_Tables_number       1
_space_group_crystal_system       triclinic
_cell_length_a                    10.919383
_cell_length_b                    11.015033
_cell_length_c                    18.795608
_cell_angle_alpha                 89.927216
_cell_angle_beta                  89.308033
_cell_angle_gamma                 120.257877
_cell_volume                      1952.49118628

loop_
_atom_site_label
_atom_site_type_symbol
_atom_site_description
_atom_site_fract_x
_atom_site_fract_y
_atom_site_fract_z
_atom_type_partial_charge
O1    O     O_R   0.766500 0.250040 0.579790 -0.527823
O2    O     O_R   0.798570 0.516780 0.574780 -0.503164
C1    C     C_R   0.862367 0.638193 0.602820 0.535316
O3    O     O_R   0.984000 0.732950 0.581090 -0.516640
O4    O     O_R   0.218600 0.700890 0.574760 -0.496206
C2    C     C_R   0.274526 0.632535 0.602914 0.532231
O5    O     O_R   0.249390 0.515350 0.579940 -0.530661
O6    O     O_R   0.982790 0.280900 0.573700 -0.504713
C3    C     C_R   0.858946 0.226340 0.603775 0.532617
O7    O     O_R   0.766600 0.251130 0.419260 -0.523510
O8    O     O_R   0.798660 0.517790 0.425980 -0.520607
C4    C     C_R   0.864126 0.638990 0.398138 0.584297
O9    O     O_R   0.984100 0.734040 0.420570 -0.473174
O10   O     O_R   0.218690 0.701900 0.425960 -0.519117
C5    C     C_R   0.277460 0.638868 0.398180 0.538098
O11   O     O_R   0.249490 0.516440 0.419420 -0.520658
O12   O     O_R   0.982880 0.281910 0.424890 -0.514269
C6    C     C_R   0.865047 0.231359 0.395145 0.570369
Cr1   Cr    Cr6+3 0.791660 0.390250 0.499930 1.019052
Cr2   Cr    Cr6+3 0.098520 0.708290 0.500540 1.037363
Cr3   Cr    Cr6+3 0.109770 0.401430 0.499480 1.007918
O13   O     O_3   0.999980 0.499990 0.499980 -0.251001
C7    C     C_R   0.373264 0.791545 0.706631 -0.155418
H1    H     H_    0.398914 0.881448 0.673662 0.188479
C8    C     C_R   0.383689 0.805152 0.780441 -0.142061
H2    H     H_    0.423110 0.908040 0.803604 0.157046
C9    C     C_R   0.348842 0.686938 0.823203 0.006321
C10   C     C_R   0.307871 0.558156 0.791519 -0.110569
H3    H     H_    0.283667 0.466917 0.823894 0.148664
C11   C     C_R   0.315629 0.548374 0.718794 -0.012434
C12   C     C_R   0.331844 0.661705 0.675234 0.010103
C13   C     C_R   0.867708 0.180679 0.826770 0.016128
C14   C     C_R   0.054793 0.117942 0.809264 -0.119228
C15   C     C_R   0.128437 0.074532 0.764821 -0.102967
C16   C     C_R   0.098920 0.055258 0.692139 0.024348
C17   C     C_R   0.995237 0.079503 0.664586 -0.134830
C18   C     C_R   0.926203 0.131603 0.707883 -0.016742
C19   C     C_R   0.949075 0.142689 0.782160 -0.011263
H4    H     H_    0.210977 0.059530 0.787058 0.149773
H5    H     H_    0.087682 0.139517 0.863990 0.144208
C20   C     C_R   0.749567 0.203284 0.724522 -0.026331
C21   C     C_R   0.789618 0.236632 0.795899 0.021881
C22   C     C_R   0.626146 0.203307 0.702447 -0.069059
C23   C     C_R   0.562053 0.259031 0.745208 -0.118610
C24   C     C_R   0.618976 0.316435 0.810659 -0.150294
C25   C     C_R   0.734094 0.308120 0.836612 0.045532
C26   C     C_R   0.833683 0.171045 0.678105 -0.035273
H6    H     H_    0.971089 0.060425 0.608572 0.123653
H7    H     H_    0.469424 0.259985 0.726675 0.143301
H8    H     H_    0.573978 0.155248 0.653371 0.178071
H9    H     H_    0.572149 0.366266 0.841438 0.114074
C27   C     C_R   0.730590 0.696215 0.692328 -0.148865
H10   H     H_    0.676324 0.717299 0.650473 0.111095
C28   C     C_R   0.709431 0.720044 0.763215 -0.141361
H11   H     H_    0.638629 0.759124 0.775941 0.115748
C29   C     C_R   0.785126 0.699320 0.816895 0.016524
C30   C     C_R   0.877842 0.651439 0.800516 -0.092542
H12   H     H_    0.938181 0.638918 0.842309 0.161684
C31   C     C_R   0.895932 0.622632 0.730870 -0.008439
C32   C     C_R   0.825537 0.649598 0.676031 0.058064
C33   C     C_R   0.407255 0.617871 0.297434 -0.104657
H13   H     H_    0.428063 0.546299 0.327482 0.168935
C34   C     C_R   0.420922 0.620935 0.224496 -0.086897
H14   H     H_    0.458686 0.556402 0.200347 0.174416
C35   C     C_R   0.383958 0.703508 0.183296 -0.005064
C36   C     C_R   0.350039 0.796248 0.216233 -0.117578
H15   H     H_    0.335053 0.869458 0.184141 0.170886
C37   C     C_R   0.339177 0.796976 0.290394 -0.001850
C38   C     C_R   0.352609 0.694240 0.330321 -0.020436
C39   C     C_R   0.721647 0.117861 0.292867 -0.141448
H16   H     H_    0.627368 0.089856 0.324525 0.139686
C40   C     C_R   0.708175 0.101389 0.220707 -0.134139
H17   H     H_    0.602908 0.056440 0.199003 0.155055
C41   C     C_R   0.827411 0.139520 0.177320 -0.001874
C42   C     C_R   0.960111 0.190616 0.206649 -0.117311
H18   H     H_    0.049163 0.212377 0.172028 0.177632
C43   C     C_R   0.977646 0.211341 0.279915 -0.003483
C44   C     C_R   0.855326 0.178056 0.323351 0.020099
C45   C     C_R   0.878199 0.790303 0.297124 0.018934
C46   C     C_R   0.873828 0.800031 0.223990 -0.132216
H19   H     H_    0.925675 0.903686 0.199531 0.138776
C47   C     C_R   0.801002 0.678807 0.182449 0.014160
C48   C     C_R   0.724064 0.547080 0.214873 -0.152705
H20   H     H_    0.662638 0.453468 0.183559 0.142635
C49   C     C_R   0.732150 0.535810 0.288068 -0.154405
H21   H     H_    0.681132 0.431522 0.311608 0.157722
C50   C     C_R   0.815906 0.656733 0.329014 0.035475
O14   O     O_R   0.895110 0.806860 0.920430 -0.509351
O15   O     O_R   0.872260 0.046970 0.925000 -0.524736
C51   C     C_R   0.812326 0.107380 0.896076 0.581994
O16   O     O_R   0.691430 0.085060 0.918550 -0.511813
O17   O     O_R   0.451490 0.822460 0.925250 -0.504253
C52   C     C_R   0.396595 0.701938 0.896257 0.556068
O18   O     O_R   0.413330 0.603360 0.920440 -0.525366
O19   O     O_R   0.676110 0.626250 0.926750 -0.517526
C53   C     C_R   0.773420 0.732236 0.890168 0.550066
O20   O     O_R   0.895350 0.809870 0.080950 -0.508255
O21   O     O_R   0.872490 0.049760 0.073800 -0.508300
C54   C     C_R   0.804258 0.102207 0.103435 0.562209
O22   O     O_R   0.691680 0.088070 0.079070 -0.516194
O23   O     O_R   0.451720 0.825250 0.074050 -0.506783
C55   C     C_R   0.408240 0.708903 0.107166 0.556710
O24   O     O_R   0.413580 0.606370 0.080960 -0.505832
O25   O     O_R   0.676340 0.629040 0.075550 -0.507611
C56   C     C_R   0.794494 0.698602 0.106733 0.560705
Cr4   Cr    Cr6+3 0.874790 0.925890 0.000070 1.023984
Cr5   Cr    Cr6+3 0.574120 0.948670 0.999300 1.023865
Cr6   Cr    Cr6+3 0.551420 0.625320 0.000920 1.015050
O26   O     O_3   0.666780 0.833290 0.000090 -0.281425
C57   C     C_3   0.999111 0.573982 0.715827 -0.357282
H22   H     H_    0.953579 0.483672 0.679079 0.151883
H23   H     H_    0.093033 0.663576 0.691332 0.184671
H24   H     H_    0.031615 0.542140 0.764937 0.140261
C58   C     C_2   0.319011 0.907842 0.324043 0.233330
H25   H     H_    0.344995 0.935125 0.379386 0.127158
O27   O     O_2   0.278028 0.974153 0.289479 -0.534720
C59   C     C_2   0.123313 0.262544 0.307268 0.234544
H26   H     H_    0.142642 0.250698 0.362328 0.166450
O28   O     O_2   0.225243 0.309711 0.266550 -0.539708
C60   C     C_2   0.955926 0.921239 0.337685 0.242429
H27   H     H_    0.053795 0.005607 0.315776 0.150559
O29   O     O_2   0.911290 0.935331 0.395138 -0.527751
C61   C     C_3   0.312908 0.418197 0.691357 -0.356078
H28   H     H_    0.208904 0.346073 0.667948 0.185464
H29   H     H_    0.399908 0.447442 0.651774 0.148727
H30   H     H_    0.329360 0.359691 0.734630 0.101465
C62   C     C_2   0.182837 0.021322 0.642817 0.228704
H31   H     H_    0.158444 0.007373 0.586574 0.129602
O30   O     O_2   0.282832 0.012353 0.663907 -0.583237
C63   C     C_2   0.795382 0.378452 0.905182 0.230955
H32   H     H_    0.735395 0.408502 0.940087 0.127864
O31   O     O_2   0.914854 0.408183 0.922211 -0.522978

loop_
_geom_bond_atom_site_label_1
_geom_bond_atom_site_label_2
_geom_bond_distance
_ccdc_geom_bond_type
C23   H7    1.078752 S    
O23   Cr5   1.930570 S    
C36   C37   1.397886 A    
C34   C35   1.401998 A    
O23   C55   1.277851 A    
C39   C44   1.394418 A    
Cr5   O26   1.983781 S    
C20   C21   1.406956 A    
O19   C53   1.301881 A    
C42   H18   1.084374 S    
O14   C53   1.297513 A    
C58   H25   1.083897 S    
C51   O16   1.280926 A    
C61   H28   1.103711 S    
O4    Cr2   1.955388 S    
C43   C44   1.436776 A    
C27   H10   1.083237 S    
O8    Cr1   1.948241 S    
O11   Cr3   2.046647 S    
C10   H3    1.084911 S    
C43   C59   1.492910 S    
C59   O28   1.220689 D    
C49   H21   1.083287 S    
C11   C12   1.425193 A    
C46   H19   1.084634 S    
C61   H29   1.110697 S    
C24   H9    1.083473 S    
C5    O11   1.285238 A    
O21   C54   1.274240 A    
C31   C57   1.495852 S    
Cr6   O26   1.981433 S    
C15   C16   1.399137 A    
C21   C25   1.429923 A    
C47   C56   1.447458 S    
C33   C34   1.375734 A    
C57   H22   1.106996 S    
C27   C32   1.400575 A    
C13   C51   1.483481 S    
C16   C17   1.392771 A    
C60   O29   1.221360 D    
C37   C38   1.425855 A    
O15   Cr4   1.950304 S    
C7    H1    1.076025 S    
C17   H6    1.083299 S    
C39   H16   1.083387 S    
C13   C19   1.423072 A    
C18   C26   1.406422 A    
C4    C50   1.457064 S    
O20   C56   1.255055 A    
C1    C32   1.452244 S    
C36   H15   1.084006 S    
C31   C32   1.410656 A    
Cr3   O13   1.981745 S    
C20   C22   1.415006 A    
C55   O24   1.260418 A    
C35   C55   1.447768 S    
C45   C50   1.402129 A    
O25   C56   1.272126 A    
C27   C28   1.397151 A    
O12   C6    1.254690 A    
C49   C50   1.412376 A    
C5    C38   1.463044 S    
C28   C29   1.401055 A    
O1    Cr1   2.066472 S    
C14   H5    1.080273 S    
C41   C42   1.385078 A    
C15   H4    1.083215 S    
O16   Cr5   2.051646 S    
Cr1   O13   1.965843 S    
O1    C3    1.251659 A    
C40   C41   1.399626 A    
O6    C3    1.292699 A    
C61   H30   1.108137 S    
C8    H2    1.083230 S    
O5    Cr3   2.078094 S    
O12   Cr3   1.957496 S    
C45   C46   1.381899 A    
C7    C12   1.398187 A    
C63   O31   1.221213 D    
C22   C23   1.390351 A    
C62   O30   1.215790 D    
C18   C19   1.415782 A    
O10   Cr2   1.934078 S    
O14   Cr4   2.073418 S    
O17   Cr5   1.958762 S    
C63   H32   1.085221 S    
C48   H20   1.083328 S    
O7    Cr1   2.077374 S    
C6    C44   1.455881 S    
O18   Cr6   2.075758 S    
C45   C60   1.471903 S    
C14   C15   1.394760 A    
C20   C26   1.428657 A    
C52   O18   1.272691 A    
C11   C61   1.510708 S    
C16   C62   1.471177 S    
C42   C43   1.395797 A    
C57   H24   1.110648 S    
C2    O5    1.255066 A    
O20   Cr4   2.070511 S    
C46   C47   1.404464 A    
C48   C49   1.389042 A    
Cr2   O13   1.983586 S    
C35   C36   1.393323 A    
C9    C52   1.454528 S    
C29   C30   1.388843 A    
C1    O3    1.268457 A    
O25   Cr6   1.954470 S    
C60   H27   1.078335 S    
C33   C38   1.394287 A    
C29   C53   1.445078 S    
C28   H11   1.082308 S    
C17   C18   1.407893 A    
O22   Cr5   2.078333 S    
O9    Cr2   2.074155 S    
O2    Cr1   1.956778 S    
C23   C24   1.387043 A    
C40   H17   1.082170 S    
O6    Cr3   1.929922 S    
C25   C63   1.486591 S    
C58   O27   1.221088 D    
O8    C4    1.262756 A    
C22   H8    1.079631 S    
C3    C26   1.489324 S    
C41   C54   1.437561 S    
C8    C9    1.406033 A    
C14   C19   1.413292 A    
O21   Cr4   1.954801 S    
C54   O22   1.251387 A    
C10   C11   1.376233 A    
O2    C1    1.274117 A    
C59   H26   1.079466 S    
C30   H12   1.083509 S    
O4    C2    1.300011 A    
O7    C6    1.277833 A    
O17   C52   1.275320 A    
C2    C12   1.470259 S    
C7    C8    1.395417 A    
C33   H13   1.083799 S    
C57   H23   1.097790 S    
C30   C31   1.382482 A    
O19   Cr6   1.933231 S    
C34   H14   1.083078 S    
O3    Cr2   2.056037 S    
C24   C25   1.398987 A    
C4    O9    1.273706 A    
C47   C48   1.392641 A    
C9    C10   1.391425 A    
C13   C21   1.408651 A    
O10   C5    1.268210 A    
O24   Cr6   2.049414 S    
C39   C40   1.368442 A    
O15   C51   1.270097 A    
C62   H31   1.085370 S    
C37   C58   1.486395 S    
Cr4   O26   1.965850 S    
