data_mof_unit_62260.cif
_audit_creation_date              2012-12-10T18:04:36-0500
_audit_creation_method            fapswitch 2.2
_symmetry_space_group_name_H-M    P1
_symmetry_Int_Tables_number       1
_space_group_crystal_system       triclinic
_cell_length_a                    21.630085
_cell_length_b                    21.630085
_cell_length_c                    55.731124
_cell_angle_alpha                 90.000053
_cell_angle_beta                  90.000013
_cell_angle_gamma                 90.0
_cell_volume                      26074.3958375

loop_
_atom_site_label
_atom_site_type_symbol
_atom_type_description
_atom_site_fract_x
_atom_site_fract_y
_atom_site_fract_z
_atom_type_partial_charge
C1    C     C_R   1.000000 0.500000 0.123661 0.259609
C2    C     C_R   0.500000 1.000000 0.224720 0.073844
C3    C     C_R   0.053931 0.483169 0.611047 0.226837
C4    C     C_R   0.516831 0.946069 0.388953 0.226837
C5    C     C_R   0.946070 0.483167 0.388953 0.226838
C6    C     C_R   0.483168 0.053930 0.388953 0.226837
C7    C     C_R   0.053930 0.516833 0.388953 0.226838
C8    C     C_R   0.015496 0.553843 0.085994 -0.269718
C9    C     C_R   0.446157 0.015497 0.085994 -0.269719
C10   C     C_R   0.984503 0.446157 0.085994 -0.269719
C11   C     C_R   0.553843 0.984503 0.085994 -0.269719
C12   C     C_R   0.015498 0.446157 0.914006 -0.269718
C13   C     C_R   1.000000 0.500000 0.775280 0.073844
C14   C     C_R   0.446157 0.984502 0.914006 -0.269718
C15   C     C_R   0.984502 0.553843 0.914006 -0.269719
C16   C     C_R   0.553843 0.015498 0.914006 -0.269718
C17   C     C_R   0.515499 0.053843 0.585994 -0.269719
C18   C     C_R   0.946157 0.515499 0.585994 -0.269719
C19   C     C_R   0.484501 0.946157 0.585994 -0.269719
C20   C     C_R   0.053843 0.484501 0.585994 -0.269719
C21   C     C_R   0.515499 0.946157 0.414006 -0.269719
C22   C     C_R   0.946158 0.484500 0.414006 -0.269719
C23   C     C_R   0.484501 0.053843 0.414006 -0.269720
C24   C     C_R   0.500000 0.000000 0.775280 0.073843
C25   C     C_R   0.053842 0.515500 0.414006 -0.269718
C26   C     C_R   1.000000 0.500000 0.073396 -0.086742
C27   C     C_R   0.500000 0.000000 0.073396 -0.086743
C28   C     C_R   1.000000 0.500000 0.926604 -0.086742
C29   C     C_R   0.500000 0.000000 0.926604 -0.086744
C30   C     C_R   0.500000 0.000000 0.573396 -0.086744
C31   C     C_R   0.000000 0.500000 0.573396 -0.086744
C32   C     C_R   0.500000 1.000000 0.426604 -0.086743
C33   C     C_R   1.000000 0.500000 0.426604 -0.086744
C34   C     C_R   0.500000 0.379714 0.000000 0.885150
C35   C     C_R   0.500000 0.000000 0.724720 0.073843
C36   C     C_R   0.620286 0.500000 0.000000 0.885150
C37   C     C_R   0.500000 0.620286 0.000000 0.885150
C38   C     C_R   0.379714 0.500000 0.000000 0.885151
C39   C     C_R   1.000000 0.879714 0.500000 0.885150
C40   C     C_R   0.120286 0.000000 0.500000 0.885150
C41   C     C_R   1.000000 0.120286 0.500000 0.885150
C42   C     C_R   0.879714 0.000000 0.500000 0.885150
C43   C     C_R   0.281595 0.478591 0.979791 -0.209005
C44   C     C_R   0.521411 0.281595 0.979791 -0.209007
C45   C     C_R   0.718405 0.521412 0.979791 -0.209006
C46   C     C_R   0.000000 0.500000 0.724720 0.073844
C47   C     C_R   0.478589 0.718405 0.979791 -0.209006
C48   C     C_R   0.281595 0.521409 0.020209 -0.209007
C49   C     C_R   0.521411 0.718405 0.020209 -0.209006
C50   C     C_R   0.718405 0.478588 0.020209 -0.209007
C51   C     C_R   0.478589 0.281595 0.020209 -0.209006
C52   C     C_R   0.781595 0.978589 0.479791 -0.209007
C53   C     C_R   0.021411 0.781595 0.479791 -0.209006
C54   C     C_R   0.218405 0.021412 0.479791 -0.209006
C55   C     C_R   0.978588 0.218405 0.479791 -0.209007
C56   C     C_R   0.781595 0.021411 0.520209 -0.209007
C57   C     C_R   0.500000 1.000000 0.275280 0.073844
C58   C     C_R   0.021412 0.218405 0.520209 -0.209007
C59   C     C_R   0.218405 0.978588 0.520209 -0.209007
C60   C     C_R   0.978589 0.781595 0.520209 -0.209007
C61   C     C_R   0.217692 0.478144 0.979708 -0.013383
C62   C     C_R   0.521858 0.217692 0.979708 -0.013383
C63   C     C_R   0.782308 0.521858 0.979708 -0.013383
C64   C     C_R   0.478142 0.782308 0.979708 -0.013383
C65   C     C_R   0.217692 0.521855 0.020292 -0.013384
C66   C     C_R   0.521857 0.782308 0.020292 -0.013383
C67   C     C_R   0.782308 0.478142 0.020292 -0.013383
C68   C     C_R   1.000000 0.500000 0.275280 0.073844
C69   C     C_R   0.478142 0.217692 0.020292 -0.013383
C70   C     C_R   0.717692 0.978142 0.479708 -0.013383
C71   C     C_R   0.021857 0.717692 0.479708 -0.013383
C72   C     C_R   0.282308 0.021858 0.479708 -0.013383
C73   C     C_R   0.978142 0.282308 0.479708 -0.013383
C74   C     C_R   0.717692 0.021857 0.520292 -0.013383
C75   C     C_R   0.021858 0.282308 0.520292 -0.013383
C76   C     C_R   0.282308 0.978142 0.520292 -0.013383
C77   C     C_R   0.978142 0.717692 0.520292 -0.013383
C78   C     C_R   0.185921 0.500000 0.000000 -0.098613
C79   C     C_R   0.914753 0.573588 0.223935 -0.213064
C80   C     C_R   0.500000 0.185921 1.000000 -0.098615
C81   C     C_R   0.814079 0.500000 0.000000 -0.098616
C82   C     C_R   0.500000 0.814079 0.000000 -0.098615
C83   C     C_R   0.685921 0.000000 0.500000 -0.098615
C84   C     C_R   1.000000 0.685921 0.500000 -0.098615
C85   C     C_R   0.314078 0.000000 0.500000 -0.098615
C86   C     C_R   1.000000 0.314078 0.500000 -0.098615
C87   C     C_R   0.313319 0.500000 0.000000 -0.062520
C88   C     C_R   0.500000 0.313319 1.000000 -0.062519
C89   C     C_R   0.686681 0.500000 0.000000 -0.062518
C90   C     C_R   0.426409 0.914755 0.223935 -0.213064
C91   C     C_R   0.500000 0.686681 0.000000 -0.062519
C92   C     C_R   0.813319 0.000000 0.500000 -0.062518
C93   C     C_R   1.000000 0.813319 0.500000 -0.062519
C94   C     C_R   0.186681 0.000000 0.500000 -0.062518
C95   C     C_R   1.000000 0.186681 0.500000 -0.062518
C96   C     C_R   1.000000 0.500000 0.047120 0.920171
C97   C     C_R   0.500000 0.000000 0.047120 0.920170
C98   C     C_R   1.000000 0.500000 0.952880 0.920172
C99   C     C_R   0.500000 1.000000 0.952880 0.920172
C100  C     C_R   0.500000 0.000000 0.547120 0.920170
C101  C     C_R   0.085246 0.426411 0.223935 -0.213063
C102  C     C_R   0.000000 0.500000 0.547120 0.920170
C103  C     C_R   0.500000 1.000000 0.452880 0.920171
C104  C     C_R   0.000000 0.500000 0.452880 0.920171
C105  C     C_R   0.119915 0.500000 0.000000 0.881336
C106  C     C_R   0.500000 0.119915 0.000000 0.881334
C107  C     C_R   0.880085 0.500000 0.000000 0.881334
C108  C     C_R   0.500000 0.880085 0.000000 0.881335
C109  C     C_R   0.619915 0.000000 0.500000 0.881334
C110  C     C_R   1.000000 0.619915 0.500000 0.881334
C111  C     C_R   0.380085 0.000000 0.500000 0.881334
C112  C     C_R   0.500000 1.000000 0.123661 0.259608
C113  C     C_R   0.573591 0.085244 0.223935 -0.213064
C114  C     C_R   1.000000 0.380085 0.500000 0.881334
C115  C     C_R   0.958287 0.538984 0.237298 0.043805
C116  C     C_R   0.461015 0.958287 0.237298 0.043804
C117  C     C_R   0.041713 0.461016 0.237298 0.043804
C118  C     C_R   0.538985 0.041712 0.237298 0.043804
C119  C     C_R   0.958288 0.461014 0.762702 0.043804
C120  C     C_R   0.461015 0.041712 0.762702 0.043804
C121  C     C_R   0.041712 0.538985 0.762702 0.043804
C122  C     C_R   0.538986 0.958288 0.762702 0.043804
C123  C     C_R   0.458289 0.038987 0.737298 0.043804
C124  C     C_R   0.914756 0.426409 0.776065 -0.213065
C125  C     C_R   0.961014 0.458289 0.737298 0.043804
C126  C     C_R   0.541711 0.961013 0.737298 0.043804
C127  C     C_R   0.038986 0.541711 0.737298 0.043804
C128  C     C_R   0.458289 0.961013 0.262702 0.043804
C129  C     C_R   0.961012 0.541709 0.262702 0.043804
C130  C     C_R   0.541711 0.038986 0.262702 0.043804
C131  C     C_R   0.038988 0.458290 0.262702 0.043804
C132  C     C_1   0.185727 0.456328 0.958534 0.166762
C133  C     C_1   0.543677 0.185727 0.958534 0.166763
C134  C     C_1   0.814273 0.543678 0.958535 0.166764
C135  C     C_R   0.426409 0.085244 0.776065 -0.213064
C136  C     C_1   0.456324 0.814273 0.958534 0.166763
C137  C     C_1   0.185727 0.543672 0.041466 0.166761
C138  C     C_1   0.543676 0.814273 0.041466 0.166763
C139  C     C_1   0.814273 0.456322 0.041465 0.166763
C140  C     C_1   0.456323 0.185727 0.041466 0.166763
C141  C     C_1   0.685727 0.956324 0.458534 0.166763
C142  C     C_1   0.043676 0.685727 0.458534 0.166763
C143  C     C_1   0.314273 0.043678 0.458535 0.166764
C144  C     C_1   0.956322 0.314273 0.458535 0.166764
C145  C     C_1   0.685727 0.043676 0.541466 0.166763
C146  C     C_R   0.085244 0.573591 0.776065 -0.213064
C147  C     C_1   0.043677 0.314273 0.541465 0.166764
C148  C     C_1   0.314273 0.956322 0.541465 0.166764
C149  C     C_1   0.956324 0.685727 0.541466 0.166763
C150  C     C_3   0.098109 0.608819 0.131555 -0.751386
C151  C     C_3   0.391182 0.098110 0.131555 -0.751385
C152  C     C_3   0.901890 0.391181 0.131555 -0.751386
C153  C     C_3   0.608818 0.901890 0.131555 -0.751385
C154  C     C_3   0.098111 0.391183 0.868445 -0.751385
C155  C     C_3   0.391184 0.901888 0.868445 -0.751385
C156  C     C_3   0.901888 0.608816 0.868445 -0.751385
C157  C     C_R   0.573592 0.914756 0.776065 -0.213063
C158  C     C_3   0.608816 0.098112 0.868445 -0.751386
C159  C     C_3   0.598114 0.108815 0.631555 -0.751384
C160  C     C_3   0.891185 0.598113 0.631555 -0.751384
C161  C     C_3   0.401886 0.891185 0.631555 -0.751384
C162  C     C_3   0.108815 0.401886 0.631555 -0.751385
C163  C     C_3   0.598114 0.891185 0.368445 -0.751386
C164  C     C_3   0.891188 0.401883 0.368445 -0.751386
C165  C     C_3   0.401886 0.108814 0.368445 -0.751386
C166  C     C_3   0.108811 0.598117 0.368445 -0.751387
C167  C     C_R   0.414758 0.073594 0.723935 -0.213063
C168  C     C_R   0.926407 0.414757 0.723935 -0.213064
C169  C     C_R   0.585242 0.926406 0.723935 -0.213063
C170  C     C_R   0.073593 0.585242 0.723935 -0.213064
C171  C     C_R   0.414758 0.926406 0.276065 -0.213064
C172  C     C_R   1.000000 0.500000 0.876339 0.259608
C173  C     C_R   0.926403 0.585239 0.276065 -0.213064
C174  C     C_R   0.585242 0.073594 0.276065 -0.213064
C175  C     C_R   0.073596 0.414760 0.276065 -0.213065
C176  C     C_R   0.914180 0.572058 0.199043 -0.137680
C177  C     C_R   0.427940 0.914182 0.199043 -0.137678
C178  C     C_R   0.085819 0.427942 0.199043 -0.137679
C179  C     C_R   0.572060 0.085818 0.199043 -0.137679
C180  C     C_R   0.914183 0.427939 0.800957 -0.137679
C181  C     C_R   0.427939 0.085817 0.800957 -0.137679
C182  C     C_R   0.085817 0.572060 0.800957 -0.137679
C183  C     C_R   0.500000 0.000000 0.876339 0.259607
C184  C     C_R   0.572061 0.914183 0.800957 -0.137680
C185  C     C_R   0.414185 0.072064 0.699043 -0.137680
C186  C     C_R   0.927938 0.414184 0.699043 -0.137679
C187  C     C_R   0.585815 0.927937 0.699043 -0.137679
C188  C     C_R   0.072062 0.585815 0.699043 -0.137679
C189  C     C_R   0.414185 0.927937 0.300957 -0.137679
C190  C     C_R   0.927934 0.585813 0.300957 -0.137679
C191  C     C_R   0.585815 0.072063 0.300957 -0.137679
C192  C     C_R   0.072065 0.414187 0.300957 -0.137679
C193  C     C_R   0.956959 0.536116 0.186517 -0.029725
C194  C     C_R   0.500000 0.000000 0.623661 0.259606
C195  C     C_R   0.463883 0.956960 0.186517 -0.029727
C196  C     C_R   0.043041 0.463884 0.186517 -0.029726
C197  C     C_R   0.536117 0.043040 0.186517 -0.029726
C198  C     C_R   0.956960 0.463883 0.813483 -0.029726
C199  C     C_R   0.463883 0.043040 0.813483 -0.029725
C200  C     C_R   0.043040 0.536117 0.813483 -0.029727
C201  C     C_R   0.536117 0.956960 0.813483 -0.029727
C202  C     C_R   0.456961 0.036118 0.686517 -0.029726
C203  C     C_R   0.963882 0.456961 0.686517 -0.029726
C204  C     C_R   0.543039 0.963882 0.686517 -0.029726
C205  C     C_R   0.000000 0.500000 0.623661 0.259608
C206  C     C_R   0.036118 0.543039 0.686517 -0.029726
C207  C     C_R   0.456961 0.963881 0.313483 -0.029726
C208  C     C_R   0.963880 0.543037 0.313483 -0.029726
C209  C     C_R   0.543039 0.036118 0.313483 -0.029727
C210  C     C_R   0.036119 0.456962 0.313483 -0.029726
C211  C     C_R   1.000000 0.500000 0.199268 -0.051657
C212  C     C_R   0.500000 1.000000 0.199268 -0.051657
C213  C     C_R   1.000000 0.500000 0.800732 -0.051657
C214  C     C_R   0.500000 0.000000 0.800732 -0.051656
C215  C     C_R   0.500000 0.000000 0.699268 -0.051657
C216  C     C_R   0.500000 1.000000 0.376339 0.259608
C217  C     C_R   0.000000 0.500000 0.699268 -0.051657
C218  C     C_R   0.500000 1.000000 0.300732 -0.051657
C219  C     C_R   1.000000 0.500000 0.300732 -0.051657
C220  C     C_R   0.957338 0.534950 0.161390 0.528698
C221  C     C_R   0.465049 0.957338 0.161390 0.528698
C222  C     C_R   0.042662 0.465050 0.161390 0.528697
C223  C     C_R   0.534951 0.042661 0.161390 0.528698
C224  C     C_R   0.957339 0.465048 0.838610 0.528698
C225  C     C_R   0.465048 0.042661 0.838610 0.528699
C226  C     C_R   0.042661 0.534951 0.838610 0.528698
C227  C     C_R   1.000000 0.500000 0.376339 0.259608
C228  C     C_R   0.534952 0.957339 0.838610 0.528698
C229  C     C_R   0.457340 0.034953 0.661390 0.528698
C230  C     C_R   0.965047 0.457340 0.661390 0.528698
C231  C     C_R   0.542660 0.965047 0.661390 0.528698
C232  C     C_R   0.034953 0.542660 0.661390 0.528699
C233  C     C_R   0.457340 0.965047 0.338610 0.528698
C234  C     C_R   0.965046 0.542659 0.338610 0.528698
C235  C     C_R   0.542660 0.034952 0.338610 0.528698
C236  C     C_R   0.034954 0.457341 0.338610 0.528698
C237  C     C_R   0.016829 0.553931 0.111047 0.226838
C238  C     C_R   1.000000 0.500000 0.224720 0.073844
C239  C     C_R   0.446069 0.016830 0.111047 0.226838
C240  C     C_R   0.983171 0.446069 0.111047 0.226836
C241  C     C_R   0.553931 0.983170 0.111047 0.226837
C242  C     C_R   0.016830 0.446069 0.888953 0.226838
C243  C     C_R   0.446069 0.983169 0.888953 0.226837
C244  C     C_R   0.983170 0.553931 0.888953 0.226837
C245  C     C_R   0.553931 0.016831 0.888953 0.226838
C246  C     C_R   0.516831 0.053931 0.611047 0.226838
C247  C     C_R   0.946069 0.516831 0.611047 0.226837
C248  C     C_R   0.483169 0.946069 0.611047 0.226839
H1    H     H_    0.306555 0.461789 0.964217 0.164545
H2    H     H_    0.038214 0.806555 0.464217 0.164544
H3    H     H_    0.607541 0.068738 0.643427 0.257080
H4    H     H_    0.851221 0.522989 0.614706 0.236099
H5    H     H_    0.848271 0.607248 0.641896 0.240099
H6    H     H_    0.892675 0.629863 0.615879 0.247318
H7    H     H_    0.931262 0.607541 0.643427 0.257080
H8    H     H_    0.477010 0.851221 0.614706 0.236100
H9    H     H_    0.392751 0.848272 0.641895 0.240100
H10   H     H_    0.370136 0.892675 0.615879 0.247318
H11   H     H_    0.392459 0.931262 0.643427 0.257080
H12   H     H_    0.148779 0.477010 0.614706 0.236099
H13   H     H_    0.193445 0.038216 0.464217 0.164544
H14   H     H_    0.151728 0.392751 0.641895 0.240100
H15   H     H_    0.107326 0.370136 0.615879 0.247318
H16   H     H_    0.068738 0.392459 0.643427 0.257081
H17   H     H_    0.522990 0.851221 0.385294 0.236099
H18   H     H_    0.607249 0.848272 0.358104 0.240101
H19   H     H_    0.629864 0.892675 0.384121 0.247319
H20   H     H_    0.607541 0.931262 0.356573 0.257081
H21   H     H_    0.851222 0.477006 0.385294 0.236100
H22   H     H_    0.848275 0.392747 0.358104 0.240101
H23   H     H_    0.892679 0.370133 0.384121 0.247319
H24   H     H_    0.961784 0.193445 0.464217 0.164544
H25   H     H_    0.931265 0.392457 0.356573 0.257081
H26   H     H_    0.477010 0.148779 0.385294 0.236100
H27   H     H_    0.392751 0.151728 0.358104 0.240100
H28   H     H_    0.370136 0.107325 0.384121 0.247319
H29   H     H_    0.392459 0.068737 0.356573 0.257080
H30   H     H_    0.148778 0.522994 0.385294 0.236100
H31   H     H_    0.151725 0.607253 0.358104 0.240100
H32   H     H_    0.107321 0.629867 0.384121 0.247320
H33   H     H_    0.068735 0.607543 0.356573 0.257081
H34   H     H_    0.806555 0.038214 0.535783 0.164544
H35   H     H_    0.038215 0.193445 0.535783 0.164544
H36   H     H_    0.193445 0.961784 0.535783 0.164544
H37   H     H_    0.961785 0.806555 0.535783 0.164544
H38   H     H_    0.879269 0.601311 0.232180 0.143785
H39   H     H_    0.398686 0.879271 0.232180 0.143785
H40   H     H_    0.120730 0.398688 0.232180 0.143784
H41   H     H_    0.538215 0.306555 0.964217 0.164545
H42   H     H_    0.601314 0.120728 0.232180 0.143785
H43   H     H_    0.879272 0.398685 0.767820 0.143785
H44   H     H_    0.398684 0.120728 0.767821 0.143784
H45   H     H_    0.120728 0.601315 0.767820 0.143784
H46   H     H_    0.601316 0.879273 0.767820 0.143784
H47   H     H_    0.379276 0.101320 0.732180 0.143784
H48   H     H_    0.898682 0.379274 0.732180 0.143784
H49   H     H_    0.620725 0.898681 0.732180 0.143784
H50   H     H_    0.101318 0.620725 0.732180 0.143785
H51   H     H_    0.379276 0.898681 0.267820 0.143784
H52   H     H_    0.693445 0.538216 0.964217 0.164544
H53   H     H_    0.898677 0.620721 0.267820 0.143785
H54   H     H_    0.620724 0.101319 0.267820 0.143784
H55   H     H_    0.101322 0.379279 0.267820 0.143784
H56   H     H_    0.879931 0.599432 0.189641 0.189554
H57   H     H_    0.400566 0.879933 0.189641 0.189553
H58   H     H_    0.120069 0.400568 0.189641 0.189554
H59   H     H_    0.599434 0.120067 0.189641 0.189554
H60   H     H_    0.879934 0.400565 0.810359 0.189553
H61   H     H_    0.400564 0.120066 0.810359 0.189554
H62   H     H_    0.120066 0.599435 0.810359 0.189553
H63   H     H_    0.461785 0.693445 0.964217 0.164544
H64   H     H_    0.599436 0.879934 0.810359 0.189553
H65   H     H_    0.379937 0.099439 0.689641 0.189553
H66   H     H_    0.900562 0.379936 0.689641 0.189553
H67   H     H_    0.620063 0.900561 0.689641 0.189553
H68   H     H_    0.099438 0.620064 0.689641 0.189553
H69   H     H_    0.379937 0.900561 0.310359 0.189553
H70   H     H_    0.900557 0.620060 0.310359 0.189553
H71   H     H_    0.620063 0.099439 0.310359 0.189553
H72   H     H_    0.099442 0.379940 0.310359 0.189554
H73   H     H_    0.028112 0.595545 0.076397 0.175912
H74   H     H_    0.306555 0.538211 0.035783 0.164546
H75   H     H_    0.404455 0.028113 0.076397 0.175913
H76   H     H_    0.971888 0.404454 0.076397 0.175913
H77   H     H_    0.595545 0.971887 0.076397 0.175913
H78   H     H_    0.028114 0.404455 0.923603 0.175912
H79   H     H_    0.404455 0.971886 0.923603 0.175913
H80   H     H_    0.971886 0.595545 0.923603 0.175913
H81   H     H_    0.595545 0.028114 0.923603 0.175913
H82   H     H_    0.528115 0.095545 0.576397 0.175913
H83   H     H_    0.904455 0.528115 0.576397 0.175913
H84   H     H_    0.471885 0.904455 0.576397 0.175914
H85   H     H_    0.538215 0.693445 0.035783 0.164544
H86   H     H_    0.095544 0.471885 0.576397 0.175913
H87   H     H_    0.528116 0.904455 0.423603 0.175913
H88   H     H_    0.904456 0.471882 0.423603 0.175914
H89   H     H_    0.471884 0.095544 0.423603 0.175914
H90   H     H_    0.095544 0.528118 0.423603 0.175913
H91   H     H_    0.022983 0.648780 0.114706 0.236099
H92   H     H_    0.107242 0.651733 0.141896 0.240100
H93   H     H_    0.129859 0.607331 0.115879 0.247319
H94   H     H_    0.107538 0.568742 0.143427 0.257082
H95   H     H_    0.351220 0.022985 0.114706 0.236099
H96   H     H_    0.693445 0.461784 0.035783 0.164544
H97   H     H_    0.348269 0.107244 0.141896 0.240100
H98   H     H_    0.392671 0.129860 0.115879 0.247318
H99   H     H_    0.431259 0.107539 0.143427 0.257081
H100  H     H_    0.977016 0.351220 0.114706 0.236099
H101  H     H_    0.892757 0.348267 0.141895 0.240100
H102  H     H_    0.870141 0.392669 0.115879 0.247318
H103  H     H_    0.892461 0.431258 0.143427 0.257082
H104  H     H_    0.648779 0.977015 0.114706 0.236099
H105  H     H_    0.651731 0.892756 0.141895 0.240100
H106  H     H_    0.607329 0.870139 0.115879 0.247318
H107  H     H_    0.461785 0.306555 0.035783 0.164544
H108  H     H_    0.568741 0.892461 0.143427 0.257081
H109  H     H_    0.022987 0.351221 0.885294 0.236099
H110  H     H_    0.107246 0.348270 0.858105 0.240100
H111  H     H_    0.129861 0.392672 0.884121 0.247319
H112  H     H_    0.107540 0.431260 0.856573 0.257081
H113  H     H_    0.351221 0.977012 0.885294 0.236099
H114  H     H_    0.348270 0.892753 0.858104 0.240100
H115  H     H_    0.392673 0.870138 0.884121 0.247318
H116  H     H_    0.431261 0.892459 0.856573 0.257081
H117  H     H_    0.977013 0.648779 0.885294 0.236099
H118  H     H_    0.806555 0.961785 0.464217 0.164545
H119  H     H_    0.892754 0.651730 0.858105 0.240100
H120  H     H_    0.870138 0.607328 0.884121 0.247318
H121  H     H_    0.892460 0.568740 0.856573 0.257081
H122  H     H_    0.648779 0.022988 0.885294 0.236099
H123  H     H_    0.651730 0.107247 0.858105 0.240100
H124  H     H_    0.607327 0.129862 0.884121 0.247319
H125  H     H_    0.568739 0.107541 0.856573 0.257081
H126  H     H_    0.522990 0.148779 0.614706 0.236099
H127  H     H_    0.607249 0.151728 0.641896 0.240100
H128  H     H_    0.629864 0.107325 0.615879 0.247318
N1    N     N_R   1.000000 0.500000 0.149393 -0.334295
N2    N     N_1   0.561108 0.160171 0.941591 -0.208949
N3    N     N_1   0.839828 0.561110 0.941592 -0.208949
N4    N     N_1   0.438892 0.839828 0.941591 -0.208949
N5    N     N_1   0.160171 0.561102 0.058409 -0.208947
N6    N     N_1   0.561108 0.839828 0.058409 -0.208948
N7    N     N_1   0.839828 0.438890 0.058408 -0.208948
N8    N     N_1   0.438892 0.160172 0.058408 -0.208948
N9    N     N_1   0.660172 0.938892 0.441591 -0.208950
N10   N     N_1   0.061108 0.660172 0.441591 -0.208951
N11   N     N_1   0.339828 0.061110 0.441592 -0.208950
N12   N     N_R   0.500000 1.000000 0.149393 -0.334296
N13   N     N_1   0.938890 0.339828 0.441592 -0.208952
N14   N     N_1   0.660172 0.061108 0.558409 -0.208950
N15   N     N_1   0.061109 0.339828 0.558408 -0.208950
N16   N     N_1   0.339828 0.938890 0.558408 -0.208950
N17   N     N_1   0.938892 0.660172 0.558409 -0.208949
N18   N     N_2   0.034504 0.608495 0.123557 -0.285823
N19   N     N_2   0.391505 0.034505 0.123557 -0.285822
N20   N     N_2   0.965496 0.391505 0.123557 -0.285822
N21   N     N_2   0.608495 0.965495 0.123557 -0.285822
N22   N     N_2   0.034506 0.391506 0.876443 -0.285822
N23   N     N_R   1.000000 0.500000 0.850607 -0.334296
N24   N     N_2   0.391506 0.965493 0.876443 -0.285822
N25   N     N_2   0.965493 0.608494 0.876443 -0.285821
N26   N     N_2   0.608494 0.034507 0.876443 -0.285822
N27   N     N_2   0.534509 0.108494 0.623557 -0.285820
N28   N     N_2   0.891506 0.534508 0.623557 -0.285821
N29   N     N_2   0.465492 0.891506 0.623556 -0.285821
N30   N     N_2   0.108494 0.465491 0.623557 -0.285821
N31   N     N_2   0.534509 0.891506 0.376443 -0.285821
N32   N     N_2   0.891507 0.465488 0.376443 -0.285821
N33   N     N_2   0.465491 0.108493 0.376443 -0.285821
N34   N     N_R   0.500000 0.000000 0.850607 -0.334296
N35   N     N_2   0.108492 0.534512 0.376443 -0.285822
N36   N     N_R   0.500000 0.000000 0.649393 -0.334296
N37   N     N_R   0.000000 0.500000 0.649393 -0.334296
N38   N     N_R   0.500000 1.000000 0.350607 -0.334296
N39   N     N_R   1.000000 0.500000 0.350607 -0.334296
N40   N     N_1   0.160171 0.438898 0.941591 -0.208948
O1    O     O_R   0.499970 0.408410 0.020130 -0.624877
O2    O     O_R   0.091590 0.999970 0.520130 -0.624877
O3    O     O_R   0.000030 0.091590 0.520130 -0.624877
O4    O     O_R   0.908410 0.000030 0.520130 -0.624877
O5    O     O_R   0.999970 0.091590 0.479870 -0.624876
O6    O     O_R   0.091590 0.000030 0.479870 -0.624876
O7    O     O_R   0.000030 0.908410 0.479870 -0.624876
O8    O     O_R   0.908410 0.999970 0.479870 -0.624876
O9    O     O_R   0.999960 0.448330 0.035690 -0.623994
O10   O     O_R   0.551670 0.999960 0.035690 -0.623994
O11   O     O_R   0.000040 0.551670 0.035690 -0.623995
O12   O     O_R   0.591590 0.499970 0.020130 -0.624877
O13   O     O_R   0.448330 0.000040 0.035690 -0.623994
O14   O     O_R   0.999960 0.551670 0.964310 -0.623993
O15   O     O_R   0.551670 0.000040 0.964310 -0.623994
O16   O     O_R   0.000040 0.448330 0.964310 -0.623994
O17   O     O_R   0.448330 0.999960 0.964310 -0.623993
O18   O     O_R   0.499960 0.948330 0.535690 -0.623993
O19   O     O_R   0.051670 0.499960 0.535690 -0.623994
O20   O     O_R   0.500040 0.051670 0.535690 -0.623994
O21   O     O_R   0.948330 0.500040 0.535690 -0.623993
O22   O     O_R   0.499960 0.051670 0.464310 -0.623993
O23   O     O_R   0.500030 0.591590 0.020130 -0.624877
O24   O     O_R   0.051670 0.500040 0.464310 -0.623993
O25   O     O_R   0.500040 0.948330 0.464310 -0.623993
O26   O     O_R   0.948330 0.499960 0.464310 -0.623993
O27   O     O_R   0.091600 0.448330 0.000070 -0.617404
O28   O     O_R   0.551670 0.091600 0.000070 -0.617404
O29   O     O_R   0.908400 0.551670 0.000070 -0.617404
O30   O     O_R   0.448330 0.908400 0.000070 -0.617403
O31   O     O_R   0.091600 0.551670 0.999930 -0.617404
O32   O     O_R   0.551670 0.908400 0.999930 -0.617403
O33   O     O_R   0.908400 0.448330 0.999930 -0.617403
O34   O     O_R   0.408410 0.500030 0.020130 -0.624877
O35   O     O_R   0.448330 0.091600 0.999930 -0.617403
O36   O     O_R   0.591600 0.948330 0.500070 -0.617403
O37   O     O_R   0.051670 0.591600 0.500070 -0.617404
O38   O     O_R   0.408400 0.051670 0.500070 -0.617403
O39   O     O_R   0.948330 0.408400 0.500070 -0.617403
O40   O     O_R   0.591600 0.051670 0.499930 -0.617403
O41   O     O_R   0.051670 0.408400 0.499930 -0.617403
O42   O     O_R   0.408400 0.948330 0.499930 -0.617403
O43   O     O_R   0.948330 0.591600 0.499930 -0.617403
O44   O     O_2   0.915148 0.568050 0.148998 -0.562754
O45   O     O_R   0.499970 0.591590 0.979870 -0.624876
O46   O     O_2   0.431948 0.915149 0.148998 -0.562754
O47   O     O_2   0.084852 0.431950 0.148998 -0.562753
O48   O     O_2   0.568052 0.084851 0.148998 -0.562754
O49   O     O_2   0.915150 0.431947 0.851002 -0.562754
O50   O     O_2   0.431947 0.084850 0.851002 -0.562754
O51   O     O_2   0.084850 0.568052 0.851002 -0.562753
O52   O     O_2   0.568053 0.915150 0.851002 -0.562754
O53   O     O_2   0.415152 0.068055 0.648998 -0.562753
O54   O     O_2   0.931946 0.415151 0.648998 -0.562753
O55   O     O_2   0.584848 0.931945 0.648998 -0.562753
O56   O     O_R   0.591590 0.500030 0.979870 -0.624876
O57   O     O_2   0.068054 0.584848 0.648998 -0.562754
O58   O     O_2   0.415152 0.931945 0.351002 -0.562754
O59   O     O_2   0.931943 0.584846 0.351002 -0.562753
O60   O     O_2   0.584848 0.068054 0.351002 -0.562753
O61   O     O_2   0.068057 0.415154 0.351002 -0.562754
O62   O     O_R   0.500030 0.408410 0.979870 -0.624876
O63   O     O_R   0.408410 0.499970 0.979870 -0.624876
O64   O     O_R   0.999970 0.908410 0.520130 -0.624877
Zn1   Zn    Zn3+2 0.500000 0.500000 0.026880 0.967692
Zn2   Zn    Zn3+2 0.069030 0.500000 0.500000 0.984402
Zn3   Zn    Zn3+2 0.500000 0.069030 0.500000 0.984402
Zn4   Zn    Zn3+2 0.930970 0.500000 0.500000 0.984403
Zn5   Zn    Zn3+2 0.500000 0.500000 0.973120 0.967692
Zn6   Zn    Zn3+2 0.000000 0.000000 0.526880 0.967692
Zn7   Zn    Zn3+2 0.000000 0.000000 0.473120 0.967692
Zn8   Zn    Zn3+2 0.000000 0.430970 0.000000 0.984402
Zn9   Zn    Zn3+2 0.569030 0.000000 0.000000 0.984402
Zn10  Zn    Zn3+2 0.000000 0.569030 0.000000 0.984401
Zn11  Zn    Zn3+2 0.430970 0.000000 0.000000 0.984402
Zn12  Zn    Zn3+2 0.500000 0.930970 0.500000 0.984402

loop_
_geom_bond_atom_site_label_1
_geom_bond_atom_site_label_2
_ccdc_geom_bond_type
C36   C89   S    
C193  C220  A    
C59   H36   S    
C140  N8    T    
C199  C214  A    
C8    C26   A    
C231  N36   A    
C220  O44   S    
C74   C83   A    
O3    Zn6   S    
C57   C128  A    
C81   C107  S    
C190  H70   S    
C220  N1    A    
C130  C174  A    
C127  C170  A    
C204  C215  A    
C43   C61   A    
C163  N31   S    
C155  H116  S    
C158  N26   S    
C96   O9    A    
C25   H90   S    
C193  C211  A    
C225  O50   S    
C167  C185  A    
C153  H106  S    
C13   C213  A    
C12   H78   S    
C3    N30   S    
C164  H22   S    
C229  N36   A    
C102  O21   A    
C37   O45   A    
C136  N4    T    
C11   H77   S    
C90   C116  A    
C48   C65   A    
C174  C191  A    
C65   C137  S    
C60   C93   A    
C161  H11   S    
C79   H38   S    
C155  N24   S    
C90   C177  A    
O21   Zn4   S    
C46   C217  A    
C194  C248  A    
C17   C30   A    
C129  C173  A    
C49   C91   A    
C49   H85   S    
O1    Zn1   S    
C1    C240  A    
C24   C120  A    
C185  C202  A    
C168  H48   S    
C29   C99   S    
C231  O55   S    
C164  H25   S    
C125  C168  A    
C99   O15   A    
C169  C187  A    
C44   H41   S    
C47   C64   A    
C195  C221  A    
C243  N24   S    
C108  O32   A    
C109  O40   A    
C224  O49   S    
C154  H112  S    
C16   C245  A    
C187  C204  A    
C153  N21   S    
C222  O47   S    
C157  H46   S    
C68   C131  A    
C151  H97   S    
O64   Zn6   S    
C66   C82   A    
C103  O22   A    
C46   C127  A    
C75   C86   A    
C11   C27   A    
C48   C87   A    
C165  H27   S    
C194  N36   S    
C236  O61   S    
C192  C210  A    
C132  N40   T    
C113  C179  A    
C12   C242  A    
C173  H53   S    
H100  N20   S    
H8    N29   S    
C143  N11   T    
O38   Zn3   S    
C62   C133  S    
C145  N14   T    
C27   C97   S    
C177  C195  A    
C155  H114  S    
C133  N2    T    
C205  C247  A    
C96   O11   A    
C183  N34   S    
C139  N7    T    
O7    Zn7   S    
C149  N17   T    
C179  C197  A    
C153  H108  S    
C50   H96   S    
C232  N37   A    
C120  C135  A    
C159  H3    S    
C236  N39   A    
C102  O19   A    
H4    N28   S    
C7    C227  A    
C111  O42   A    
C42   C92   S    
C51   H107  S    
C201  C214  A    
C180  C198  A    
O42   Zn12  S    
C16   H81   S    
C34   O62   A    
C76   C148  S    
C194  C246  A    
C18   C31   A    
C51   C69   A    
C19   C30   A    
C76   C85   A    
O63   Zn5   S    
O11   Zn10  S    
C64   C136  S    
C4    C216  A    
C79   C115  A    
C163  H20   S    
C186  H66   S    
C33   C104  S    
C98   O16   A    
C74   C145  S    
O24   Zn2   S    
C107  O29   A    
C72   C85   A    
C15   C28   A    
O32   Zn9   S    
O17   Zn11  S    
C154  H110  S    
C144  N13   T    
C230  N37   A    
C62   C80   A    
C178  H58   S    
C41   O3    A    
C17   H82   S    
C159  H128  S    
C156  H121  S    
O16   Zn8   S    
C30   C100  S    
H109  N22   S    
C43   H1    S    
C101  C178  A    
C23   H89   S    
C138  N6    T    
C24   C214  A    
C18   C247  A    
C228  O52   S    
C106  O35   A    
C157  C184  A    
C82   C108  S    
C176  C193  A    
C67   C139  S    
C50   C67   A    
C233  N38   A    
C61   C132  S    
C208  C219  A    
C172  C242  A    
C158  H124  S    
C225  N34   A    
C156  H120  S    
C183  C243  A    
C19   C248  A    
C200  C213  A    
C206  C217  A    
C26   C96   S    
C168  C186  A    
C49   C66   A    
C3    C205  A    
C45   H52   S    
C57   C130  A    
C235  N38   A    
C7    N35   S    
C150  H93   S    
C175  C192  A    
C77   C84   A    
C1    C237  A    
C178  C196  A    
C175  H55   S    
C210  C219  A    
C5    C227  A    
C176  H56   S    
C58   C95   A    
C160  N28   S    
C13   C121  A    
C150  N18   S    
C66   C138  S    
C162  H16   S    
C34   O1    A    
C174  H54   S    
C200  C226  A    
O29   Zn10  S    
C5    N32   S    
H26   N33   S    
C134  N3    T    
C191  C209  A    
C202  C229  A    
C164  H23   S    
C99   O17   A    
C210  C236  A    
C71   C142  S    
C163  H18   S    
C11   C241  A    
C232  O57   S    
C135  C181  A    
C14   C29   A    
C235  O60   S    
C181  C199  A    
C166  H31   S    
C207  C233  A    
C109  O36   A    
C70   C141  S    
C184  C201  A    
C154  N22   S    
C54   H13   S    
C79   C176  A    
C137  N5    T    
C205  N37   S    
C197  C223  A    
C41   O5    A    
C51   C88   A    
C203  C230  A    
C67   C81   A    
O30   Zn11  S    
C226  N23   A    
H12   N30   S    
C240  N20   S    
C40   O6    A    
C155  H115  S    
C101  C117  A    
O19   Zn2   S    
C35   C123  A    
C239  N19   S    
C195  C212  A    
C156  H119  S    
C152  N20   S    
C110  O37   A    
O18   Zn12  S    
C156  N25   S    
C98   O14   A    
C153  H105  S    
C186  C203  A    
C2    C116  A    
C53   H2    S    
C117  C131  A    
C106  O28   A    
C234  N39   A    
C55   C73   A    
C38   O34   A    
C6    C216  A    
C172  C244  A    
C128  C171  A    
C170  C188  A    
C121  C146  A    
C166  H33   S    
C35   C215  A    
C59   C76   A    
C73   C144  S    
H91   N18   S    
C229  O53   S    
C161  H10   S    
C180  H60   S    
O6    Zn7   S    
C181  H61   S    
C201  C228  A    
C46   C125  A    
C52   H118  S    
C2    C118  A    
C152  H101  S    
C10   C240  A    
C188  C206  A    
C166  N35   S    
C12   C28   A    
O34   Zn1   S    
C121  C127  A    
C216  N38   S    
C114  O39   A    
O22   Zn3   S    
C58   H35   S    
C162  H14   S    
C222  N1    A    
C173  C190  A    
C107  O33   A    
C60   H37   S    
C56   H34   S    
C160  H6    S    
C4    N31   S    
C39   C93   S    
C247  N28   S    
O62   Zn5   S    
C245  N26   S    
O15   Zn9   S    
C9    C239  A    
C187  H67   S    
C59   C94   A    
C10   H76   S    
C202  C215  A    
C45   C89   A    
C135  H44   S    
C120  C123  A    
C20   H86   S    
C105  O27   A    
C69   C140  S    
C22   H88   S    
C148  N16   T    
O23   Zn1   S    
C179  H59   S    
O14   Zn10  S    
C234  O59   S    
H30   N35   S    
C39   O7    A    
C223  N12   A    
O10   Zn9   S    
C56   C74   A    
C146  C182  A    
C206  C232  A    
C31   C102  S    
C68   C219  A    
C182  C200  A    
C77   C149  S    
C223  O48   S    
C171  H51   S    
C75   C147  S    
C113  H42   S    
C119  C124  A    
C112  N12   S    
O40   Zn3   S    
C71   C84   A    
C198  C224  A    
C63   C134  S    
C18   H83   S    
C118  C130  A    
O12   Zn1   S    
C50   C89   A    
C103  O25   A    
C100  O18   A    
C24   C122  A    
C211  C238  A    
C3    C20   A    
C34   C88   S    
C70   C83   A    
H122  N26   S    
C119  C125  A    
C112  C241  A    
C241  N21   S    
C117  C238  A    
C152  H102  S    
C42   O4    A    
C52   C92   A    
C209  C218  A    
C40   C94   S    
C9    C27   A    
C152  H103  S    
C28   C98   S    
C141  N9    T    
H17   N31   S    
C207  C218  A    
C65   C78   A    
C104  O24   A    
C47   C91   A    
H117  N25   S    
C165  H29   S    
C85   C111  S    
C154  H111  S    
O20   Zn3   S    
C2    C212  A    
C7    C25   A    
C38   C87   S    
C48   H74   S    
C23   C32   A    
C204  C231  A    
C151  H98   S    
C8    H73   S    
C188  H68   S    
C197  C212  A    
C189  H69   S    
C159  H127  S    
C248  N29   S    
C41   C95   S    
C189  C207  A    
C191  H71   S    
C131  C175  A    
C246  N27   S    
C122  C157  A    
C165  H28   S    
C244  N25   S    
C203  C217  A    
C36   O12   A    
C97   O13   A    
C14   C243  A    
C57   C218  A    
C90   H39   S    
O5    Zn7   S    
C55   H24   S    
C198  C213  A    
C160  H7    S    
O28   Zn9   S    
C38   O63   A    
C160  H5    S    
C72   C143  S    
C9    H75   S    
C40   O2    A    
C158  H125  S    
C80   C106  S    
C221  N12   A    
O45   Zn5   S    
C124  H43   S    
C159  N27   S    
C21   H87   S    
H113  N24   S    
C209  C235  A    
C114  O41   A    
C8    C237  A    
O31   Zn10  S    
C63   C81   A    
C78   C105  S    
C221  O46   S    
C162  H15   S    
H126  N27   S    
O13   Zn11  S    
C150  H94   S    
C183  C245  A    
C39   O64   A    
C100  O20   A    
C165  N33   S    
C171  C189  A    
C14   H79   S    
C151  N19   S    
C164  N32   S    
H104  N21   S    
C196  C211  A    
C5    C22   A    
C237  N18   S    
C83   C109  S    
C170  H50   S    
O39   Zn4   S    
C123  C167  A    
O37   Zn2   S    
C10   C26   A    
C36   O56   A    
O35   Zn11  S    
C166  H32   S    
O43   Zn4   S    
C13   C119  A    
C146  H45   S    
C58   C75   A    
C167  H47   S    
O41   Zn2   S    
C21   C32   A    
C1    N1    S    
C60   C77   A    
C32   C103  S    
C6    N33   S    
C54   C94   A    
C37   C91   S    
C53   C93   A    
C55   C95   A    
C142  N10   T    
C228  N34   A    
C161  N29   S    
O36   Zn12  S    
C44   C62   A    
C16   C29   A    
C45   C63   A    
C84   C110  S    
C101  H40   S    
C122  C126  A    
C35   C126  A    
O4    Zn6   S    
C226  O51   S    
C105  O31   A    
C61   C78   A    
C112  C239  A    
C182  H62   S    
O56   Zn5   S    
O26   Zn4   S    
C224  N23   A    
C15   H80   S    
C199  C225  A    
C64   C82   A    
O2    Zn6   S    
C163  H19   S    
C172  N23   S    
O27   Zn8   S    
C190  C208  A    
C19   H84   S    
C158  H123  S    
C111  O38   A    
C37   O23   A    
C208  C234  A    
C104  O26   A    
C233  O58   S    
C115  C129  A    
C161  H9    S    
C22   C33   A    
C15   C244  A    
H21   N32   S    
H95   N19   S    
C150  H92   S    
C115  C238  A    
C47   H63   S    
C227  N39   S    
C185  H65   S    
O33   Zn8   S    
O9    Zn8   S    
C86   C114  S    
C43   C87   A    
C162  N30   S    
C126  C169  A    
O8    Zn7   S    
C4    C21   A    
C108  O30   A    
C17   C246  A    
C6    C23   A    
C242  N22   S    
C192  H72   S    
C42   O8    A    
C177  H57   S    
C68   C129  A    
C151  H99   S    
C73   C86   A    
C124  C180  A    
C52   C70   A    
C147  N15   T    
C113  C118  A    
C56   C92   A    
O25   Zn12  S    
C54   C72   A    
C116  C128  A    
C25   C33   A    
C69   C80   A    
C184  H64   S    
C44   C88   A    
C169  H49   S    
C230  O54   S    
C196  C222  A    
C97   O10   A    
C110  O43   A    
C20   C31   A    
C53   C71   A    
