data_mof_unit_11050.cif
_audit_creation_date              2012-12-11T16:37:15-0500
_audit_creation_method            fapswitch 2.2
_symmetry_space_group_name_H-M    P1
_symmetry_Int_Tables_number       1
_space_group_crystal_system       triclinic
_cell_length_a                    19.489982
_cell_length_b                    6.924522
_cell_length_c                    17.770057
_cell_angle_alpha                 89.99993
_cell_angle_beta                  109.038609
_cell_angle_gamma                 89.972918
_cell_volume                      2267.04004266

loop_
_atom_site_label
_atom_site_type_symbol
_atom_type_description
_atom_site_fract_x
_atom_site_fract_y
_atom_site_fract_z
_atom_type_partial_charge
O1    O     O_R   0.561710 0.369960 0.440200 -0.508689
O2    O     O_R   0.061710 0.630040 0.940200 -0.509856
O3    O     O_R   0.412630 0.033330 0.406330 -0.540095
O4    O     O_R   0.912630 0.966670 0.906330 -0.543012
O5    O     O_R   0.438290 0.869790 0.559800 -0.503132
O6    O     O_R   0.938290 0.130210 0.059800 -0.507288
C1    C     C_R   0.384206 0.203094 0.383925 0.697770
C2    C     C_R   0.884449 0.796830 0.883581 0.689732
O7    O     O_R   0.559570 0.039810 0.430640 -0.544217
O8    O     O_R   0.059570 0.960190 0.930640 -0.543251
O9    O     O_R   0.586280 0.876320 0.584290 -0.542230
O10   O     O_R   0.086280 0.123680 0.084290 -0.542602
C3    C     C_R   0.582015 0.209344 0.416563 0.710461
C4    C     C_R   0.080189 0.790384 0.914575 0.711558
O11   O     O_R   0.413720 0.363440 0.415710 -0.543647
O12   O     O_R   0.913720 0.636560 0.915710 -0.542806
O13   O     O_3   0.508590 0.205630 0.550380 -0.362145
O14   O     O_3   0.008590 0.794370 0.050380 -0.360208
V1    V     V_3+5 0.498410 0.928130 0.490650 1.463491
V2    V     V_3+5 0.998410 0.071870 0.990650 1.448831
O15   O     O_R   0.587370 0.546990 0.593670 -0.541544
O16   O     O_R   0.087370 0.453010 0.093670 -0.543507
C5    C     C_R   0.615830 0.716789 0.616086 0.697992
C6    C     C_R   0.115651 0.283052 0.116351 0.692253
O17   O     O_R   0.440430 0.540520 0.569360 -0.545042
O18   O     O_R   0.940430 0.459480 0.069360 -0.544111
C7    C     C_R   0.418695 0.710020 0.584401 0.713990
C8    C     C_R   0.920368 0.289989 0.086158 0.705761
V3    V     V_3+5 0.501590 0.428960 0.509350 1.460469
V4    V     V_3+5 0.001590 0.571040 0.009350 1.450497
O19   O     O_3   0.491410 0.701330 0.449620 -0.365343
O20   O     O_3   0.991410 0.298670 0.949620 -0.361665
C9    C     C_R   0.283215 0.905143 0.680507 -0.235526
C10   C     C_R   0.818644 0.093402 0.220815 -0.229742
H1    H     H_    0.255649 0.039249 0.683167 0.112204
H2    H     H_    0.814790 0.958762 0.250162 0.119693
C11   C     C_R   0.329491 0.896736 0.633959 0.471504
C12   C     C_R   0.866345 0.103428 0.176308 0.460604
C13   C     C_R   0.367745 0.723486 0.631446 -0.150330
C14   C     C_R   0.872836 0.277168 0.136908 -0.154261
C15   C     C_R   0.355854 0.561414 0.673243 -0.235656
C16   C     C_R   0.832423 0.438788 0.145635 -0.225299
H3    H     H_    0.383826 0.426813 0.672202 0.186202
H4    H     H_    0.835862 0.573527 0.116136 0.182083
C17   C     C_R   0.308896 0.571123 0.718256 -0.152448
C18   C     C_R   0.785470 0.427698 0.190628 -0.144982
H5    H     H_    0.302755 0.443993 0.750921 0.121136
H6    H     H_    0.754058 0.554367 0.194058 0.120625
C19   C     C_R   0.272102 0.743368 0.722819 0.057762
C20   C     C_R   0.777765 0.254741 0.228794 0.051939
C21   C     C_R   0.180254 0.595151 0.778024 -0.230884
C22   C     C_R   0.718422 0.402558 0.321627 -0.231046
H7    H     H_    0.183080 0.461591 0.747481 0.118847
H8    H     H_    0.747732 0.535398 0.321708 0.120167
C23   C     C_R   0.132759 0.605151 0.822771 0.460219
C24   C     C_R   0.672441 0.393314 0.368141 0.462657
C25   C     C_R   0.127462 0.777626 0.863574 -0.156788
C26   C     C_R   0.632795 0.222065 0.369360 -0.157553
C27   C     C_R   0.168832 0.938128 0.856029 -0.223380
C28   C     C_R   0.642925 0.061769 0.325494 -0.221390
H9    H     H_    0.166222 0.071960 0.886529 0.177730
H10   H     H_    0.613896 0.928352 0.325300 0.179288
C29   C     C_R   0.215771 0.926898 0.811057 -0.145768
C30   C     C_R   0.689528 0.072048 0.280002 -0.145648
H11   H     H_    0.248122 0.052460 0.808886 0.120464
H12   H     H_    0.694401 0.946562 0.245768 0.120803
C31   C     C_R   0.222256 0.755210 0.771387 0.051796
C32   C     C_R   0.727825 0.242823 0.277226 0.051125
C33   C     C_R   0.766569 0.626646 0.812076 0.116346
C34   C     C_R   0.265602 0.371868 0.313168 0.097352
C35   C     C_R   0.814212 0.782704 0.817580 -0.142599
C36   C     C_R   0.313617 0.216665 0.318401 -0.145041
C37   C     C_R   0.791861 0.925866 0.758339 -0.186020
C38   C     C_R   0.291250 0.073251 0.259297 -0.177819
H13   H     H_    0.825961 0.050017 0.760092 0.124074
H14   H     H_    0.325414 0.949157 0.261030 0.127869
C39   C     C_R   0.727424 0.903749 0.693161 -0.176616
C40   C     C_R   0.226849 0.095368 0.194080 -0.168133
H15   H     H_    0.713531 0.013600 0.647325 0.118955
H16   H     H_    0.213106 0.985600 0.148229 0.122779
C41   C     C_R   0.683665 0.736905 0.684747 -0.117112
C42   C     C_R   0.183088 0.262369 0.185513 -0.107992
C43   C     C_R   0.703505 0.603882 0.747075 0.062785
C44   C     C_R   0.202541 0.394598 0.248150 0.050360
C45   C     C_3   0.712232 0.390529 0.745111 -0.408877
C46   C     C_3   0.210504 0.608276 0.246923 -0.404434
C47   C     C_3   0.780401 0.413815 0.817422 -0.034032
C48   C     C_3   0.278747 0.584898 0.319200 -0.015633
H17   H     H_    0.724075 0.343377 0.690854 0.139051
H18   H     H_    0.222217 0.657504 0.192873 0.147055
H19   H     H_    0.666926 0.312077 0.756726 0.185230
H20   H     H_    0.164886 0.684837 0.258746 0.172923
H21   H     H_    0.831468 0.374048 0.806143 0.139023
H22   H     H_    0.329711 0.626386 0.308107 0.144526
C49   C     C_3   0.773272 0.326704 0.893607 -0.706344
H23   H     H_    0.721194 0.368886 0.901981 0.201750
H24   H     H_    0.775996 0.166888 0.891135 0.212030
H25   H     H_    0.818361 0.378818 0.945395 0.202982
C50   C     C_3   0.271364 0.669647 0.395621 -0.740117
H26   H     H_    0.218653 0.629830 0.402946 0.194159
H27   H     H_    0.315527 0.613387 0.447376 0.204307
H28   H     H_    0.275537 0.829311 0.394350 0.212404
O21   O     O_3   0.341823 0.061195 0.595609 -0.547405
C51   C     C_3   0.276529 0.125960 0.539174 -0.268972
H29   H     H_    0.244125 0.211214 0.568492 0.137396
H30   H     H_    0.243591 0.005181 0.503953 0.119831
H31   H     H_    0.290231 0.223626 0.496669 0.158537
O22   O     O_3   0.903653 0.938901 0.168520 -0.550119
C52   C     C_3   0.968000 0.927491 0.234219 -0.226459
H32   H     H_    0.956017 0.910952 0.290980 0.116616
H33   H     H_    0.003353 0.055524 0.237160 0.111044
H34   H     H_    0.998733 0.797805 0.227006 0.158840
O23   O     O_3   0.094394 0.441699 0.829269 -0.548804
C53   C     C_3   0.029511 0.436467 0.764084 -0.230355
H35   H     H_    0.040709 0.422818 0.706770 0.117287
H36   H     H_    0.995264 0.565884 0.763079 0.107671
H37   H     H_    0.997971 0.307563 0.770255 0.155113
O24   O     O_3   0.663925 0.556637 0.408997 -0.549165
C54   C     C_3   0.721550 0.565072 0.481718 -0.239192
H38   H     H_    0.774927 0.578539 0.471972 0.120287
H39   H     H_    0.721358 0.437148 0.519633 0.109696
H40   H     H_    0.714337 0.695433 0.514645 0.148395

loop_
_geom_bond_atom_site_label_1
_geom_bond_atom_site_label_2
_ccdc_geom_bond_type
V4    O20   S    
C29   H11   S    
O13   V3    S    
C49   H23   S    
O4    C2    A    
V1    O19   S    
C51   H30   S    
C53   H35   S    
C45   H19   S    
C49   H25   S    
C13   C15   A    
O18   C8    A    
O9    V1    S    
C38   H14   S    
C30   C32   A    
C44   C46   S    
O3    C1    A    
C52   H33   S    
C46   C48   S    
C25   C27   A    
C8    C14   S    
C9    C19   A    
O22   C52   S    
C28   H10   S    
C16   C18   A    
C17   H5    S    
C33   C35   A    
O7    C3    A    
O24   C54   S    
C6    C42   S    
C1    O11   A    
O5    C7    A    
O7    V1    S    
O6    C8    A    
O8    V2    S    
C47   C49   S    
O3    V1    S    
O14   V4    S    
C17   C19   A    
C34   C44   A    
C21   C23   A    
C33   C47   S    
C45   C47   S    
C34   C48   S    
C2    O12   A    
C15   H3    S    
C16   H4    S    
C51   H29   S    
C41   C43   A    
C22   H8    S    
O11   V3    S    
C48   H22   S    
C54   H39   S    
O17   V3    S    
C29   C31   A    
C10   C20   A    
C27   H9    S    
C48   C50   S    
C39   H15   S    
C36   C38   A    
O8    C4    A    
C52   H34   S    
C7    C13   S    
C1    C36   S    
C11   O21   S    
C45   H17   S    
O13   V1    S    
C3    C26   S    
C23   O23   S    
O15   V3    S    
C34   C36   A    
C9    C11   A    
C21   H7    S    
C30   H12   S    
C33   C43   A    
C40   C42   A    
C50   H26   S    
C39   C41   A    
O10   V2    S    
O1    V3    S    
C40   H16   S    
C21   C31   A    
C50   H27   S    
O18   V4    S    
C42   C44   A    
C23   C25   A    
C46   H18   S    
O16   C6    A    
O1    C3    A    
C37   H13   S    
O12   V4    S    
C35   C37   A    
O23   C53   S    
V2    O20   S    
C54   H40   S    
C4    C25   S    
C18   C20   A    
C2    C35   S    
C37   C39   A    
C5    C41   S    
C43   C45   S    
C10   C12   A    
C24   O24   S    
C14   C16   A    
C22   C32   A    
C53   H36   S    
C54   H38   S    
C49   H24   S    
C19   C31   S    
O5    V1    S    
O17   C7    A    
O6    V2    S    
O10   C6    A    
C27   C29   A    
O2    V4    S    
C28   C30   A    
O15   C5    A    
C11   C13   A    
O16   V4    S    
C52   H32   S    
C12   C14   A    
C20   C32   S    
C47   H21   S    
O9    C5    A    
C9    H1    S    
C10   H2    S    
C24   C26   A    
O14   V2    S    
C12   O22   S    
O2    C4    A    
C53   H37   S    
O4    V2    S    
C18   H6    S    
C50   H28   S    
V3    O19   S    
C38   C40   A    
O21   C51   S    
C15   C17   A    
C46   H20   S    
C26   C28   A    
C51   H31   S    
C22   C24   A    
