data_mof_unit_9374.cif
_audit_creation_date              2012-12-10T17:36:17-0500
_audit_creation_method            fapswitch 2.2
_symmetry_space_group_name_H-M    P1
_symmetry_Int_Tables_number       1
_space_group_crystal_system       triclinic
_cell_length_a                    12.335622
_cell_length_b                    13.197205
_cell_length_c                    15.856966
_cell_angle_alpha                 77.772844
_cell_angle_beta                  101.204982
_cell_angle_gamma                 116.627911
_cell_volume                      2240.65652765

loop_
_atom_site_label
_atom_site_type_symbol
_atom_type_description
_atom_site_fract_x
_atom_site_fract_y
_atom_site_fract_z
_atom_type_partial_charge
C1    C     C_R   0.854875 0.286632 0.508068 0.763324
C2    C     C_3   0.056160 0.421177 0.070570 -0.375455
C3    C     C_3   0.000026 0.500601 0.082590 0.332079
C4    C     C_3   0.076054 0.623505 0.038992 -0.380835
C5    C     C_3   0.076118 0.624397 0.941139 -0.371302
C6    C     C_1   0.000185 0.499973 0.174977 -0.119011
C7    C     C_1   0.000492 0.502872 0.824452 -0.129746
C8    C     C_1   0.000471 0.502233 0.748945 -0.187793
C9    C     C_R   0.276480 0.020436 0.385095 -0.192439
C10   C     C_R   0.227696 0.834398 0.470984 -0.045256
C11   C     C_R   0.814257 0.087409 0.571491 -0.190890
C12   C     C_R   0.000070 0.500490 0.659507 0.830542
C13   C     C_R   0.734451 0.973918 0.592698 -0.148825
C14   C     C_R   0.611304 0.935762 0.561814 -0.188338
C15   C     C_R   0.565568 0.010377 0.505639 0.081027
C16   C     C_R   0.649811 0.123289 0.477201 0.087954
C17   C     C_R   0.439316 0.976475 0.476019 0.079105
C18   C     C_R   0.400676 0.052581 0.414598 0.172629
C19   C     C_R   0.486511 0.158457 0.381075 -0.241772
C20   C     C_R   0.609312 0.192292 0.410378 -0.196405
C21   C     C_R   0.349894 0.868855 0.505189 -0.251248
C22   C     C_R   0.190280 0.911406 0.412770 -0.196928
C23   C     C_R   0.145003 0.713285 0.487778 0.792916
C24   C     C_R   0.772814 0.163766 0.515793 -0.111013
C25   C     C_R   0.342215 0.324008 0.635078 -0.259225
C26   C     C_R   0.760561 0.646810 0.384629 0.087565
C27   C     C_R   0.665395 0.680157 0.360699 -0.264899
C28   C     C_R   0.562210 0.625371 0.404923 -0.168246
C29   C     C_R   0.552839 0.535879 0.474187 -0.009942
C30   C     C_R   0.653214 0.505428 0.496850 0.233798
C31   C     C_R   0.447938 0.475422 0.521252 -0.107092
C32   C     C_R   0.445053 0.385078 0.589333 0.083016
C33   C     C_R   0.544270 0.356354 0.611881 0.380065
C34   C     C_R   0.000214 0.500050 0.340399 0.821075
C35   C     C_R   0.646269 0.416978 0.566020 -0.286811
C36   C     C_R   0.343896 0.499429 0.503059 0.053029
C37   C     C_R   0.243774 0.352201 0.614058 0.047937
C38   C     C_3   0.056167 0.422011 0.972715 -0.380554
C39   C     C_3   0.867937 0.458854 0.938240 -0.388116
C40   C     C_3   0.867872 0.457996 0.036134 -0.373911
C41   C     C_1   0.000396 0.499850 0.250682 -0.182642
C42   C     C_3   0.000163 0.502117 0.916714 0.337557
Cu1   Cu    Cu3+1 0.098280 0.475420 0.519630 0.934247
Cu2   Cu    Cu3+1 0.901720 0.524580 0.480370 0.921388
H1    H     H_    0.002970 0.332140 0.101284 0.160735
H2    H     H_    0.151365 0.451236 0.958466 0.162002
H3    H     H_    0.151368 0.450112 0.103264 0.161596
H4    H     H_    0.037398 0.682337 0.046637 0.159580
H5    H     H_    0.095690 0.885651 0.385648 0.145445
H6    H     H_    0.458737 0.215178 0.331291 0.142311
H7    H     H_    0.246602 0.078283 0.338324 0.130877
H8    H     H_    0.372562 0.808372 0.553356 0.145781
H9    H     H_    0.908029 0.116267 0.601130 0.152093
H10   H     H_    0.555308 0.846830 0.582164 0.128640
H11   H     H_    0.767558 0.915728 0.635692 0.139933
H12   H     H_    0.002920 0.333366 0.956498 0.163372
H13   H     H_    0.671951 0.272287 0.378154 0.173270
H14   H     H_    0.164685 0.305308 0.649262 0.122884
H15   H     H_    0.337595 0.255047 0.687458 0.176946
H16   H     H_    0.337942 0.565994 0.452397 0.121205
H17   H     H_    0.840479 0.689987 0.350132 0.118981
H18   H     H_    0.491455 0.654798 0.383377 0.131215
H19   H     H_    0.671611 0.748726 0.307688 0.138879
H20   H     H_    0.717926 0.390844 0.585897 0.214041
H21   H     H_    0.825506 0.515040 0.898814 0.159529
H22   H     H_    0.811378 0.370893 0.921368 0.160739
H23   H     H_    0.811294 0.369610 0.066206 0.159590
H24   H     H_    0.825451 0.513837 0.043712 0.160174
H25   H     H_    0.171704 0.657399 0.926329 0.161382
H26   H     H_    0.037458 0.683620 0.901826 0.160926
H27   H     H_    0.171614 0.656087 0.071130 0.160602
N1    N     N_R   0.246300 0.438200 0.549400 -0.177754
N2    N     N_R   0.754300 0.561180 0.451130 -0.191177
O1    O     O_R   0.972520 0.318130 0.524690 -0.577622
O2    O     O_R   0.806530 0.359650 0.491530 -0.602981
O3    O     O_R   0.083030 0.479240 0.637150 -0.574413
O4    O     O_R   0.917040 0.520750 0.603990 -0.594486
O5    O     O_R   0.193470 0.640350 0.508470 -0.589429
O6    O     O_R   0.027480 0.681870 0.475310 -0.586694
O7    O     O_R   0.082960 0.479250 0.396010 -0.574878
O8    O     O_R   0.916970 0.520760 0.362850 -0.587957
O9    O     O_3   0.531327 0.257764 0.670427 -0.612843
C43   C     C_3   0.632805 0.273387 0.734556 0.026243
H28   H     H_    0.598240 0.249275 0.798916 0.161244
H29   H     H_    0.704401 0.363246 0.733125 0.122919
C44   C     C_3   0.687931 0.192662 0.727060 -0.294719
H30   H     H_    0.613890 0.105315 0.721984 0.239625
H31   H     H_    0.734217 0.223063 0.667310 0.205665
C45   C     C_3   0.779625 0.185579 0.805214 -0.966056
H32   H     H_    0.856619 0.270794 0.810426 0.260436
H33   H     H_    0.816357 0.125616 0.797282 0.258844
H34   H     H_    0.735054 0.153713 0.865950 0.252746

loop_
_geom_bond_atom_site_label_1
_geom_bond_atom_site_label_2
_ccdc_geom_bond_type
C5    C42   S    
Cu1   N1    S    
C19   C20   A    
C9    H7    S    
C3    C6    S    
C7    C8    T    
C10   C22   A    
Cu1   O5    S    
C26   C27   A    
C5    H26   S    
C30   C35   A    
C1    O1    A    
C28   C29   A    
C26   H17   S    
C38   C42   S    
C44   H31   S    
C9    C22   A    
C15   C16   A    
C11   C24   A    
C26   N2    A    
C18   C19   A    
C7    C42   S    
C5    H25   S    
C34   O7    A    
C43   H28   S    
C6    C41   T    
C35   H20   S    
C34   O8    A    
C45   H33   S    
C33   O9    S    
C37   H14   S    
C11   H9    S    
C8    C12   S    
C25   C37   A    
Cu1   O1    S    
C16   C24   A    
C13   C14   A    
C39   H21   S    
C34   C41   S    
C39   C42   S    
C10   C21   A    
C1    O2    A    
Cu2   O8    S    
C39   C40   S    
C30   N2    A    
C44   H30   S    
Cu1   O7    S    
C40   H23   S    
C17   C21   A    
Cu2   O2    S    
Cu1   Cu2   S    
C29   C30   A    
C2    C38   S    
C31   C32   A    
C16   C20   A    
C12   O4    A    
C17   C18   A    
C45   H34   S    
C27   H19   S    
C22   H5    S    
C43   H29   S    
C3    C40   S    
C12   O3    A    
C2    H3    S    
C39   H22   S    
C3    C4    S    
C4    H4    S    
Cu1   O3    S    
C15   C17   A    
Cu2   O4    S    
C14   H10   S    
C14   C15   A    
Cu2   O6    S    
C4    C5    S    
C36   H16   S    
C44   C45   S    
C10   C23   S    
C32   C33   A    
C2    C3    S    
C20   H13   S    
C29   C31   A    
C11   C13   A    
C19   H6    S    
C25   C32   A    
C33   C35   A    
C4    H27   S    
C23   O5    A    
Cu2   N2    S    
C38   H2    S    
C2    H1    S    
C9    C18   A    
C43   C44   S    
C38   H12   S    
C1    C24   S    
O9    C43   S    
C40   H24   S    
C37   N1    A    
C27   C28   A    
C31   C36   A    
C25   H15   S    
C23   O6    A    
C45   H32   S    
C21   H8    S    
C36   N1    A    
C13   H11   S    
C28   H18   S    
