data_mof_unit_56975.cif
_audit_creation_date              2012-12-10T18:47:47-0500
_audit_creation_method            fapswitch 2.2
_symmetry_space_group_name_H-M    P1
_symmetry_Int_Tables_number       1
_space_group_crystal_system       triclinic
_cell_length_a                    9.843584
_cell_length_b                    10.700367
_cell_length_c                    15.463123
_cell_angle_alpha                 89.897365
_cell_angle_beta                  68.061104
_cell_angle_gamma                 90.022601
_cell_volume                      1510.77870719

loop_
_atom_site_label
_atom_site_type_symbol
_atom_type_description
_atom_site_fract_x
_atom_site_fract_y
_atom_site_fract_z
_atom_type_partial_charge
C1    C     C_R   0.500214 0.740097 0.499729 0.863752
C2    C     C_R   0.367053 0.935875 0.526617 -0.198711
C3    C     C_R   0.500484 0.127505 0.498767 -0.012027
C4    C     C_R   0.500510 0.872528 0.499019 -0.013194
C5    C     C_R   0.964087 0.427602 0.438486 -0.085859
C6    C     C_R   0.035953 0.572477 0.561438 -0.082989
C7    C     C_R   0.107926 0.427586 0.438535 -0.074481
C8    C     C_R   0.892135 0.572523 0.561370 -0.070519
C9    C     C_R   0.408664 0.498453 0.676063 0.904975
C10   C     C_R   0.591037 0.497881 0.323915 0.904019
C11   C     C_R   0.350547 0.490306 0.777481 -0.117194
C12   C     C_R   0.500179 0.259913 0.499569 0.865184
C13   C     C_R   0.643721 0.472026 0.224310 -0.146872
C14   C     C_R   0.156791 0.525375 0.928475 0.526900
C15   C     C_R   0.805432 0.359321 0.089393 0.566835
C16   C     C_R   0.205806 0.522579 0.830609 -0.337916
C17   C     C_R   0.776180 0.410450 0.177846 -0.283039
C18   C     C_R   0.443930 0.450749 0.820781 -0.273920
C19   C     C_R   0.544023 0.487783 0.181064 -0.286762
C20   C     C_R   0.397530 0.445845 0.917631 0.016012
C21   C     C_R   0.565824 0.432328 0.095605 0.017115
C22   C     C_R   0.253272 0.486775 0.971868 0.097665
C23   C     C_R   0.310196 0.471625 0.110366 -0.284424
C24   C     C_R   0.701948 0.373657 0.046511 0.040285
C25   C     C_R   0.495676 0.411395 0.961362 0.103848
C26   C     C_R   0.456867 0.439027 0.056686 0.113085
C27   C     C_3   0.971390 0.671054 0.951953 0.048244
C28   C     C_3   0.842463 0.727601 0.031745 -0.301325
C29   C     C_3   0.790477 0.848721 0.001994 -0.994977
C30   C     C_3   0.922437 0.170095 0.061875 0.038355
C31   C     C_3   0.970985 0.135676 0.142205 -0.343719
C32   C     C_3   0.968776 0.994508 0.156709 -0.960403
C33   C     C_R   0.631939 0.352383 0.913073 -0.248916
C34   C     C_R   0.209674 0.492905 0.068671 -0.173909
C35   C     C_R   0.731780 0.331534 0.955829 -0.205654
C36   C     C_R   0.634066 0.936104 0.470670 -0.195243
C37   C     C_R   0.367045 0.063893 0.526474 -0.195341
C38   C     C_R   0.634061 0.064211 0.470492 -0.195599
H1    H     H_    0.099338 0.519893 0.112523 0.190547
H2    H     H_    0.263211 0.112765 0.548981 0.156038
H3    H     H_    0.737833 0.113409 0.447823 0.150706
H4    H     H_    0.263219 0.886788 0.549214 0.150465
H5    H     H_    0.938385 0.369755 0.389305 0.116111
H6    H     H_    0.061697 0.630399 0.610554 0.115770
H7    H     H_    0.191164 0.369630 0.389379 0.130509
H8    H     H_    0.808957 0.630620 0.610419 0.129373
H9    H     H_    0.934578 0.649980 0.893748 0.150551
H10   H     H_    0.062177 0.740997 0.928841 0.128893
H11   H     H_    0.750270 0.659951 0.054655 0.240753
H12   H     H_    0.834255 0.285486 0.916475 0.178612
H13   H     H_    0.875731 0.746529 0.091681 0.223156
H14   H     H_    0.881284 0.917664 0.977637 0.258277
H15   H     H_    0.699471 0.889023 0.062158 0.267245
H16   H     H_    0.750436 0.830281 0.944912 0.269622
H17   H     H_    0.995532 0.121863 0.997860 0.169295
H18   H     H_    0.809448 0.134197 0.076121 0.124763
H19   H     H_    0.083714 0.171402 0.126819 0.237757
H20   H     H_    0.896354 0.179253 0.207835 0.204314
H21   H     H_    0.855849 0.957811 0.175084 0.270657
H22   H     H_    0.005717 0.972640 0.214665 0.262636
H23   H     H_    0.448160 0.544083 0.216032 0.173467
H24   H     H_    0.043347 0.947596 0.092493 0.267313
H25   H     H_    0.555603 0.429398 0.777286 0.169877
H26   H     H_    0.854177 0.398066 0.211337 0.152048
H27   H     H_    0.133012 0.548371 0.795689 0.152139
H28   H     H_    0.269574 0.478710 0.185434 0.150315
H29   H     H_    0.662215 0.317439 0.842965 0.148512
H30   H     H_    0.737836 0.887131 0.448147 0.155977
N1    N     N_R   0.142780 0.500030 0.500020 -0.075615
N2    N     N_R   0.857220 0.499970 0.499980 -0.075839
O1    O     O_R   0.385370 0.683250 0.500010 -0.623666
O2    O     O_3   0.938003 0.300175 0.043936 -0.637013
O3    O     O_R   0.614630 0.316750 0.499990 -0.624512
O4    O     O_R   0.614700 0.683220 0.500000 -0.622909
O5    O     O_R   0.385300 0.316780 0.500000 -0.622476
O6    O     O_R   0.319830 0.500020 0.632250 -0.616321
O7    O     O_R   0.680170 0.499980 0.367750 -0.619227
O8    O     O_R   0.549160 0.499990 0.632240 -0.620283
O9    O     O_R   0.450840 0.500010 0.367760 -0.615340
O10   O     O_3   0.014336 0.559525 0.983714 -0.640977
Zn1   Zn    Zn3+2 0.346870 0.500020 0.500000 0.939142
Zn2   Zn    Zn3+2 0.653130 0.499980 0.500000 0.936058

loop_
_geom_bond_atom_site_label_1
_geom_bond_atom_site_label_2
_ccdc_geom_bond_type
C27   H10   S    
C6    N1    A    
C21   C26   A    
C4    C36   A    
C11   C18   A    
C15   O2    S    
C33   H29   S    
C1    O1    A    
C1    O4    A    
C7    H7    S    
C31   H20   S    
C28   C29   S    
C19   C21   A    
C19   H23   S    
C37   H2    S    
C17   H26   S    
C30   C31   S    
C28   H13   S    
C18   H25   S    
C29   H16   S    
C28   H11   S    
C23   C26   A    
C3    C12   S    
C3    C38   A    
C9    O6    A    
C14   O10   S    
C5    H5    S    
C6    H6    S    
C12   O3    A    
O4    Zn2   S    
C10   O7    A    
C22   C34   A    
C24   C35   A    
C13   C19   A    
C34   H1    S    
C38   H3    S    
C27   O10   S    
C5    C7    A    
O5    Zn1   S    
C6    C8    A    
C25   C26   A    
C30   H18   S    
C2    C4    A    
C5    N2    A    
C11   C16   A    
O8    Zn2   S    
C31   C32   S    
C23   C34   A    
C35   H12   S    
C9    C11   S    
C15   C24   A    
C20   C22   A    
C14   C16   A    
C12   O5    A    
C32   H22   S    
O3    Zn2   S    
C23   H28   S    
O9    Zn1   S    
C27   H9    S    
C15   C17   A    
C10   C13   S    
O6    Zn1   S    
C7    N1    A    
C30   O2    S    
C10   O9    A    
C36   H30   S    
C30   H17   S    
C8    N2    A    
C13   C17   A    
C1    C4    S    
C14   C22   A    
C36   C38   A    
C32   H24   S    
C2    C37   A    
C31   H19   S    
C29   H15   S    
O7    Zn2   S    
C2    H4    S    
C33   C35   A    
C18   C20   A    
C9    O8    A    
N2    Zn2   S    
C8    H8    S    
N1    Zn1   S    
C3    C37   A    
C20   C25   A    
C21   C24   A    
C27   C28   S    
C16   H27   S    
C32   H21   S    
C25   C33   A    
O1    Zn1   S    
C29   H14   S    
