data_mof_unit_19412.cif
_audit_creation_date              2012-10-26T20:42:32-0400
_audit_creation_method            fapswitch 2.2
_symmetry_space_group_name_H-M    P1
_symmetry_Int_Tables_number       1
_space_group_crystal_system       triclinic
_cell_length_a                    10.772761
_cell_length_b                    9.551874
_cell_length_c                    10.934346
_cell_angle_alpha                 87.470614
_cell_angle_beta                  90.947756
_cell_angle_gamma                 89.432526
_cell_volume                      1123.83113668

loop_
_atom_site_label
_atom_site_type_symbol
_atom_type_description
_atom_site_fract_x
_atom_site_fract_y
_atom_site_fract_z
_atom_type_partial_charge
C1    C     C_R   0.262328 0.500506 0.497397 0.581160
C2    C     C_R   0.938401 0.415161 0.580489 -0.187714
C3    C     C_R   0.871185 0.498310 0.494056 0.048503
C4    C     C_R   0.128329 0.500725 0.493780 0.045911
C5    C     C_R   0.931557 0.578810 0.402842 0.089467
C6    C     C_R   0.061971 0.578139 0.401396 0.090728
C7    C     C_R   0.414171 0.079483 0.433041 0.014161
C8    C     C_R   0.584634 0.070505 0.568875 0.002085
C9    C     C_R   0.413338 0.930939 0.433134 0.187564
C10   C     C_R   0.584859 0.921605 0.569543 0.196742
C11   C     C_3   0.727629 0.428450 0.881521 0.000506
C12   C     C_R   0.737545 0.499369 0.498940 0.571126
C13   C     C_3   0.723886 0.282559 0.946132 -0.274917
C14   C     C_3   0.832846 0.191108 0.909422 -0.486557
C15   C     C_3   0.401490 0.740947 0.082810 0.008654
C16   C     C_3   0.360809 0.794772 0.954398 -0.260280
C17   C     C_3   0.262346 0.910238 0.959754 -0.497389
C18   C     C_R   0.492853 0.503507 0.265120 0.588405
C19   C     C_R   0.503363 0.496302 0.734066 0.570790
C20   C     C_2   0.423858 0.426793 0.931758 0.081904
C21   C     C_2   0.434765 0.409518 0.066439 0.089242
C22   C     C_2   0.517695 0.482150 0.865744 0.331867
C23   C     C_2   0.475155 0.516973 0.132313 0.315441
C24   C     C_R   0.066699 0.417400 0.581118 -0.178759
Cu1   Cu    Cu3+1 0.500000 0.640660 0.500000 1.036496
Cu2   Cu    Cu3+1 0.500000 0.359340 0.500000 0.946454
H1    H     H_    0.118126 0.355107 0.650435 0.139558
H2    H     H_    0.728229 0.420405 0.780425 0.118153
H3    H     H_    0.727075 0.293628 0.046916 0.182386
H4    H     H_    0.636178 0.229418 0.921746 0.154374
H5    H     H_    0.827708 0.173203 0.809807 0.136915
H6    H     H_    0.829304 0.088008 0.960225 0.154742
H7    H     H_    0.922353 0.241717 0.931626 0.143644
H8    H     H_    0.436328 0.830943 0.133617 0.169756
H9    H     H_    0.319189 0.697341 0.131663 0.131170
H10   H     H_    0.442479 0.836656 0.904396 0.190656
H11   H     H_    0.322062 0.707025 0.902993 0.169487
H12   H     H_    0.891547 0.350782 0.648894 0.104426
H13   H     H_    0.178918 0.869991 0.007643 0.146182
H14   H     H_    0.234647 0.946837 0.865334 0.154405
H15   H     H_    0.299649 0.000607 0.008691 0.134547
H16   H     H_    0.883201 0.622254 0.224760 0.229626
H17   H     H_    0.881549 0.762753 0.314926 0.227234
H18   H     H_    0.096681 0.751728 0.294382 0.221945
H19   H     H_    0.104447 0.599232 0.222106 0.210146
H20   H     H_    0.234032 0.887190 0.410077 0.212781
H21   H     H_    0.311214 0.910697 0.279254 0.177075
H22   H     H_    0.761872 0.875093 0.619658 0.203123
H23   H     H_    0.345074 0.139639 0.379767 0.133832
H24   H     H_    0.660281 0.871510 0.735835 0.209296
H25   H     H_    0.651971 0.123658 0.624343 0.105585
H26   H     H_    0.236884 0.431336 0.910567 0.213269
H27   H     H_    0.304062 0.273914 0.887431 0.226644
H28   H     H_    0.444043 0.198324 0.087542 0.220927
H29   H     H_    0.300903 0.267925 0.107049 0.212394
H30   H     H_    0.816674 0.478395 0.906476 0.154499
N1    N     N_R   0.500000 0.852070 0.500000 -0.165362
N2    N     N_R   0.500000 0.147940 0.500000 -0.249476
N3    N     N_3   0.312522 0.382010 0.871220 -0.675018
N4    N     N_3   0.395478 0.280585 0.125662 -0.655110
N5    N     N_3   0.859656 0.656702 0.310847 -0.603121
N6    N     N_3   0.127199 0.647621 0.303265 -0.632398
N7    N     N_3   0.317308 0.863841 0.367267 -0.559741
N8    N     N_3   0.672888 0.843982 0.645338 -0.555842
O1    O     O_R   0.319640 0.618740 0.499990 -0.459046
O2    O     O_3   0.501683 0.645398 0.074225 -0.541867
O3    O     O_R   0.680360 0.618740 0.500010 -0.448078
O4    O     O_R   0.319620 0.381170 0.499990 -0.517126
O5    O     O_R   0.680380 0.381170 0.500010 -0.525564
O6    O     O_R   0.500000 0.618750 0.321940 -0.468022
O7    O     O_R   0.500000 0.618750 0.678060 -0.486259
O8    O     O_R   0.499970 0.381180 0.321940 -0.487027
O9    O     O_R   0.500030 0.381180 0.678060 -0.521407
O10   O     O_3   0.630330 0.515443 0.921094 -0.549898

loop_
_geom_bond_atom_site_label_1
_geom_bond_atom_site_label_2
_ccdc_geom_bond_type
C16   H11   S    
C18   O6    A    
C1    O1    A    
C12   O5    A    
C10   N1    A    
Cu1   O7    S    
H26   N3    S    
Cu2   N2    S    
C2    H12   S    
C15   H8    S    
C19   O7    A    
C6    N6    S    
C8    H25   S    
C24   H1    S    
C14   H5    S    
C1    C4    S    
Cu2   O4    S    
C1    O4    A    
C14   H7    S    
C9    N7    S    
C2    C3    A    
H27   N3    S    
C5    N5    S    
H28   N4    S    
C13   C14   S    
C16   H10   S    
C20   N3    S    
C18   O8    A    
C11   C13   S    
H16   N5    S    
C7    H23   S    
H20   N7    S    
Cu1   N1    S    
C11   H2    S    
Cu1   O6    S    
C23   O2    S    
C15   H9    S    
C20   C22   D    
C9    N1    A    
C21   C23   D    
C2    C24   A    
C5    C6    A    
C4    C24   A    
C12   O3    A    
C17   H15   S    
H22   N8    S    
H19   N6    S    
C22   O10   S    
C18   C23   S    
C3    C5    A    
C13   H4    S    
C19   O9    A    
C19   C22   S    
H24   N8    S    
C20   C21   S    
H17   N5    S    
C21   N4    S    
C4    C6    A    
C17   H13   S    
C13   H3    S    
Cu2   O8    S    
C7    C9    A    
Cu1   O1    S    
Cu2   O5    S    
C7    N2    A    
C8    N2    A    
Cu1   Cu2   S    
H29   N4    S    
C15   O2    S    
C3    C12   S    
Cu2   O9    S    
C17   H14   S    
C8    C10   A    
C10   N8    S    
C11   H30   S    
C15   C16   S    
H21   N7    S    
C14   H6    S    
C16   C17   S    
H18   N6    S    
C11   O10   S    
Cu1   O3    S    
