data_mof_unit_48626.cif
_audit_creation_date              2013-03-05T15:41:43-0500
_audit_creation_method            fapswitch 2.2
_symmetry_space_group_name_H-M    P1
_symmetry_Int_Tables_number       1
_space_group_crystal_system       triclinic
_cell_length_a                    6.9506
_cell_length_b                    13.745472
_cell_length_c                    20.424309
_cell_angle_alpha                 102.109171
_cell_angle_beta                  90.366705
_cell_angle_gamma                 90.896755
_cell_volume                      1907.5788766

loop_
_atom_site_label
_atom_site_type_symbol
_atom_site_description
_atom_site_fract_x
_atom_site_fract_y
_atom_site_fract_z
_atom_type_partial_charge
O1    O     O_R   0.506860 0.599390 0.449240 -0.563119
O2    O     O_R   0.180220 0.594600 0.586780 -0.514199
O3    O     O_R   0.004500 0.400610 0.550760 -0.562895
C1    C     C_R   0.350618 0.616757 0.613262 0.795183
O4    O     O_R   0.177490 0.611290 0.451970 -0.566225
O5    O     O_R   0.001750 0.417420 0.414990 -0.528821
C2    C     C_R   0.347035 0.635635 0.433455 0.851998
O6    O     O_R   0.509610 0.582580 0.585010 -0.537020
O7    O     O_3   0.337420 0.436370 0.488020 -0.271093
V1    V     V_3+5 0.064680 0.511800 0.502220 1.249450
O8    O     O_R   0.671710 0.405400 0.413220 -0.570050
C3    C     C_R   0.839143 0.382622 0.386870 0.769861
O9    O     O_R   0.674440 0.388710 0.548030 -0.570355
C4    C     C_R   0.842740 0.365060 0.566805 0.837534
V2    V     V_3+5 0.564010 0.488200 0.497780 1.227758
O10   O     O_3   0.841140 0.563630 0.511980 -0.250803
C5    C     C_R   0.972467 0.128542 0.615368 -0.001515
H1    H     H_    0.966718 0.181900 0.524533 0.117972
H2    H     H_    0.026260 0.057396 0.589583 0.165731
C6    C     C_R   0.855287 0.289516 0.607283 -0.155933
C7    C     C_R   0.831981 0.313268 0.929897 0.334219
C8    C     C_R   0.848501 0.391064 0.895518 -0.054882
C9    C     C_R   0.887245 0.372275 0.827130 0.456961
C10   C     C_R   0.885777 0.272262 0.789293 -0.028348
C11   C     C_R   0.894887 0.194313 0.825331 -0.155106
C12   C     C_R   0.885073 0.246968 0.717544 0.002046
C13   C     C_R   0.945183 0.150611 0.685019 -0.060688
C14   C     C_R   0.974332 0.077090 0.722265 0.380962
C15   C     C_R   0.939357 0.097496 0.790838 -0.092494
C16   C     C_R   0.817291 0.311918 0.676954 0.358291
C17   C     C_R   0.935278 0.198835 0.577602 -0.123308
C18   C     C_R   0.863679 0.215348 0.895469 -0.091514
H3    H     H_    0.842497 0.467564 0.922839 0.116322
H4    H     H_    0.952994 0.037188 0.817098 0.071591
C19   C     C_2   0.999814 0.290979 0.283043 0.409278
C20   C     C_2   0.840811 0.307242 0.322129 0.313636
C21   C     C_2   0.000284 0.211429 0.220278 -0.005181
C22   C     C_2   0.862384 0.200650 0.172364 0.317508
H5    H     H_    0.123204 0.162549 0.212820 0.037047
C23   C     C_2   0.239732 0.811546 0.776382 -0.028134
C24   C     C_2   0.347945 0.799093 0.828704 0.290523
H6    H     H_    0.155601 0.878585 0.782062 0.059294
C25   C     C_2   0.218443 0.737298 0.711246 0.381199
C26   C     C_2   0.370913 0.689575 0.678422 0.229374
C27   C     C_R   0.547771 0.862145 0.384664 0.449522
H7    H     H_    0.534392 0.804998 0.473912 0.139129
C28   C     C_R   0.367054 0.713785 0.394668 -0.233178
C29   C     C_R   0.297197 0.690867 0.074885 0.203647
C30   C     C_R   0.310358 0.612425 0.109368 0.292901
C31   C     C_R   0.364724 0.633016 0.177216 0.422529
C32   C     C_R   0.383395 0.733478 0.213606 -0.108745
C33   C     C_R   0.400040 0.810466 0.176948 -0.148230
C34   C     C_R   0.396365 0.758428 0.285029 -0.028760
C35   C     C_R   0.490341 0.848827 0.316327 -0.178269
C36   C     C_R   0.518017 0.923841 0.279223 0.301461
C37   C     C_R   0.457951 0.907644 0.211472 0.351345
C38   C     C_R   0.314337 0.697003 0.326072 0.375253
C39   C     C_R   0.484238 0.795367 0.422498 -0.102752
C40   C     C_R   0.355463 0.787587 0.106959 -0.132330
O11   O     O_R   0.203230 0.917310 0.915020 -0.580665
O12   O     O_R   0.535500 0.888690 0.048040 -0.552701
O13   O     O_R   0.711080 0.082610 0.085000 -0.536354
C41   C     C_R   0.366179 0.863075 0.065532 1.033190
O14   O     O_R   0.532630 0.905370 0.913230 -0.562789
O15   O     O_R   0.708190 0.099410 0.949230 -0.554911
C42   C     C_R   0.362006 0.879942 0.888969 0.767905
O16   O     O_R   0.206120 0.900510 0.050790 -0.548598
O17   O     O_3   0.375360 0.063570 0.011990 -0.263009
V3    V     V_3+5 0.648170 0.988200 0.997780 1.229177
O18   O     O_R   0.038240 0.111390 0.951940 -0.563785
C43   C     C_R   0.870110 0.136569 0.934201 0.905466
O19   O     O_R   0.041120 0.094710 0.086750 -0.567593
C44   C     C_R   0.872906 0.119591 0.111663 0.796922
V4    V     V_3+5 0.148810 0.011930 0.002180 1.225094
O20   O     O_3   0.871750 0.936430 0.988010 -0.278959
O21   O     O_3   0.677954 0.248876 0.301935 -0.663061
H8    H     H_    0.576715 0.263959 0.336195 0.350749
O22   O     O_3   0.716538 0.269353 0.178425 -0.664400
H9    H     H_    0.636317 0.254913 0.137127 0.339637
O23   O     O_3   0.438266 0.709781 0.827196 -0.662617
H10   H     H_    0.504262 0.713520 0.870868 0.331575
O24   O     O_3   0.039746 0.723575 0.681049 -0.639281
H11   H     H_    0.950464 0.767114 0.710556 0.390495
N1    N     N_R   0.562516 0.714879 0.703172 0.089347
O25   O     O_R   0.680284 0.644884 0.709899 -0.288017
O26   O     O_R   0.618496 0.807700 0.719181 -0.349748
N2    N     N_R   0.595624 0.019429 0.310712 0.087291
O27   O     O_R   0.759953 0.049320 0.291200 -0.370106
O28   O     O_R   0.499787 0.077605 0.357269 -0.325314
O29   O     O_3   0.677371 0.934552 0.415162 -0.655166
H12   H     H_    0.783760 0.935777 0.383251 0.331360
N3    N     N_R   0.030398 0.979317 0.689976 0.054751
O30   O     O_R   0.212101 0.961739 0.679312 -0.373475
O31   O     O_R   0.902686 0.919165 0.655550 -0.307756
O32   O     O_3   0.180757 0.624108 0.298015 -0.675613
H13   H     H_    0.120618 0.594352 0.333027 0.323531
O33   O     O_3   0.236034 0.674991 0.008841 -0.705663
H14   H     H_    0.156094 0.613345 0.998276 0.350435
O34   O     O_3   0.420233 0.553268 0.203974 -0.610028
H15   H     H_    0.519207 0.576788 0.239116 0.309874
N4    N     N_R   0.284780 0.510626 0.074440 0.104807
O35   O     O_R   0.367410 0.478994 0.017078 -0.349892
O36   O     O_R   0.192603 0.447202 0.102437 -0.279009
O37   O     O_3   0.457429 0.985699 0.178279 -0.722441
H16   H     H_    0.459628 0.050377 0.210556 0.349371
O38   O     O_3   0.707030 0.392331 0.705901 -0.668579
H17   H     H_    0.654144 0.425295 0.671323 0.328269
O39   O     O_3   0.798040 0.331659 0.997973 -0.682132
H18   H     H_    0.780884 0.404117 0.014592 0.347468
O40   O     O_3   0.947555 0.452777 0.801578 -0.632066
H19   H     H_    0.037888 0.428773 0.764568 0.316536
O41   O     O_3   0.168007 0.344152 0.303295 -0.716693
H20   H     H_    0.266996 0.322812 0.268717 0.341587

loop_
_geom_bond_atom_site_label_1
_geom_bond_atom_site_label_2
_geom_bond_distance
_ccdc_geom_bond_type
N2    O27   1.300797 A    
N4    O35   1.301613 A    
O32   H13   0.987217 S    
C1    O6    1.298285 A    
C24   O23   1.382255 S    
O33   H14   0.990106 S    
C6    C16   1.418787 A    
C34   C35   1.419607 A    
C29   O33   1.383530 S    
C31   O34   1.382388 S    
C14   C15   1.393206 A    
C19   C21   1.500354 S    
N1    O26   1.301524 A    
C30   N4    1.438839 S    
O38   H17   0.987593 S    
O17   V4    1.710216 S    
V2    O10   2.161853 S    
O39   H18   0.991864 S    
O12   C41   1.296860 A    
O40   H19   0.991157 S    
O41   H20   0.991878 S    
C20   O21   1.386301 S    
O8    V2    2.014211 S    
C23   C25   1.502149 S    
C19   C20   1.361172 D    
O17   V3    2.166901 S    
O18   V4    2.030746 S    
C9    C10   1.428611 A    
O13   C44   1.295460 A    
O18   C43   1.294811 A    
O1    V2    2.031306 S    
C3    C20   1.499306 S    
O7    V1    2.166846 S    
C11   C18   1.419498 A    
C23   H6    1.085086 S    
C10   C11   1.423425 A    
O11   C42   1.294385 A    
N4    O36   1.301480 A    
O9    C4    1.295989 A    
C16   O38   1.384475 S    
C8    H3    1.083661 S    
O37   H16   0.989318 S    
C18   C43   1.469966 S    
C11   C15   1.408963 A    
C7    C18   1.403129 A    
C41   O16   1.292950 A    
C27   C39   1.387050 A    
V4    O20   2.161829 S    
C32   C33   1.422509 A    
C5    C13   1.405672 A    
C4    C6    1.459930 S    
N1    O25   1.301243 A    
C37   O37   1.384199 S    
O19   V4    2.014227 S    
O4    C2    1.300058 A    
C34   C38   1.424290 A    
O22   H9    0.990974 S    
O19   C44   1.300001 A    
C1    C26   1.492393 S    
O15   C43   1.293807 A    
C15   H4    1.082665 S    
O24   H11   0.985669 S    
O13   V3    2.012720 S    
C32   C34   1.428703 A    
O14   C42   1.296534 A    
O2    C1    1.303621 A    
C25   C26   1.359844 D    
C21   C22   1.349466 D    
C33   C40   1.428631 A    
C28   C38   1.416174 A    
O34   H15   0.991107 S    
C36   C37   1.413918 A    
N3    O31   1.300425 A    
C31   C32   1.427827 A    
C12   C13   1.421902 A    
C14   N3    1.428559 S    
O16   V4    2.035167 S    
O14   V3    2.012966 S    
O21   H8    0.988830 S    
C27   O29   1.376460 S    
O3    C4    1.290347 A    
C23   C24   1.344438 D    
C27   C35   1.422778 A    
C12   C16   1.423003 A    
O6    V2    2.013547 S    
O9    V2    2.030826 S    
C5    C17   1.383208 A    
O2    V1    2.012960 S    
C29   C40   1.405344 A    
O12   V3    2.025783 S    
C9    O40   1.379512 S    
C35   C36   1.413497 A    
C29   C30   1.409888 A    
O1    C2    1.290870 A    
C10   C12   1.433349 A    
O23   H10   0.991705 S    
C26   N1    1.432894 S    
O5    V1    2.012713 S    
O8    C3    1.300284 A    
C24   C42   1.476733 S    
C22   O22   1.384659 S    
C40   C41   1.471338 S    
N2    O28   1.301205 A    
O7    V2    1.711431 S    
O4    V1    2.025808 S    
C21   H5    1.086864 S    
O3    V1    2.028476 S    
V1    O10   1.714764 S    
C28   C39   1.393582 A    
O5    C3    1.302129 A    
O29   H12   0.991094 S    
O15   V3    2.028623 S    
O11   V4    2.014030 S    
N3    O30   1.300713 A    
C5    H2    1.082305 S    
V3    O20   1.714692 S    
C36   N2    1.431698 S    
C7    O39   1.382540 S    
C30   C31   1.403075 A    
C38   O32   1.384760 S    
C13   C14   1.402851 A    
C25   O24   1.375764 S    
C8    C9    1.394941 A    
H1    C17   1.084232 S    
C7    C8    1.400691 A    
C6    C17   1.392574 A    
H7    C39   1.085027 S    
C19   O41   1.382817 S    
C33   C37   1.424015 A    
C2    C28   1.467863 S    
C22   C44   1.485921 S    
