data_mof_unit_33275.cif
_audit_creation_date              2012-12-10T18:23:16-0500
_audit_creation_method            fapswitch 2.2
_symmetry_space_group_name_H-M    P1
_symmetry_Int_Tables_number       1
_space_group_crystal_system       triclinic
_cell_length_a                    27.760237
_cell_length_b                    10.6465
_cell_length_c                    9.463866
_cell_angle_alpha                 89.720983
_cell_angle_beta                  90.382789
_cell_angle_gamma                 90.20795
_cell_volume                      2796.92588894

loop_
_atom_site_label
_atom_site_type_symbol
_atom_type_description
_atom_site_fract_x
_atom_site_fract_y
_atom_site_fract_z
_atom_type_partial_charge
C1    C     C_R   0.500367 0.259973 0.500447 0.918675
C2    C     C_R   0.499633 0.740027 0.499553 0.918675
C3    C     C_R   0.102147 0.490102 0.498753 -0.120892
C4    C     C_R   0.897853 0.509914 0.501256 -0.120892
C5    C     C_R   0.127102 0.452973 0.376043 -0.063900
C6    C     C_R   0.872898 0.547043 0.623966 -0.063897
C7    C     C_R   0.100740 0.407488 0.259333 0.416628
C8    C     C_R   0.899260 0.592528 0.740675 0.416628
C9    C     C_R   0.128575 0.522170 0.620784 -0.070632
C10   C     C_R   0.871425 0.477845 0.379225 -0.070634
C11   C     C_R   0.355047 0.498633 0.497505 -0.180409
C12   C     C_R   0.644953 0.501370 0.502495 -0.180418
C13   C     C_R   0.973514 0.474036 0.373141 0.045686
C14   C     C_R   0.026486 0.525981 0.626867 0.045685
C15   C     C_R   0.975352 0.539139 0.623214 0.038203
C16   C     C_R   0.024648 0.460878 0.376794 0.038203
C17   C     C_R   0.949085 0.506388 0.499588 -0.000833
C18   C     C_R   0.050915 0.493629 0.500421 -0.000833
C19   C     C_R   0.945801 0.462894 0.246134 0.386471
C20   C     C_R   0.054199 0.537123 0.753874 0.386471
C21   C     C_R   0.895482 0.456985 0.252840 -0.207524
C22   C     C_R   0.104518 0.543031 0.747168 -0.207525
C23   C     C_R   0.407810 0.499732 0.499445 0.967286
C24   C     C_R   0.592190 0.500268 0.500555 0.967280
C25   C     C_R   0.050313 0.407113 0.263936 -0.227528
C26   C     C_R   0.949687 0.592905 0.736072 -0.227528
C27   C     C_3   0.505556 0.038489 0.631896 0.395435
C28   C     C_3   0.494444 0.961511 0.368104 0.395434
C29   C     C_3   0.541225 0.957296 0.551318 0.340314
C30   C     C_3   0.458775 0.042704 0.448682 0.340313
C31   C     C_3   0.499137 0.876209 0.498703 -0.160432
C32   C     C_3   0.500863 0.123791 0.501297 -0.160431
C33   C     C_3   0.462577 0.957406 0.581055 -0.353924
C34   C     C_3   0.537423 0.042593 0.418945 -0.353919
C35   C     C_3   0.527380 0.587931 0.049668 0.410398
C36   C     C_3   0.472620 0.412069 0.950332 0.410396
C37   C     C_3   0.484646 0.604009 0.950161 0.431138
C38   C     C_3   0.515354 0.395991 0.049839 0.431136
C39   C     C_3   0.543405 0.482465 0.949842 -0.260929
C40   C     C_3   0.456595 0.517535 0.050158 -0.260924
C41   C     C_R   0.178012 0.457458 0.376843 0.689549
C42   C     C_R   0.821988 0.542556 0.623166 0.689542
C43   C     C_R   0.179014 0.525707 0.616236 0.683135
C44   C     C_R   0.820986 0.474305 0.383774 0.683140
C45   C     C_R   0.279176 0.597295 0.431852 0.273319
C46   C     C_R   0.720825 0.402718 0.568165 0.273325
C47   C     C_R   0.330099 0.597119 0.430060 0.247931
C48   C     C_R   0.669902 0.402892 0.569956 0.247926
C49   C     C_R   0.330205 0.399426 0.563477 0.229221
C50   C     C_R   0.669794 0.600575 0.436518 0.229223
C51   C     C_R   0.279268 0.395859 0.556535 0.324250
C52   C     C_R   0.720731 0.604147 0.443464 0.324252
C53   C     C_R   0.254256 0.496596 0.494781 0.152110
C54   C     C_R   0.745744 0.503415 0.505228 0.152103
Cu1   Cu    Cu3+1 0.500010 0.499990 0.643150 1.103633
Cu2   Cu    Cu3+1 0.499990 0.500010 0.356850 1.103637
H1    H     H_    0.432287 0.922115 0.646341 0.220293
H2    H     H_    0.567713 0.077885 0.353658 0.220295
H3    H     H_    0.579598 0.466397 0.904324 0.207180
H4    H     H_    0.420401 0.533603 0.095675 0.207186
H5    H     H_    0.874998 0.442448 0.156371 0.203635
H6    H     H_    0.125002 0.557567 0.843638 0.203636
H7    H     H_    0.031946 0.357680 0.180440 0.209476
H8    H     H_    0.968054 0.642337 0.819568 0.209477
N1    N     N_R   0.202512 0.495008 0.495143 -0.427470
N2    N     N_R   0.797488 0.505005 0.504866 -0.427470
N3    N     N_3   0.500040 0.499970 0.858290 -0.238163
N4    N     N_3   0.499960 0.500030 0.141710 -0.238163
O1    O     O_R   0.500020 0.316850 0.620870 -0.520326
O2    O     O_R   0.499980 0.683150 0.379130 -0.520324
O3    O     O_R   0.500000 0.316860 0.379090 -0.539195
O4    O     O_R   0.500000 0.683140 0.620910 -0.539195
O5    O     O_R   0.430270 0.500020 0.620880 -0.536155
O6    O     O_R   0.569730 0.499980 0.379120 -0.536151
O7    O     O_R   0.430250 0.500030 0.379090 -0.575995
O8    O     O_R   0.569750 0.499970 0.620910 -0.576000
O9    O     O_2   0.203063 0.424795 0.261100 -0.412735
O10   O     O_2   0.796937 0.575219 0.738909 -0.412741
O11   O     O_2   0.795471 0.440648 0.267960 -0.475716
O12   O     O_2   0.204529 0.559363 0.732050 -0.475716
O13   O     O_3   0.356672 0.307443 0.631639 -0.647117
H9    H     H_    0.337048 0.271264 0.708856 0.371469
O14   O     O_3   0.643327 0.692551 0.368345 -0.647113
H10   H     H_    0.662951 0.728725 0.291127 0.371470
O15   O     O_3   0.512870 0.081149 0.769862 -0.658566
H11   H     H_    0.512798 0.004627 0.829947 0.360690
O16   O     O_3   0.487129 0.918851 0.230138 -0.658564
H12   H     H_    0.487201 0.995373 0.170053 0.360691
O17   O     O_3   0.468054 0.717057 0.892474 -0.672792
H13   H     H_    0.459932 0.770318 0.974480 0.350254
O18   O     O_3   0.531946 0.282943 0.107525 -0.672793
H14   H     H_    0.540067 0.229682 0.025519 0.350252
Cl1   Cl    Cl    0.564773 0.710048 0.116975 -0.470610
Cl2   Cl    Cl    0.435227 0.289953 0.883024 -0.470609
O19   O     O_3   0.252665 0.295356 0.606431 -0.673185
H15   H     H_    0.272424 0.218357 0.600644 0.355344
O20   O     O_3   0.747334 0.704649 0.393563 -0.673183
H16   H     H_    0.727573 0.781646 0.399340 0.355345
O21   O     O_3   0.124514 0.359840 0.143396 -0.646521
H17   H     H_    0.100771 0.334844 0.069904 0.330371
O22   O     O_3   0.875486 0.640176 0.856612 -0.646521
H18   H     H_    0.899229 0.665174 0.930104 0.330371
O23   O     O_3   0.643128 0.307632 0.631687 -0.709369
H19   H     H_    0.664511 0.247884 0.681471 0.387178
O24   O     O_3   0.356874 0.692381 0.368341 -0.709377
H20   H     H_    0.335490 0.752177 0.318635 0.387176
Cl3   Cl    Cl    0.754455 0.277200 0.641258 -0.527087
Cl4   Cl    Cl    0.245545 0.722812 0.358756 -0.527095
O25   O     O_3   0.967576 0.470128 0.115464 -0.721176
H21   H     H_    0.943119 0.461536 0.039214 0.346417
O26   O     O_3   0.032424 0.529889 0.884544 -0.721176
H22   H     H_    0.056881 0.538481 0.960795 0.346417
O27   O     O_3   0.583941 0.908614 0.607835 -0.654249
H23   H     H_    0.604204 0.982844 0.630156 0.357752
O28   O     O_3   0.416059 0.091386 0.392164 -0.654246
H24   H     H_    0.395796 0.017156 0.369845 0.357742

loop_
_geom_bond_atom_site_label_1
_geom_bond_atom_site_label_2
_ccdc_geom_bond_type
Cu1   Cu2   S    
O22   H18   S    
C40   H4    S    
C27   C29   S    
C8    C26   A    
C14   C18   A    
C11   C47   A    
O19   H15   S    
C12   C48   A    
O13   H9    S    
C36   N3    S    
O15   H11   S    
C27   C33   S    
C1    O3    A    
C7    O21   S    
C3    C9    A    
C35   C37   S    
C37   C40   S    
C41   O9    S    
C38   C39   S    
C9    C22   A    
O28   H24   S    
C37   N3    S    
C52   O20   S    
Cu1   N3    S    
C3    C18   A    
C25   H7    S    
C49   O13   S    
C27   O15   S    
C26   H8    S    
C29   O27   S    
C44   N2    A    
O26   H22   S    
C47   O24   S    
C50   C52   A    
C31   C33   S    
C53   N1    S    
C8    O22   S    
C21   H5    S    
Cu1   O4    S    
C45   Cl4   S    
C35   Cl1   S    
C28   C34   S    
Cu2   O7    S    
C23   O5    A    
C2    O4    A    
C52   C54   A    
C50   O14   S    
O20   H16   S    
C30   O28   S    
C45   C47   A    
C10   C21   A    
C46   C48   A    
C9    C43   A    
Cu2   O6    S    
C13   C19   A    
C10   C44   A    
C14   C20   A    
C36   C40   S    
C4    C6    A    
C23   O7    A    
O18   H14   S    
C5    C7    A    
C24   O8    A    
C15   C26   A    
C41   N1    A    
C49   C51   A    
C43   O12   S    
Cu2   N4    S    
C48   O23   S    
C29   C34   S    
C1    C32   S    
C1    O1    A    
C2    C31   S    
C51   C53   A    
C32   C34   S    
C35   C39   S    
C11   C49   A    
C22   H6    S    
C20   O26   S    
C12   C50   A    
O14   H10   S    
C43   N1    A    
Cu2   O3    S    
C39   H3    S    
C46   Cl3   S    
C46   C54   A    
C28   O16   S    
Cu1   O1    S    
C4    C17   A    
C38   N4    S    
C42   O10   S    
Cu2   O2    S    
C28   C31   S    
C40   N4    S    
Cu1   O8    S    
C4    C10   A    
C34   H2    S    
O27   H23   S    
C16   C25   A    
C15   C17   A    
C5    C41   A    
C33   H1    S    
C30   C33   S    
C19   C21   A    
C27   C32   S    
C39   N3    S    
C44   O11   S    
C20   C22   A    
C3    C5    A    
C6    C8    A    
C54   N2    S    
C37   O17   S    
O24   H20   S    
C12   C24   S    
C7    C25   A    
O21   H17   S    
C13   C17   A    
C36   C38   S    
C28   C30   S    
C29   C31   S    
O25   H21   S    
C30   C32   S    
C24   O6    A    
C19   O25   S    
C35   N4    S    
C38   O18   S    
C11   C23   S    
C45   C53   A    
Cu1   O5    S    
C36   Cl2   S    
O16   H12   S    
C16   C18   A    
C6    C42   A    
C13   C16   A    
O23   H19   S    
C42   N2    A    
C14   C15   A    
O17   H13   S    
C2    O2    A    
C51   O19   S    
