data_mof_unit_22796.cif
_audit_creation_date              2012-12-11T15:14:45-0500
_audit_creation_method            fapswitch 2.2
_symmetry_space_group_name_H-M    P1
_symmetry_Int_Tables_number       1
_space_group_crystal_system       triclinic
_cell_length_a                    22.263083
_cell_length_b                    7.230991
_cell_length_c                    19.250735
_cell_angle_alpha                 90.003567
_cell_angle_beta                  99.085308
_cell_angle_gamma                 89.998421
_cell_volume                      3060.18343271

loop_
_atom_site_label
_atom_site_type_symbol
_atom_type_description
_atom_site_fract_x
_atom_site_fract_y
_atom_site_fract_z
_atom_type_partial_charge
O1    O     O_R   0.448470 0.506130 0.415700 -0.532055
O2    O     O_R   0.551530 0.006130 0.584300 -0.532072
O3    O     O_R   0.436320 0.174490 0.555800 -0.534118
O4    O     O_R   0.563680 0.674490 0.444200 -0.534107
C1    C     C_R   0.421225 0.344380 0.575270 0.710628
C2    C     C_R   0.578776 0.844372 0.424730 0.710605
O5    O     O_R   0.441350 0.176340 0.414480 -0.528787
O6    O     O_R   0.558650 0.676340 0.585520 -0.528763
O7    O     O_R   0.556600 0.007100 0.441970 -0.523065
O8    O     O_R   0.443400 0.507100 0.558030 -0.523052
C3    C     C_R   0.427355 0.344680 0.388938 0.749781
C4    C     C_R   0.572645 0.844684 0.611062 0.749772
O9    O     O_3   0.537810 0.339550 0.509190 -0.376998
O10   O     O_3   0.462190 0.839550 0.490810 -0.376999
V1    V     V_3+5 0.492990 0.064280 0.498300 1.514552
V2    V     V_3+5 0.507010 0.564280 0.501700 1.514609
C5    C     C_R   0.866623 0.978754 0.695425 -0.165201
C6    C     C_R   0.133359 0.478438 0.304588 -0.165192
H1    H     H_    0.954071 0.006370 0.759508 0.105400
H2    H     H_    0.045910 0.506045 0.240506 0.105394
H3    H     H_    0.783959 0.974439 0.580285 0.118088
H4    H     H_    0.216014 0.473965 0.419736 0.118082
H5    H     H_    0.884871 0.006477 0.647499 0.111025
H6    H     H_    0.115102 0.506000 0.352522 0.111024
C7    C     C_R   0.884495 0.942206 0.821950 -0.035404
C8    C     C_R   0.115506 0.442204 0.178049 -0.035387
C9    C     C_R   0.589058 0.816778 0.741108 0.380433
C10   C     C_R   0.410952 0.316942 0.258885 0.380426
C11   C     C_R   0.626332 0.815225 0.806346 -0.137193
C12   C     C_R   0.373683 0.315479 0.193643 -0.137184
C13   C     C_R   0.688678 0.845624 0.812002 -0.232850
C14   C     C_R   0.311334 0.345820 0.187990 -0.232849
C15   C     C_R   0.716118 0.879520 0.751873 0.084796
C16   C     C_R   0.283884 0.379558 0.248125 0.084793
C17   C     C_R   0.677666 0.882936 0.684687 0.013696
C18   C     C_R   0.322330 0.382861 0.315316 0.013694
C19   C     C_R   0.780380 0.910095 0.756249 0.090864
C20   C     C_R   0.219619 0.410078 0.243750 0.090866
C21   C     C_R   0.804225 0.945386 0.693270 0.136477
C22   C     C_R   0.195763 0.445168 0.306738 0.136470
C23   C     C_R   0.765792 0.947979 0.628370 -0.197309
C24   C     C_R   0.234189 0.447650 0.371644 -0.197300
C25   C     C_R   0.703709 0.916886 0.624013 -0.169427
C26   C     C_R   0.296277 0.416634 0.375998 -0.169401
C27   C     C_R   0.822074 0.907768 0.820650 -0.212984
C28   C     C_R   0.177932 0.407875 0.179343 -0.212973
C29   C     C_R   0.906213 0.978338 0.759152 -0.166524
C30   C     C_R   0.093775 0.478118 0.240857 -0.166535
C31   C     C_R   0.613907 0.850789 0.679584 -0.167783
C32   C     C_R   0.386093 0.350789 0.320416 -0.167782
H7    H     H_    0.807639 0.881867 0.870608 0.095798
H8    H     H_    0.192377 0.382129 0.129378 0.095782
H9    H     H_    0.714116 0.841750 0.864420 0.130160
H10   H     H_    0.285901 0.342022 0.135569 0.130161
H11   H     H_    0.606801 0.789441 0.853513 0.161587
H12   H     H_    0.393221 0.289815 0.146471 0.161589
H13   H     H_    0.676167 0.920193 0.572375 0.097116
H14   H     H_    0.323814 0.419852 0.427640 0.097075
C33   C     C_3   0.776785 0.923318 0.316770 -0.146607
C34   C     C_3   0.223255 0.424007 0.683255 -0.146598
C35   C     C_3   0.774799 0.066816 0.256566 -0.145261
C36   C     C_3   0.225358 0.567032 0.743641 -0.145272
H15   H     H_    0.795447 0.206905 0.261737 0.110748
H16   H     H_    0.204826 0.707275 0.738631 0.110785
H17   H     H_    0.798797 0.944511 0.372073 0.108511
H18   H     H_    0.201266 0.445836 0.627979 0.108506
H19   H     H_    0.670112 0.130556 0.219320 0.142193
H20   H     H_    0.330096 0.629729 0.781021 0.142272
C37   C     C_1   0.875052 0.940293 0.121028 -0.182993
C38   C     C_1   0.124946 0.440264 0.878972 -0.182994
C39   C     C_1   0.624751 0.854110 0.379018 -0.126097
C40   C     C_1   0.375249 0.354137 0.620981 -0.126087
C41   C     C_3   0.793451 0.769556 0.266959 -0.143737
C42   C     C_3   0.206432 0.269999 0.732861 -0.143744
C43   C     C_3   0.790866 0.912860 0.207372 0.161421
C44   C     C_3   0.209133 0.412829 0.792629 0.161463
C45   C     C_3   0.724932 0.727828 0.243453 -0.128343
C46   C     C_3   0.274910 0.227600 0.756338 -0.128482
C47   C     C_3   0.708871 0.881775 0.292644 0.158128
C48   C     C_3   0.291128 0.381794 0.707353 0.158166
C49   C     C_3   0.722945 0.871324 0.183250 -0.129006
C50   C     C_3   0.277013 0.370622 0.816724 -0.129072
C51   C     C_3   0.706276 0.025085 0.233063 -0.117151
C52   C     C_3   0.293839 0.524629 0.767115 -0.117090
C53   C     C_1   0.836981 0.929069 0.159743 -0.059668
C54   C     C_1   0.163018 0.429035 0.840258 -0.059667
C55   C     C_1   0.662790 0.865447 0.340285 -0.028619
C56   C     C_1   0.337210 0.365474 0.659712 -0.028619
H21   H     H_    0.700914 0.850124 0.127957 0.122261
H22   H     H_    0.299021 0.348785 0.871989 0.122251
H23   H     H_    0.704273 0.587750 0.238290 0.124327
H24   H     H_    0.295451 0.087368 0.761341 0.124284
H25   H     H_    0.829597 0.664051 0.280725 0.108630
H26   H     H_    0.170193 0.164864 0.718932 0.108639
O11   O     O_R   0.056650 0.288730 0.942060 -0.532988
O12   O     O_R   0.943350 0.788730 0.057940 -0.532980
O13   O     O_R   0.058660 0.616870 0.085540 -0.535486
O14   O     O_R   0.941340 0.116870 0.914460 -0.535481
C57   C     C_R   0.072839 0.448744 0.111005 0.682106
C58   C     C_R   0.927161 0.948741 0.888994 0.682107
O15   O     O_R   0.063700 0.618520 0.944220 -0.534762
O16   O     O_R   0.936300 0.118520 0.055780 -0.534767
O17   O     O_R   0.948460 0.787610 0.915680 -0.533215
O18   O     O_R   0.051540 0.287610 0.084320 -0.533207
C59   C     C_R   0.078933 0.450013 0.924673 0.713286
C60   C     C_R   0.921066 0.950022 0.075327 0.713286
O19   O     O_3   0.962230 0.453430 0.990860 -0.372964
O20   O     O_3   0.037770 0.953430 0.009140 -0.372961
V3    V     V_3+5 0.007010 0.728750 0.001700 1.425395
V4    V     V_3+5 0.992990 0.228750 0.998300 1.425394
Cl1   Cl    Cl    0.510633 0.775532 0.738317 -0.660846
Cl2   Cl    Cl    0.489383 0.275795 0.261673 -0.660842

loop_
_geom_bond_atom_site_label_1
_geom_bond_atom_site_label_2
_ccdc_geom_bond_type
C47   C51   S    
H19   C51   S    
O14   V4    S    
C7    C27   A    
C9    C11   A    
C23   C25   A    
C42   H26   S    
O1    C3    A    
C41   H25   S    
C48   C52   S    
O2    C4    A    
C2    O7    A    
C47   C55   S    
C4    C31   S    
O3    V1    S    
C21   C23   A    
C35   C43   S    
O5    C3    A    
C5    H5    S    
C42   C44   S    
C6    H6    S    
C1    C40   S    
C46   C48   S    
C27   H7    S    
O15   V3    S    
C28   H8    S    
O20   V3    S    
C34   C36   S    
C5    C21   A    
C34   C42   S    
C35   H15   S    
C6    C22   A    
C36   H16   S    
O11   C59   A    
C40   C56   T    
C10   C32   A    
C43   C53   S    
C34   C48   S    
C26   H14   S    
C17   C31   A    
C13   C15   A    
C12   C14   A    
C17   C25   A    
C7    C29   A    
C8    C30   A    
C8    C57   S    
C49   H21   S    
O5    V1    S    
C57   O18   A    
C9    Cl1   S    
O6    V2    S    
C48   C56   S    
C41   C43   S    
C36   C44   S    
C36   C52   S    
C24   C26   A    
C14   H10   S    
C49   C51   S    
C45   C47   S    
O15   C59   A    
C2    C39   S    
C33   C35   S    
H20   C52   S    
O4    C2    A    
C35   C51   S    
C44   C50   S    
C25   H13   S    
C43   C49   S    
C11   H11   S    
C46   H24   S    
C12   H12   S    
C38   C59   S    
C58   O17   A    
C15   C19   A    
C14   C16   A    
O4    V2    S    
C37   C53   T    
O13   V3    S    
C46   C50   S    
C7    C58   S    
C45   C49   S    
O6    C4    A    
H1    C29   S    
O1    V2    S    
C13   H9    S    
O2    V1    S    
H2    C30   S    
H3    C23   S    
C50   C52   S    
O19   V4    S    
C39   C55   T    
O16   V4    S    
C33   C47   S    
C38   C54   T    
C44   C54   S    
C18   C32   A    
O18   V4    S    
O12   C60   A    
C45   H23   S    
O13   C57   A    
C16   C20   A    
C5    C29   A    
O3    C1    A    
O11   V4    S    
C6    C30   A    
C37   C60   S    
O12   V3    S    
O14   C58   A    
C50   H22   S    
O17   V3    S    
C10   C12   A    
O7    V1    S    
C1    O8    A    
C19   C21   A    
C3    C32   S    
O8    V2    S    
C33   H17   S    
C20   C22   A    
H4    C24   S    
C22   C24   A    
C15   C17   A    
O16   C60   A    
C16   C18   A    
C33   C41   S    
C20   C28   A    
C18   C26   A    
C8    C28   A    
C34   H18   S    
C11   C13   A    
C42   C46   S    
O9    V2    S    
C41   C45   S    
O10   V1    S    
C19   C27   A    
C10   Cl2   S    
C9    C31   A    
