data_mof_unit_17469.cif
_audit_creation_date              2012-12-11T15:48:35-0500
_audit_creation_method            fapswitch 2.2
_symmetry_space_group_name_H-M    P1
_symmetry_Int_Tables_number       1
_space_group_crystal_system       triclinic
_cell_length_a                    11.015387
_cell_length_b                    10.970323
_cell_length_c                    18.790165
_cell_angle_alpha                 90.043351
_cell_angle_beta                  89.959915
_cell_angle_gamma                 60.254631
_cell_volume                      1971.46267981

loop_
_atom_site_label
_atom_site_type_symbol
_atom_type_description
_atom_site_fract_x
_atom_site_fract_y
_atom_site_fract_z
_atom_type_partial_charge
C1    C     C_R   0.244954 0.642886 0.611703 0.516903
C2    C     C_3   0.718967 0.527374 0.798509 -0.220418
C3    C     C_3   0.700729 0.673040 0.812415 -0.028483
C4    C     C_3   0.670269 0.649690 0.676198 0.093609
C5    C     C_3   0.803066 0.667837 0.686372 0.498537
C6    C     C_3   0.689010 0.516985 0.719809 -0.026934
C7    C     C_R   0.687522 0.141154 0.819694 0.009458
C8    C     C_R   0.784942 0.162921 0.782501 -0.010149
C9    C     C_R   0.779746 0.172610 0.707834 0.059638
C10   C     C_R   0.590045 0.122479 0.706599 -0.141440
C11   C     C_R   0.587452 0.125444 0.779757 -0.155409
C12   C     C_R   0.652283 0.620806 0.601491 0.528407
C13   C     C_3   0.938349 0.069855 0.784220 -0.229871
C14   C     C_3   0.934517 0.075244 0.703693 -0.054258
C15   C     C_R   0.679441 0.155539 0.669715 0.030560
C16   C     C_R   0.187543 0.665518 0.837074 0.006401
C17   C     C_R   0.176933 0.562783 0.798151 0.026732
C18   C     C_R   0.188364 0.557812 0.724241 0.051728
C19   C     C_R   0.209585 0.765302 0.726261 -0.186900
C20   C     C_R   0.210943 0.762885 0.800183 -0.191783
C21   C     C_3   0.271028 0.408321 0.804393 -0.282849
C22   C     C_3   0.283875 0.403434 0.724325 -0.260732
C23   C     C_R   0.630693 0.224327 0.601186 0.524161
C24   C     C_R   0.203132 0.659803 0.686736 0.012131
C25   C     C_R   0.694072 0.701790 0.177836 0.012977
C26   C     C_R   0.713333 0.572965 0.200143 0.031699
C27   C     C_R   0.696312 0.550822 0.270255 0.032005
C28   C     C_R   0.647893 0.784465 0.300416 -0.158456
C29   C     C_R   0.668774 0.805117 0.228797 -0.142094
C30   C     C_3   0.642289 0.496311 0.173752 -0.270086
C31   C     C_3   0.622392 0.472671 0.251011 -0.291523
C32   C     C_R   0.659195 0.656412 0.320769 0.030266
C33   C     C_R   0.666527 0.136222 0.179762 -0.070437
C34   C     C_R   0.223968 0.649318 0.401255 0.552736
C35   C     C_R   0.546223 0.162159 0.215134 0.052652
C36   C     C_R   0.538266 0.171114 0.287026 -0.067044
C37   C     C_R   0.781698 0.107692 0.295553 0.219632
C38   C     C_R   0.789377 0.094692 0.220861 -0.166883
C39   C     C_3   0.395356 0.261016 0.202929 0.157448
C40   C     C_3   0.384899 0.276522 0.283766 -0.198513
C41   C     C_R   0.650198 0.158598 0.328020 0.007509
C42   C     C_R   0.140822 0.668166 0.183481 -0.030541
C43   C     C_R   0.236606 0.702260 0.210844 -0.031977
C44   C     C_R   0.255017 0.700645 0.282312 -0.036430
C45   C     C_R   0.642245 0.623127 0.392854 0.520508
C46   C     C_R   0.088019 0.621183 0.303226 0.237035
C47   C     C_R   0.072717 0.618788 0.229340 -0.142745
C48   C     C_3   0.255946 0.827095 0.200623 -0.244239
C49   C     C_3   0.277849 0.823841 0.280152 -0.240556
C50   C     C_R   0.177937 0.667548 0.329446 0.043353
C51   C     C_R   0.703469 0.096900 0.894397 0.536671
C52   C     C_R   0.723692 0.687870 0.888413 0.541174
C53   C     C_R   0.120138 0.705323 0.906612 0.541200
C54   C     C_R   0.677878 0.102511 0.105158 0.538837
C55   C     C_R   0.729286 0.715678 0.105544 0.549796
C56   C     C_R   0.617900 0.226038 0.396538 0.560985
C57   C     C_R   0.089556 0.710345 0.113106 0.547241
C58   C     C_3   0.552946 0.787221 0.787961 -0.265117
C59   C     C_3   0.539784 0.781532 0.707071 -0.265591
C60   C     C_3   0.812933 0.687421 0.768293 -0.121969
Cr1   Cr    Cr6+3 0.392960 0.397920 0.502240 0.990204
Cr2   Cr    Cr6+3 0.398340 0.708480 0.501250 0.997802
Cr3   Cr    Cr6+3 0.708670 0.393570 0.496460 1.006707
Cr4   Cr    Cr6+3 0.937650 0.938540 0.007610 0.996661
Cr5   Cr    Cr6+3 0.625330 0.937370 0.994520 1.030198
Cr6   Cr    Cr6+3 0.937940 0.625230 0.001190 0.992939
H1    H     H_    0.532527 0.893492 0.802728 0.144761
H2    H     H_    0.780947 0.421805 0.698663 0.199738
H3    H     H_    0.918402 0.609130 0.787715 0.147503
H4    H     H_    0.510148 0.110300 0.679250 0.127146
H5    H     H_    0.507603 0.110043 0.804636 0.137548
H6    H     H_    0.963578 0.966246 0.805859 0.156821
H7    H     H_    0.992591 0.120716 0.810113 0.139188
H8    H     H_    0.961386 0.974061 0.677398 0.178483
H9    H     H_    0.219128 0.847977 0.700280 0.168838
H10   H     H_    0.472194 0.770909 0.814844 0.127333
H11   H     H_    0.217017 0.846108 0.828121 0.139289
H12   H     H_    0.214939 0.354776 0.824932 0.141582
H13   H     H_    0.370083 0.381086 0.832504 0.147887
H14   H     H_    0.388859 0.378056 0.705367 0.178217
H15   H     H_    0.238487 0.343701 0.698988 0.149087
H16   H     H_    0.625214 0.865943 0.339306 0.112599
H17   H     H_    0.668409 0.898797 0.212973 0.138903
H18   H     H_    0.715494 0.398055 0.145189 0.147206
H19   H     H_    0.542789 0.565092 0.145439 0.142104
H20   H     H_    0.512737 0.524800 0.268829 0.138202
H21   H     H_    0.443222 0.779452 0.694385 0.146121
H22   H     H_    0.682706 0.362575 0.266157 0.137645
H23   H     H_    0.890593 0.052939 0.195593 0.156443
H24   H     H_    0.376267 0.356173 0.172519 0.099265
H25   H     H_    0.362298 0.382121 0.301591 0.121717
H26   H     H_    0.319990 0.236780 0.309070 0.169184
H27   H     H_    0.997202 0.592048 0.208591 0.139500
H28   H     H_    0.159917 0.923780 0.183609 0.162257
H29   H     H_    0.526349 0.879970 0.684004 0.127876
H30   H     H_    0.351589 0.801664 0.169620 0.153766
H31   H     H_    0.385620 0.796044 0.294809 0.161077
H32   H     H_    0.195303 0.916011 0.308534 0.172113
H33   H     H_    0.802177 0.792067 0.779880 0.130698
H34   H     H_    0.827806 0.444175 0.811174 0.126639
H35   H     H_    0.648579 0.508993 0.834017 0.146191
O1    O     O_R   0.507380 0.255700 0.581440 -0.541824
O2    O     O_R   0.524480 0.695810 0.424040 -0.513464
O3    O     O_R   0.736390 0.504290 0.414790 -0.520102
O4    O     O_R   0.691300 0.277290 0.422170 -0.477530
O5    O     O_3   0.499990 0.499990 0.499980 -0.259147
O6    O     O_R   0.089400 0.825690 0.930570 -0.528692
O7    O     O_R   0.818460 0.054440 0.929850 -0.500473
O8    O     O_R   0.606060 0.077150 0.915510 -0.534988
O9    O     O_R   0.646550 0.806680 0.917570 -0.504611
O10   O     O_R   0.837170 0.593410 0.915250 -0.525045
O11   O     O_R   0.065200 0.635530 0.931570 -0.500333
O12   O     O_R   0.280320 0.527350 0.578930 -0.526933
O13   O     O_R   0.068260 0.828890 0.091840 -0.522489
O14   O     O_R   0.798870 0.057410 0.079340 -0.521028
O15   O     O_R   0.584930 0.080350 0.076780 -0.474946
O16   O     O_R   0.626960 0.809650 0.067060 -0.485358
O17   O     O_R   0.816040 0.596610 0.076510 -0.525420
O18   O     O_R   0.045610 0.638500 0.081060 -0.536619
O19   O     O_3   0.833640 0.833710 0.001100 -0.275338
O20   O     O_R   0.260510 0.739590 0.584590 -0.520458
O21   O     O_R   0.532300 0.695080 0.573820 -0.529294
O22   O     O_R   0.744840 0.503500 0.576370 -0.524678
O23   O     O_R   0.699120 0.276560 0.571960 -0.505204
O24   O     O_R   0.498940 0.256500 0.419860 -0.532541
O25   O     O_R   0.272500 0.528080 0.429150 -0.494238
O26   O     O_R   0.252060 0.740380 0.423010 -0.515046
O27   O     O_3   0.927146 0.539244 0.667986 -0.601083
C61   C     C_3   0.993728 0.539924 0.603725 -0.060568
H36   H     H_    0.010407 0.631003 0.599403 0.159328
H37   H     H_    0.939288 0.531876 0.556276 0.134769
H38   H     H_    0.097646 0.444069 0.602017 0.133070
N1    N     N_3   0.011198 0.140395 0.673416 -0.646952
H39   H     H_    0.975373 0.172416 0.621532 0.259115
H40   H     H_    0.991776 0.229686 0.702349 0.244042
O28   O     O_3   0.899539 0.070188 0.336712 -0.567929
C62   C     C_3   0.953821 0.160365 0.322358 -0.105529
H41   H     H_    0.042355 0.133542 0.359048 0.135320
H42   H     H_    0.876106 0.271566 0.333302 0.167780
H43   H     H_    0.994215 0.147895 0.267073 0.086813
O29   O     O_3   0.330702 0.187086 0.175865 -0.538905
C63   C     C_3   0.187574 0.281230 0.164509 -0.119795
H44   H     H_    0.172000 0.363539 0.125248 0.138840
H45   H     H_    0.133123 0.329280 0.215381 0.123007
H46   H     H_    0.138960 0.221907 0.142269 0.132631
O30   O     O_3   0.013454 0.579907 0.347198 -0.566829
C64   C     C_3   0.933341 0.686712 0.397253 -0.106569
H47   H     H_    0.885853 0.794303 0.374158 0.130610
H48   H     H_    0.994903 0.677937 0.445458 0.113537
H49   H     H_    0.847456 0.671655 0.416697 0.130568
O31   O     O_3   0.797432 0.790875 0.655262 -0.600070
C65   C     C_3   0.738271 0.833081 0.586501 -0.132363
H50   H     H_    0.623000 0.895705 0.588423 0.122106
H51   H     H_    0.771224 0.746845 0.547859 0.093881
H52   H     H_    0.774284 0.903413 0.564352 0.131459
N2    N     N_3   0.568853 0.493529 0.714291 -0.661899
H53   H     H_    0.483029 0.571114 0.741796 0.241540
H54   H     H_    0.539745 0.494452 0.661435 0.259870

loop_
_geom_bond_atom_site_label_1
_geom_bond_atom_site_label_2
_ccdc_geom_bond_type
C44   C49   S    
C8    C13   S    
C32   C45   S    
C34   O26   A    
C35   C36   A    
C9    C14   S    
C60   H33   S    
O27   C61   S    
Cr3   O23   S    
C58   H10   S    
C7    C8    A    
C7    C11   A    
C62   H42   S    
C38   H23   S    
C26   C27   A    
C48   H28   S    
C20   H11   S    
C18   C24   A    
C14   H8    S    
N2    H53   S    
C64   H48   S    
C29   H17   S    
C10   C15   A    
Cr2   O26   S    
C11   H5    S    
C23   O1    A    
C4    C59   S    
C16   C53   S    
C45   O2    A    
C64   H47   S    
C49   H32   S    
N2    H54   S    
C19   C20   A    
C16   C17   A    
C54   O15   A    
C21   H12   S    
O31   C65   S    
Cr1   O25   S    
C52   O9    A    
Cr6   O10   S    
Cr3   O4    S    
C43   C48   S    
C39   H24   S    
C34   O25   A    
C57   O18   A    
C61   H38   S    
C3    C60   S    
C22   H14   S    
C6    H2    S    
C52   O10   A    
C2    H34   S    
C51   O8    A    
C31   H20   S    
Cr6   O19   S    
C21   C22   S    
C30   H18   S    
C63   H46   S    
C36   C41   A    
C2    C6    S    
C59   H29   S    
C42   C57   S    
Cr4   O7    S    
C1    O20   A    
C25   C29   A    
Cr5   O9    S    
C62   H43   S    
C34   C50   S    
Cr4   O13   S    
C28   H16   S    
C22   H15   S    
C39   O29   S    
C36   C40   S    
C64   H49   S    
C4    C6    S    
C39   C40   S    
C61   H36   S    
C8    C9    A    
C2    H35   S    
C25   C26   A    
C27   C31   S    
C17   C21   S    
C30   H19   S    
C35   C39   S    
C43   C44   A    
C41   C56   S    
C37   C38   A    
C45   O3    A    
C53   O6    A    
C65   H52   S    
C28   C32   A    
C30   C31   S    
C16   C20   A    
C54   O14   A    
C21   H13   S    
C17   C18   A    
C47   H27   S    
C37   O28   S    
C56   O24   A    
C40   H26   S    
Cr3   O5    S    
Cr1   O5    S    
Cr5   O8    S    
C23   O23   A    
C10   H4    S    
C53   O11   A    
C48   C49   S    
C13   H6    S    
C65   H51   S    
C51   O7    A    
Cr6   O18   S    
Cr1   O12   S    
N1    H39   S    
Cr5   O15   S    
C63   H45   S    
C4    C12   S    
C42   C43   A    
Cr2   O21   S    
Cr4   O6    S    
O30   C64   S    
C55   O16   A    
C44   C50   A    
C33   C54   S    
C46   C47   A    
C28   C29   A    
C31   H22   S    
C48   H30   S    
C5    C60   S    
C27   C32   A    
C18   C22   S    
C19   C24   A    
C25   C55   S    
C13   H7    S    
Cr3   O3    S    
C5    O31   S    
Cr2   O2    S    
Cr3   O22   S    
C3    C52   S    
C26   C30   S    
C57   O13   A    
Cr2   O5    S    
C14   N1    S    
C62   H41   S    
C46   C50   A    
C33   C38   A    
Cr4   O19   S    
C19   H9    S    
C2    C3    S    
C58   C59   S    
C7    C51   S    
O29   C63   S    
Cr4   O14   S    
C46   O30   S    
C12   O22   A    
C60   H3    S    
C5    O27   S    
C15   C23   S    
C33   C35   A    
Cr5   O19   S    
Cr1   O1    S    
C42   C47   A    
C1    O12   A    
C40   H25   S    
C37   C41   A    
C59   H21   S    
C56   O4    A    
C10   C11   A    
C49   H31   S    
C3    C58   S    
C58   H1    S    
C4    C5    S    
C12   O21   A    
C65   H50   S    
C1    C24   S    
Cr6   O17   S    
N1    H40   S    
Cr5   O16   S    
C63   H44   S    
O28   C62   S    
Cr1   O24   S    
Cr6   O11   S    
C13   C14   S    
Cr2   O20   S    
C6    N2    S    
C9    C15   A    
C61   H37   S    
C55   O17   A    
