data_mof_unit_24404.cif
_audit_creation_date              2012-12-10T21:01:05-0500
_audit_creation_method            fapswitch 2.2
_symmetry_space_group_name_H-M    P1
_symmetry_Int_Tables_number       1
_space_group_crystal_system       triclinic
_cell_length_a                    15.809448
_cell_length_b                    15.059535
_cell_length_c                    10.537616
_cell_angle_alpha                 90.432674
_cell_angle_beta                  90.351081
_cell_angle_gamma                 91.108156
_cell_volume                      2508.23642037

loop_
_atom_site_label
_atom_site_type_symbol
_atom_type_description
_atom_site_fract_x
_atom_site_fract_y
_atom_site_fract_z
_atom_type_partial_charge
C1    C     C_R   0.338756 0.499150 0.498127 0.963188
C2    C     C_R   0.087372 0.506170 0.454411 0.038589
C3    C     C_R   0.493134 0.499219 0.257591 0.940256
C4    C     C_R   0.505158 0.500524 0.742684 0.944706
C5    C     C_1   0.250712 0.497601 0.482370 -0.130768
C6    C     C_1   0.749392 0.504788 0.489569 -0.098079
C7    C     C_R   0.432063 0.951394 0.447425 -0.183191
C8    C     C_R   0.568043 0.048558 0.553189 -0.179536
C9    C     C_R   0.568029 0.954739 0.553323 -0.172903
C10   C     C_R   0.432099 0.045183 0.447262 -0.169071
C11   C     C_R   0.500043 0.905019 0.500378 0.087405
C12   C     C_R   0.661248 0.501084 0.500773 0.932096
C13   C     C_R   0.500084 0.094942 0.500110 0.088318
C14   C     C_3   0.447389 0.565123 0.037557 -0.152727
C15   C     C_3   0.549636 0.433423 0.962695 -0.145569
C16   C     C_3   0.531858 0.578928 0.966157 -0.144273
C17   C     C_3   0.464991 0.419492 0.033975 -0.138708
C18   C     C_3   0.422721 0.487665 0.947447 0.425594
C19   C     C_3   0.574367 0.510662 0.052476 0.448225
C20   C     C_3   0.506520 0.501396 0.876905 -0.256227
C21   C     C_3   0.490510 0.497154 0.123411 -0.258177
C22   C     C_1   0.500037 0.807183 0.500209 0.041747
C23   C     C_1   0.823697 0.509558 0.475674 -0.002613
C24   C     C_1   0.500046 0.192807 0.500029 0.043476
C25   C     C_R   0.381770 0.631942 0.074580 0.175848
C26   C     C_R   0.367600 0.706440 0.998413 -0.108760
C27   C     C_R   0.304808 0.766651 0.030448 -0.164851
C28   C     C_R   0.254194 0.751731 0.136724 -0.121870
C29   C     C_R   0.265511 0.675872 0.209834 -0.119193
C30   C     C_R   0.328275 0.615769 0.178176 -0.041096
C31   C     C_R   0.612907 0.364315 0.924217 0.151883
C32   C     C_R   0.623063 0.287478 0.997195 -0.096443
C33   C     C_R   0.678780 0.221793 0.958378 -0.174487
C34   C     C_1   0.176339 0.499563 0.467524 -0.031976
C35   C     C_R   0.727460 0.233896 0.849474 -0.154410
C36   C     C_R   0.721275 0.312282 0.780403 -0.146671
C37   C     C_R   0.665006 0.377606 0.818250 -0.094037
C38   C     C_R   0.577683 0.664768 0.934631 0.171148
C39   C     C_R   0.570021 0.739736 0.013666 -0.110909
C40   C     C_R   0.612394 0.819265 0.984333 -0.137562
C41   C     C_R   0.664126 0.824034 0.877480 -0.135097
C42   C     C_R   0.675069 0.748654 0.801829 -0.146977
C43   C     C_R   0.633619 0.668952 0.831718 -0.018923
C44   C     C_R   0.422101 0.330997 0.061173 0.129118
C45   C     C_R   0.959716 0.589100 0.492227 -0.052991
C46   C     C_R   0.425139 0.262024 0.970686 -0.091138
C47   C     C_R   0.391099 0.177983 0.997804 -0.144219
C48   C     C_R   0.352750 0.162353 0.114765 -0.144902
C49   C     C_R   0.345762 0.231623 0.202664 -0.147426
C50   C     C_R   0.377560 0.316258 0.174250 -0.124192
C51   C     C_R   0.100924 0.665510 0.526134 0.096503
C52   C     C_R   0.149592 0.666884 0.638155 -0.113835
C53   C     C_R   0.201095 0.740680 0.668198 -0.092874
C54   C     C_R   0.203881 0.813743 0.587203 -0.136443
C55   C     C_R   0.154751 0.813329 0.476437 -0.144771
C56   C     C_R   0.039827 0.432628 0.409365 -0.056954
C57   C     C_R   0.103236 0.739591 0.445989 -0.149444
C58   C     C_R   0.899702 0.359451 0.362782 0.148282
C59   C     C_R   0.862051 0.299328 0.447435 -0.165261
C60   C     C_R   0.812433 0.228166 0.401317 -0.120692
C61   C     C_R   0.801103 0.216222 0.270547 -0.095044
C62   C     C_R   0.839387 0.275448 0.185871 -0.099242
C63   C     C_R   0.888204 0.347174 0.231712 -0.069340
C64   C     C_R   0.916524 0.672539 0.527914 0.107090
C65   C     C_R   0.866242 0.716055 0.438226 -0.125643
C66   C     C_R   0.829387 0.797061 0.468723 -0.128235
C67   C     C_R   0.048496 0.585733 0.491349 -0.047395
C68   C     C_R   0.842766 0.835364 0.588540 -0.160409
C69   C     C_R   0.891749 0.791903 0.678891 -0.135024
C70   C     C_R   0.928164 0.710533 0.649128 -0.116522
C71   C     C_R   0.081318 0.351990 0.360424 0.133592
C72   C     C_R   0.111841 0.350147 0.235719 -0.176893
C73   C     C_R   0.140814 0.270827 0.183511 -0.129104
C74   C     C_R   0.140221 0.193376 0.255903 -0.131747
C75   C     C_R   0.111799 0.195401 0.381190 -0.144660
C76   C     C_R   0.082096 0.274417 0.433379 -0.112434
C77   C     C_R   0.951493 0.435812 0.411197 -0.058461
C78   C     C_R   0.912503 0.512347 0.457737 0.034946
H1    H     H_    0.378818 0.078862 0.405821 0.124335
H2    H     H_    0.225131 0.662892 0.290238 0.144020
H3    H     H_    0.333683 0.555849 0.233087 0.076484
H4    H     H_    0.587572 0.277871 0.083625 0.157394
H5    H     H_    0.684835 0.161867 0.013460 0.127525
H6    H     H_    0.770917 0.183219 0.819820 0.124528
H7    H     H_    0.760113 0.322667 0.697622 0.129372
H8    H     H_    0.662868 0.438628 0.765223 0.093108
H9    H     H_    0.531546 0.736783 0.098150 0.146652
H10   H     H_    0.605255 0.877110 0.044621 0.131587
H11   H     H_    0.696604 0.885680 0.854296 0.120947
H12   H     H_    0.621277 0.920979 0.594851 0.126181
H13   H     H_    0.715874 0.751503 0.720190 0.152918
H14   H     H_    0.645905 0.610691 0.774721 0.107558
H15   H     H_    0.455246 0.272787 0.879934 0.161921
H16   H     H_    0.395174 0.124803 0.928575 0.135521
H17   H     H_    0.327320 0.097020 0.136525 0.122152
H18   H     H_    0.314730 0.220151 0.292430 0.147794
H19   H     H_    0.366048 0.369796 0.240122 0.136189
H20   H     H_    0.147845 0.610626 0.701553 0.184971
H21   H     H_    0.239006 0.741108 0.754057 0.157256
H22   H     H_    0.244050 0.870685 0.610295 0.126409
H23   H     H_    0.621289 0.084938 0.594660 0.128233
H24   H     H_    0.156970 0.869932 0.413774 0.121934
H25   H     H_    0.066158 0.739577 0.359214 0.131502
H26   H     H_    0.871578 0.307604 0.548632 0.112066
H27   H     H_    0.783089 0.182119 0.466862 0.119803
H28   H     H_    0.763007 0.160901 0.234900 0.113660
H29   H     H_    0.831457 0.265899 0.084712 0.136661
H30   H     H_    0.917121 0.393025 0.165384 0.127582
H31   H     H_    0.856668 0.687835 0.344250 0.169392
H32   H     H_    0.790940 0.830453 0.399162 0.142205
H33   H     H_    0.814368 0.898193 0.611911 0.120748
H34   H     H_    0.378766 0.915024 0.406070 0.131495
H35   H     H_    0.901331 0.821203 0.772095 0.136506
H36   H     H_    0.966095 0.677604 0.719860 0.135882
H37   H     H_    0.110680 0.409330 0.178013 0.157204
H38   H     H_    0.163242 0.269182 0.086698 0.154080
H39   H     H_    0.162419 0.131947 0.215198 0.121549
H40   H     H_    0.111686 0.135470 0.437236 0.127678
H41   H     H_    0.057886 0.274815 0.529310 0.127309
H42   H     H_    0.253803 0.410623 0.026322 0.342061
H43   H     H_    0.773542 0.476851 0.998921 0.359245
H44   H     H_    0.404567 0.717675 0.913739 0.144621
H45   H     H_    0.294891 0.824454 0.972183 0.124147
H46   H     H_    0.205386 0.798152 0.161254 0.121954
N1    N     N_1   0.500000 0.270550 0.500000 -0.084753
N2    N     N_1   0.500000 0.729450 0.500000 -0.086012
O1    O     O_R   0.378020 0.573650 0.500040 -0.613123
O2    O     O_2   0.318126 0.391946 0.792265 -0.314824
O3    O     O_3   0.245168 0.468208 0.984013 -0.558799
O4    O     O_2   0.677788 0.605395 0.209534 -0.283561
O5    O     O_2   0.695193 0.444148 0.203949 -0.338569
O6    O     O_3   0.750709 0.536902 0.012809 -0.568417
O7    O     O_R   0.621980 0.426350 0.499960 -0.606858
O8    O     O_R   0.621980 0.573650 0.499960 -0.605892
O9    O     O_R   0.378020 0.426350 0.500040 -0.608745
O10   O     O_R   0.499980 0.573650 0.313960 -0.598310
O11   O     O_R   0.500020 0.426350 0.686040 -0.599765
O12   O     O_R   0.500020 0.573650 0.686040 -0.620919
O13   O     O_R   0.499980 0.426350 0.313960 -0.615089
O14   O     O_2   0.305152 0.553651 0.790792 -0.317207
S1    S     S_3+6 0.320926 0.474612 0.873049 0.007250
S2    S     S_3+6 0.676538 0.524410 0.125384 0.006760
Zn1   Zn    Zn3+2 0.500000 0.598370 0.500000 1.004777
Zn2   Zn    Zn3+2 0.500000 0.401630 0.500000 1.008108

loop_
_geom_bond_atom_site_label_1
_geom_bond_atom_site_label_2
_ccdc_geom_bond_type
C7    C10   A    
C66   C68   A    
C40   C41   A    
C8    C13   A    
C48   H17   S    
C41   C42   A    
C14   C18   S    
C41   H11   S    
C35   C36   A    
C39   H9    S    
C77   C78   A    
C53   H21   S    
C15   C19   S    
C29   H2    S    
C55   H24   S    
C69   H35   S    
C26   C27   A    
C29   C30   A    
C73   H38   S    
C1    C5    S    
C59   H26   S    
C14   C21   S    
C36   C37   A    
C19   C21   S    
C3    O10   A    
O10   Zn1   S    
O12   Zn1   S    
C6    C12   S    
C38   C39   A    
C22   N2    T    
O3    S1    S    
N1    Zn2   S    
N2    Zn1   S    
C25   C30   A    
C7    H34   S    
C42   H13   S    
C73   C74   A    
C58   C77   S    
O8    Zn1   S    
C46   C47   A    
C31   C32   A    
C8    C9    A    
O7    Zn2   S    
C45   C67   A    
C45   C78   A    
C51   C57   A    
C64   C70   A    
C8    H23   S    
C2    C34   S    
C4    O11   A    
C59   C60   A    
C49   H18   S    
C12   O8    A    
C54   H22   S    
C61   C62   A    
C75   H40   S    
C44   C46   A    
O6    S2    S    
C15   C20   S    
C57   H25   S    
C76   H41   S    
C74   C75   A    
H42   O3    S    
C37   H8    S    
O14   S1    D    
C2    C67   A    
C39   C40   A    
C27   H45   S    
C68   C69   A    
O1    Zn1   S    
C62   H29   S    
C25   C26   A    
C53   C54   A    
C70   H36   S    
C56   C77   A    
C51   C52   A    
C13   C24   S    
C60   C61   A    
C68   H33   S    
C7    C11   A    
C75   C76   A    
C62   C63   A    
C35   H6    S    
C33   H5    S    
O13   Zn2   S    
C47   C48   A    
C72   H37   S    
C16   C20   S    
C56   C71   S    
C5    C34   T    
C17   C18   S    
C51   C67   S    
C66   H32   S    
C61   H28   S    
C9    C11   A    
C65   H31   S    
O5    S2    D    
O9    Zn2   S    
O11   Zn2   S    
C49   C50   A    
C19   S2    S    
C12   O7    A    
C55   C57   A    
C24   N1    T    
C14   C16   S    
C3    C21   S    
C3    O13   A    
C42   C43   A    
H43   O6    S    
C28   C29   A    
C52   C53   A    
O2    S1    D    
C44   C50   A    
C58   C63   A    
C15   C17   S    
C74   H39   S    
C54   C55   A    
C48   C49   A    
C50   H19   S    
C11   C22   S    
C18   S1    S    
C1    O1    A    
C72   C73   A    
C10   C13   A    
C9    H12   S    
C10   H1    S    
C28   H46   S    
C15   C31   S    
C36   H7    S    
C32   H4    S    
C45   C64   S    
C43   H14   S    
C64   C65   A    
C40   H10   S    
C30   H3    S    
C58   C59   A    
C17   C44   S    
C71   C72   A    
C2    C56   A    
C14   C25   S    
C32   C33   A    
C71   C76   A    
C46   H15   S    
C16   C19   S    
C6    C23   T    
C52   H20   S    
C33   C35   A    
C47   H16   S    
C18   C20   S    
C23   C78   S    
C69   C70   A    
O4    S2    D    
C17   C21   S    
C4    O12   A    
C4    C20   S    
C31   C37   A    
C38   C43   A    
C65   C66   A    
C27   C28   A    
C26   H44   S    
C63   H30   S    
C1    O9    A    
C60   H27   S    
C16   C38   S    
