data_mof_unit_52741.cif
_audit_creation_date              2012-12-11T17:09:30-0500
_audit_creation_method            fapswitch 2.2
_symmetry_space_group_name_H-M    P1
_symmetry_Int_Tables_number       1
_space_group_crystal_system       triclinic
_cell_length_a                    14.781944
_cell_length_b                    6.951925
_cell_length_c                    13.560476
_cell_angle_alpha                 90.006465
_cell_angle_beta                  99.954553
_cell_angle_gamma                 89.999433
_cell_volume                      1372.53561364

loop_
_atom_site_label
_atom_site_type_symbol
_atom_type_description
_atom_site_fract_x
_atom_site_fract_y
_atom_site_fract_z
_atom_type_partial_charge
O1    O     O_R   0.586930 0.505770 0.416350 -0.539034
O2    O     O_R   0.413070 0.005770 0.583650 -0.538439
O3    O     O_R   0.397900 0.173100 0.389630 -0.534601
O4    O     O_R   0.602100 0.673100 0.610370 -0.535227
C1    C     C_R   0.365202 0.345565 0.361829 0.756409
C2    C     C_R   0.634895 0.845539 0.638068 0.756058
O5    O     O_R   0.585280 0.175870 0.404330 -0.533934
O6    O     O_R   0.414720 0.675870 0.595670 -0.537461
O7    O     O_R   0.601790 0.008380 0.598460 -0.529219
O8    O     O_R   0.398210 0.508380 0.401540 -0.530705
C3    C     C_R   0.615125 0.344900 0.383368 0.712436
C4    C     C_R   0.384762 0.844859 0.616510 0.715805
O9    O     O_3   0.505200 0.340120 0.563670 -0.371119
O10   O     O_3   0.494800 0.840120 0.436330 -0.369713
V1    V     V_3+5 0.499040 0.064180 0.488190 1.470873
V2    V     V_3+5 0.500960 0.564180 0.511810 1.467956
C5    C     C_R   0.247764 0.000277 0.673357 0.038590
C6    C     C_R   0.747674 0.508898 0.322457 0.039084
C7    C     C_R   0.314210 0.853444 0.682373 -0.114343
C8    C     C_R   0.686087 0.353914 0.318001 -0.104616
C9    C     C_R   0.311425 0.712977 0.756926 -0.149506
C10   C     C_R   0.692845 0.208295 0.247553 -0.118881
H1    H     H_    0.361022 0.596982 0.766886 0.140349
H2    H     H_    0.645393 0.088800 0.240037 0.114409
C11   C     C_R   0.248567 0.727952 0.824000 -0.165328
C12   C     C_R   0.756836 0.221901 0.181868 -0.110280
H3    H     H_    0.252399 0.627441 0.885091 0.164468
H4    H     H_    0.757087 0.115544 0.124340 0.121200
C13   C     C_R   0.184743 0.879014 0.816878 -0.142262
C14   C     C_R   0.817107 0.378275 0.185439 -0.077762
C15   C     C_R   0.186706 0.014592 0.741376 0.053457
C16   C     C_R   0.809971 0.522674 0.255319 0.047207
C17   C     C_3   0.201248 0.227426 0.750908 0.350320
C18   C     C_3   0.783983 0.727909 0.233146 0.322754
C19   C     C_3   0.260839 0.213459 0.669300 -0.060658
C20   C     C_3   0.723811 0.717176 0.313938 -0.004007
H5    H     H_    0.333555 0.256916 0.694605 0.128456
H6    H     H_    0.649411 0.741552 0.286199 0.102447
C21   C     C_1   0.783075 0.877181 0.783419 -0.164054
C22   C     C_1   0.217103 0.377242 0.216356 -0.164568
C23   C     C_1   0.715513 0.860220 0.717643 -0.153573
C24   C     C_1   0.284705 0.360284 0.282081 -0.149025
O11   O     O_R   0.101720 0.231700 0.098560 -0.538250
O12   O     O_R   0.898280 0.731700 0.901440 -0.535092
O13   O     O_R   0.914700 0.558980 0.095690 -0.550747
O14   O     O_R   0.085300 0.058980 0.904310 -0.534662
C25   C     C_R   0.884638 0.390075 0.116299 0.702978
C26   C     C_R   0.116259 0.890270 0.884836 0.715897
O15   O     O_R   0.102080 0.561590 0.110390 -0.538083
O16   O     O_R   0.897920 0.061590 0.889610 -0.534581
O17   O     O_R   0.086950 0.728940 0.916330 -0.533198
O18   O     O_R   0.913050 0.228940 0.083670 -0.544098
C27   C     C_R   0.136200 0.391962 0.137181 0.730106
C28   C     C_R   0.863865 0.891940 0.862739 0.730599
O19   O     O_3   0.994770 0.394510 0.936380 -0.354138
O20   O     O_3   0.005230 0.894510 0.063620 -0.383259
V3    V     V_3+5 0.000970 0.670520 0.011800 1.427902
V4    V     V_3+5 0.999030 0.170520 0.988200 1.448631
N1    N     N_3   0.255021 0.284467 0.847804 -0.695019
H7    H     H_    0.309353 0.188525 0.869777 0.203240
H8    H     H_    0.213394 0.281245 0.902585 0.250153
N2    N     N_3   0.730090 0.746710 0.131570 -0.692772
H9    H     H_    0.677612 0.847452 0.130298 0.208423
H10   H     H_    0.771816 0.789711 0.080750 0.228789
N3    N     N_3   0.115620 0.337420 0.726170 -0.602981
H11   H     H_    0.072437 0.275523 0.665168 0.247075
H12   H     H_    0.131179 0.477011 0.706050 0.267341
N4    N     N_3   0.861542 0.862767 0.254572 -0.620336
H13   H     H_    0.909150 0.813465 0.315515 0.248899
H14   H     H_    0.896618 0.865573 0.194181 0.249833
I1    I     I_    0.202507 0.323039 0.524056 -0.423697
I2    I     I_    0.775417 0.859907 0.453029 -0.382919

loop_
_geom_bond_atom_site_label_1
_geom_bond_atom_site_label_2
_ccdc_geom_bond_type
C1    C24   S    
O1    C3    A    
O2    C4    A    
C2    O7    A    
C17   N3    S    
C21   C23   T    
O5    C3    A    
O13   V3    S    
O16   C28   A    
C19   H5    S    
C21   C28   S    
C18   N2    S    
O15   V3    S    
O20   V3    S    
N2    H10   S    
O11   V4    S    
C5    C7    A    
O11   C27   A    
C26   O17   A    
N4    H13   S    
N3    H12   S    
C2    C23   S    
C15   C17   S    
O17   V3    S    
O10   V2    S    
C6    C8    A    
C22   C24   T    
C17   N1    S    
C19   I1    S    
N1    H7    S    
O6    V2    S    
O14   V4    S    
O13   C25   A    
C9    H1    S    
C11   C13   A    
O14   C26   A    
C3    C8    S    
N1    H8    S    
C13   C26   S    
O16   V4    S    
C14   C25   S    
O4    C2    A    
C18   N4    S    
O5    V1    S    
C16   C18   S    
O4    V2    S    
N2    H9    S    
O12   V3    S    
O6    C4    A    
O1    V2    S    
O2    V1    S    
O18   V4    S    
C8    C10   A    
C12   C14   A    
O19   V3    S    
C5    C15   A    
C10   H2    S    
O19   V4    S    
C6    C16   A    
O3    V1    S    
C9    C11   A    
C7    C9    A    
O3    C1    A    
C22   C27   S    
C25   O18   A    
C11   H3    S    
C12   H4    S    
O9    V1    S    
O7    V1    S    
C1    O8    A    
C13   C15   A    
O8    V2    S    
C14   C16   A    
O15   C27   A    
C4    C7    S    
C20   H6    S    
C17   C19   S    
O20   V4    S    
C18   C20   S    
O12   C28   A    
N4    H14   S    
N3    H11   S    
C10   C12   A    
O9    V2    S    
O10   V1    S    
C5    C19   S    
C6    C20   S    
C20   I2    S    
