data_mof_unit_25331.cif
_audit_creation_date              2012-12-11T17:23:17-0500
_audit_creation_method            fapswitch 2.2
_symmetry_space_group_name_H-M    P1
_symmetry_Int_Tables_number       1
_space_group_crystal_system       triclinic
_cell_length_a                    22.398133
_cell_length_b                    7.084953
_cell_length_c                    19.537339
_cell_angle_alpha                 89.888848
_cell_angle_beta                  99.13915
_cell_angle_gamma                 89.755732
_cell_volume                      3060.97858985

loop_
_atom_site_label
_atom_site_type_symbol
_atom_type_description
_atom_site_fract_x
_atom_site_fract_y
_atom_site_fract_z
_atom_type_partial_charge
O1    O     O_R   0.443980 0.494320 0.557430 -0.526991
O2    O     O_R   0.556020 0.994320 0.442570 -0.534934
O3    O     O_R   0.441210 0.822520 0.414610 -0.540247
O4    O     O_R   0.558790 0.322520 0.585390 -0.527160
C1    C     C_R   0.425972 0.655826 0.389561 0.747347
C2    C     C_R   0.573556 0.154520 0.610322 0.749246
O5    O     O_R   0.436920 0.823940 0.555180 -0.539455
O6    O     O_R   0.563080 0.323940 0.444820 -0.531980
O7    O     O_R   0.551700 0.995760 0.584140 -0.541865
O8    O     O_R   0.448300 0.495760 0.415860 -0.526079
C3    C     C_R   0.421592 0.655591 0.574852 0.733537
C4    C     C_R   0.578454 0.155309 0.425242 0.733327
O9    O     O_3   0.537660 0.661290 0.509340 -0.369491
O10   O     O_3   0.462340 0.161290 0.490660 -0.366283
V1    V     V_3+5 0.493010 0.935560 0.498270 1.508030
V2    V     V_3+5 0.506990 0.435560 0.501730 1.535378
C5    C     C_R   0.749541 0.962571 0.204501 -0.170476
C6    C     C_R   0.252225 0.462014 0.797059 -0.173663
H1    H     H_    0.747116 0.847689 0.167662 0.156650
H2    H     H_    0.254883 0.346037 0.833654 0.155141
C7    C     C_R   0.795980 0.095525 0.207613 0.056473
C8    C     C_R   0.205792 0.596062 0.794605 0.056936
C9    C     C_R   0.798478 0.243348 0.255508 -0.134962
C10   C     C_R   0.202964 0.745199 0.746978 -0.132497
H3    H     H_    0.834350 0.346667 0.258056 0.153783
H4    H     H_    0.167070 0.849287 0.744905 0.155224
C11   C     C_R   0.755150 0.259974 0.300283 0.128936
C12   C     C_R   0.245945 0.762095 0.701822 0.129059
C13   C     C_R   0.708087 0.125015 0.297033 0.080110
C14   C     C_R   0.292974 0.625959 0.704348 0.082150
C15   C     C_R   0.705862 0.976423 0.248573 0.143961
C16   C     C_R   0.295546 0.476038 0.752557 0.145202
C17   C     C_1   0.840989 0.081257 0.161577 0.002902
C18   C     C_1   0.160931 0.581262 0.840788 0.003021
C19   C     C_1   0.662423 0.136818 0.342679 0.034555
C20   C     C_1   0.338215 0.637800 0.658177 0.036767
C21   C     C_1   0.624294 0.145892 0.380488 -0.121865
C22   C     C_1   0.376025 0.646750 0.619967 -0.120818
C23   C     C_1   0.878670 0.071172 0.123246 -0.134581
C24   C     C_1   0.123114 0.571061 0.878933 -0.143497
C25   C     C_R   0.625314 0.070269 0.799007 0.184739
C26   C     C_R   0.369058 0.715428 0.199179 0.190806
H5    H     H_    0.542734 0.040520 0.728059 0.159070
H6    H     H_    0.450693 0.771219 0.269729 0.161597
C27   C     C_R   0.614503 0.141091 0.676721 -0.106479
C28   C     C_R   0.383662 0.652356 0.323107 -0.110589
C29   C     C_R   0.905202 0.038766 0.764125 0.131088
C30   C     C_R   0.090573 0.609928 0.236412 0.136037
C31   C     C_R   0.867478 0.024400 0.700962 -0.109376
C32   C     C_R   0.126662 0.655802 0.298742 -0.112982
C33   C     C_R   0.805738 0.051222 0.696363 -0.124013
C34   C     C_R   0.189200 0.662037 0.303906 -0.131422
C35   C     C_R   0.779331 0.103819 0.754291 0.068642
C36   C     C_R   0.218319 0.610045 0.247992 0.074711
C37   C     C_R   0.816285 0.101883 0.821552 -0.008586
C38   C     C_R   0.181986 0.568148 0.183089 -0.006598
C39   C     C_R   0.715453 0.132564 0.747096 -0.003038
C40   C     C_R   0.282732 0.617083 0.253563 -0.004907
C41   C     C_R   0.687628 0.115939 0.806891 0.006647
C42   C     C_R   0.307858 0.650053 0.191731 0.009602
C43   C     C_R   0.722586 0.147437 0.872175 0.147428
C44   C     C_R   0.271328 0.605217 0.126877 0.131782
C45   C     C_R   0.786375 0.127616 0.880782 0.117655
C46   C     C_R   0.212538 0.531314 0.126533 0.095267
C47   C     C_R   0.677282 0.173389 0.682752 0.080530
C48   C     C_R   0.322795 0.596528 0.318128 0.083126
C49   C     C_R   0.590106 0.078553 0.733876 -0.197568
C50   C     C_R   0.404605 0.720291 0.264591 -0.194449
C51   C     C_R   0.881022 0.072548 0.825324 -0.115791
C52   C     C_R   0.116932 0.571731 0.177050 -0.125742
H7    H     H_    0.778474 0.019631 0.647140 0.162385
H8    H     H_    0.214340 0.717461 0.351293 0.160813
H9    H     H_    0.886066 0.987863 0.654820 0.159450
H10   H     H_    0.105906 0.693749 0.343228 0.158450
O11   O     O_R   0.051730 0.724670 0.084120 -0.529412
O12   O     O_R   0.948270 0.224670 0.915880 -0.531829
O13   O     O_R   0.063080 0.393540 0.944820 -0.535035
O14   O     O_R   0.936920 0.893540 0.055180 -0.532818
C53   C     C_R   0.077498 0.561875 0.924002 0.723348
C54   C     C_R   0.923748 0.061707 0.077468 0.731146
O15   O     O_R   0.058800 0.395030 0.085390 -0.538161
O16   O     O_R   0.941200 0.895030 0.914610 -0.533147
O17   O     O_R   0.943980 0.223310 0.057440 -0.532720
O18   O     O_R   0.056020 0.723310 0.942560 -0.526023
C55   C     C_R   0.075055 0.563412 0.109654 0.742302
C56   C     C_R   0.925344 0.064426 0.890366 0.746244
O19   O     O_3   0.962360 0.556290 0.990650 -0.371123
O20   O     O_3   0.037640 0.056290 0.009350 -0.371873
V3    V     V_3+5 0.006980 0.281990 0.001730 1.473102
V4    V     V_3+5 0.993020 0.781990 0.998270 1.492385
I1    I     I_    0.637171 0.767952 0.239199 -0.364685
I2    I     I_    0.364178 0.265568 0.760821 -0.368530
C57   C     C_3   0.820254 0.122921 0.953719 -0.766309
H11   H     H_    0.843939 0.985728 0.962393 0.192782
H12   H     H_    0.850707 0.246109 0.962091 0.214952
H13   H     H_    0.791555 0.127795 0.994770 0.206351
C58   C     C_3   0.188550 0.386069 0.072884 -0.726052
H14   H     H_    0.161761 0.277628 0.095334 0.219115
H15   H     H_    0.161733 0.456437 0.027775 0.181321
H16   H     H_    0.226079 0.305990 0.055355 0.213904
C59   C     C_3   0.761300 0.423042 0.350379 -0.700098
H17   H     H_    0.724659 0.428931 0.382356 0.224034
H18   H     H_    0.805087 0.411324 0.385879 0.215318
H19   H     H_    0.760580 0.557901 0.321201 0.223753
C60   C     C_3   0.239430 0.926654 0.652074 -0.704045
H20   H     H_    0.275918 0.932955 0.619909 0.219934
H21   H     H_    0.195538 0.916556 0.616767 0.213504
H22   H     H_    0.240130 0.060675 0.681553 0.225440
C61   C     C_3   0.693151 0.237334 0.929083 -0.669488
H23   H     H_    0.720790 0.357712 0.952384 0.207310
H24   H     H_    0.648284 0.299546 0.908649 0.235792
H25   H     H_    0.688186 0.132343 0.970031 0.229927
C62   C     C_3   0.293622 0.625381 0.058102 -0.682658
H26   H     H_    0.260019 0.582355 0.013014 0.199216
H27   H     H_    0.301561 0.776409 0.048192 0.229013
H28   H     H_    0.334690 0.537588 0.057614 0.244198
I3    I     I_    0.582526 0.943101 0.877511 -0.311773
I4    I     I_    0.417398 0.827506 0.122295 -0.314649
I5    I     I_    0.708279 0.329621 0.600789 -0.428494
I6    I     I_    0.298569 0.440147 0.403935 -0.419204
I7    I     I_    0.999392 0.996386 0.763378 -0.400104
I8    I     I_    0.995279 0.612352 0.234563 -0.405334

loop_
_geom_bond_atom_site_label_1
_geom_bond_atom_site_label_2
_ccdc_geom_bond_type
C59   H17   S    
C2    C27   S    
C11   C13   A    
O1    C3    A    
C43   C61   S    
C2    O7    A    
C58   H14   S    
C25   C49   A    
O14   V4    S    
O5    C3    A    
C60   H21   S    
O13   V3    S    
C17   C23   T    
C33   H7    S    
C18   C24   T    
C30   C52   A    
C19   C21   T    
C10   H4    S    
C28   C48   A    
C32   H10   S    
C30   I8    S    
C53   O18   A    
O14   C54   A    
C39   C41   A    
C7    C17   S    
C40   C42   A    
C42   C44   A    
O6    V2    S    
C4    C21   S    
C43   C45   A    
C29   C51   A    
C44   C46   A    
O11   V4    S    
C57   H11   S    
O19   V4    S    
C40   C48   A    
C12   C14   A    
C31   C33   A    
C37   C45   A    
C27   C49   A    
C32   C34   A    
C38   C46   A    
C9    C11   A    
C6    H2    S    
O12   V3    S    
C62   H28   S    
O15   V3    S    
O13   C53   A    
O2    C4    A    
C59   H18   S    
C48   I6    S    
C26   C50   A    
O18   V4    S    
C54   O17   A    
O17   V3    S    
C58   H15   S    
C34   C36   A    
C35   C37   A    
C8    C18   S    
C60   H22   S    
C36   C38   A    
C41   C43   A    
C25   C41   A    
C44   C62   S    
C29   C31   A    
C61   H25   S    
C26   C42   A    
C35   C39   A    
C26   I4    S    
O5    V1    S    
O16   C56   A    
C11   C59   S    
C5    C7    A    
C33   C35   A    
O4    V2    S    
C3    C22   S    
C28   C50   A    
C34   H8    S    
C12   C60   S    
O6    C4    A    
C47   I5    S    
C24   C53   S    
O1    V2    S    
O2    V1    S    
C37   C51   A    
C1    C28   S    
H5    C49   S    
C46   C58   S    
O20   V4    S    
C57   H13   S    
C38   C52   A    
C7    C9    A    
C27   C47   A    
C5    C15   A    
C31   H9    S    
H6    C50   S    
O4    C2    A    
C6    C16   A    
C20   C22   T    
O12   C56   A    
C58   H16   S    
O3    V1    S    
O11   C55   A    
C62   H26   S    
C36   C40   A    
C45   C57   S    
C6    C8    A    
C10   C12   A    
C39   C47   A    
O3    C1    A    
C59   H19   S    
C60   H20   S    
C13   C19   S    
C15   I1    S    
O16   V4    S    
C14   C20   S    
C23   C54   S    
C61   H24   S    
O7    V1    S    
C1    O8    A    
C13   C15   A    
O8    V2    S    
C61   H23   S    
C14   C16   A    
C16   I2    S    
C30   C32   A    
C5    H1    S    
C8    C10   A    
C9    H3    S    
C29   I7    S    
O20   V3    S    
C57   H12   S    
O9    V2    S    
O19   V3    S    
O10   V1    S    
C25   I3    S    
C52   C55   S    
O15   C55   A    
C51   C56   S    
C62   H27   S    
