data_mof_unit_12528.cif
_audit_creation_date              2012-12-10T17:02:18-0500
_audit_creation_method            fapswitch 2.2
_symmetry_space_group_name_H-M    P1
_symmetry_Int_Tables_number       1
_space_group_crystal_system       triclinic
_cell_length_a                    10.651439
_cell_length_b                    10.69033
_cell_length_c                    10.066765
_cell_angle_alpha                 89.784017
_cell_angle_beta                  91.755257
_cell_angle_gamma                 89.974952
_cell_volume                      1145.73016965

loop_
_atom_site_label
_atom_site_type_symbol
_atom_type_description
_atom_site_fract_x
_atom_site_fract_y
_atom_site_fract_z
_atom_type_partial_charge
C1    C     C_R   0.489883 0.263162 0.499921 0.967869
C2    C     C_2   0.456007 0.133931 0.502018 -0.245581
C3    C     C_2   0.488494 0.597755 0.928491 0.404782
C4    C     C_R   0.259470 0.493397 0.497889 0.951333
C5    C     C_2   0.527645 0.595833 0.073405 0.647113
C6    C     C_R   0.500740 0.737240 0.499376 0.881820
C7    C     C_R   0.739123 0.515126 0.502895 0.897956
C8    C     C_R   0.112276 0.375441 0.710983 0.377067
C9    C     C_R   0.060724 0.377521 0.839206 0.229853
C10   C     C_R   0.960970 0.459264 0.864229 0.328469
C11   C     C_R   0.903055 0.526470 0.759051 0.344729
C12   C     C_R   0.061026 0.455575 0.610332 -0.124954
C13   C     C_R   0.943470 0.508458 0.627745 -0.141332
C14   C     C_R   0.124379 0.489654 0.493785 -0.073824
C15   C     C_R   0.059513 0.546511 0.384942 0.471462
C16   C     C_R   0.931322 0.563118 0.392384 -0.245265
C17   C     C_R   0.872347 0.538503 0.511076 -0.078458
C18   C     C_2   0.426438 0.930508 0.410008 0.280309
C19   C     C_2   0.507090 0.870418 0.494187 0.242247
C20   C     C_2   0.439825 0.065458 0.392065 0.370454
Cl1   Cl    Cl    0.407352 0.730846 0.869315 -0.537209
Cl2   Cl    Cl    0.605134 0.384093 0.904549 -0.379180
Cl3   Cl    Cl    0.125382 0.286543 0.971601 -0.443687
Cl4   Cl    Cl    0.906784 0.476139 0.027200 -0.451715
Cl5   Cl    Cl    0.803825 0.653808 0.796851 -0.523772
H1    H     H_    0.444442 0.091997 0.599618 0.174667
H2    H     H_    0.877448 0.594207 0.305287 0.212789
H3    H     H_    0.062998 0.628822 0.211416 0.377810
H4    H     H_    0.605454 0.758411 0.059581 0.360185
H5    H     H_    0.388286 0.370193 0.170569 0.419088
H6    H     H_    0.230576 0.239412 0.754520 0.392168
H7    H     H_    0.279062 0.926234 0.291496 0.366856
H8    H     H_    0.655373 0.870337 0.612486 0.377010
H9    H     H_    0.438637 0.049945 0.200089 0.373335
N1    N     N_2   0.501340 0.501330 0.852150 0.051474
N2    N     N_2   0.501380 0.501360 0.147810 0.047573
O1    O     O_R   0.499980 0.319060 0.613040 -0.571424
O2    O     O_3   0.587617 0.697297 0.130828 -0.732912
O3    O     O_3   0.415609 0.421997 0.095268 -0.630685
O4    O     O_3   0.206549 0.293037 0.677833 -0.742090
O5    O     O_3   0.333496 0.865203 0.340321 -0.730388
O6    O     O_3   0.603852 0.932431 0.561551 -0.770868
O7    O     O_3   0.441598 0.118275 0.266443 -0.695236
O8    O     O_R   0.500020 0.319100 0.386900 -0.574140
O9    O     O_R   0.316750 0.499980 0.613090 -0.584604
O10   O     O_R   0.316790 0.500020 0.386950 -0.571402
O11   O     O_R   0.499980 0.680900 0.613100 -0.588286
O12   O     O_R   0.500020 0.680940 0.386960 -0.550648
O13   O     O_R   0.683210 0.499980 0.613050 -0.570914
O14   O     O_R   0.683250 0.500020 0.386910 -0.597377
O15   O     O_3   0.121927 0.583701 0.272892 -0.667622
Zn1   Zn    Zn3+2 0.499970 0.499970 0.650990 1.135272
Zn2   Zn    Zn3+2 0.500030 0.500030 0.349010 1.139884

loop_
_geom_bond_atom_site_label_1
_geom_bond_atom_site_label_2
_ccdc_geom_bond_type
H4    O2    S    
C8    C9    A    
H7    O5    S    
O11   Zn1   S    
Cl2   N1    S    
C15   O15   S    
C9    C10   A    
C1    O8    A    
C19   O6    S    
C13   C17   A    
C8    C12   A    
O13   Zn1   S    
C16   H2    S    
C1    O1    A    
C2    H1    S    
C4    O10   A    
C5    O2    S    
H6    O4    S    
C6    C19   S    
C11   C13   A    
C6    O12   A    
H8    O6    S    
O10   Zn2   S    
C12   C14   A    
H5    O3    S    
C1    C2    S    
C18   C20   S    
C4    O9    A    
C4    C14   S    
O12   Zn2   S    
H3    O15   S    
C3    Cl1   S    
O14   Zn2   S    
C6    O11   A    
C11   Cl5   S    
C3    N1    D    
C15   C16   A    
C5    N2    D    
C20   O7    S    
C12   C13   A    
C7    O13   A    
C18   C19   D    
C10   C11   A    
C18   O5    S    
N1    Zn1   S    
O1    Zn1   S    
C14   C15   A    
C9    Cl3   S    
N2    Zn2   S    
C8    O4    S    
O9    Zn1   S    
C10   Cl4   S    
C2    C20   D    
O8    Zn2   S    
N2    O3    S    
H9    O7    S    
C7    O14   A    
C16   C17   A    
C3    C5    S    
C7    C17   S    
