data_mof_unit_34298.cif
_audit_creation_date              2012-12-11T14:13:25-0500
_audit_creation_method            fapswitch 2.2
_symmetry_space_group_name_H-M    P1
_symmetry_Int_Tables_number       1
_space_group_crystal_system       triclinic
_cell_length_a                    17.591649
_cell_length_b                    17.126952
_cell_length_c                    17.285693
_cell_angle_alpha                 89.987903
_cell_angle_beta                  90.008821
_cell_angle_gamma                 89.98931
_cell_volume                      5208.0291313

loop_
_atom_site_label
_atom_site_type_symbol
_atom_type_description
_atom_site_fract_x
_atom_site_fract_y
_atom_site_fract_z
_atom_type_partial_charge
C1    C     C_R   0.601890 0.303539 0.107287 0.537905
C2    C     C_R   0.166748 0.077184 0.645445 0.585589
C3    C     C_R   0.898107 0.196180 0.607817 0.541517
C4    C     C_R   0.831422 0.921571 0.644194 0.602429
C5    C     C_R   0.101709 0.196065 0.391777 0.538184
C6    C     C_R   0.168886 0.921485 0.356007 0.601412
C7    C     C_R   0.898613 0.804424 0.390605 0.540960
C8    C     C_R   0.831179 0.078577 0.355953 0.605597
C9    C     C_R   0.571961 0.664141 0.146040 -0.120308
C10   C     C_R   0.307348 0.604888 0.108111 -0.149507
C11   C     C_R   0.427385 0.335491 0.145843 -0.093689
C12   C     C_R   0.666748 0.577184 0.145445 0.585588
C13   C     C_R   0.693064 0.394221 0.106457 -0.135007
C14   C     C_R   0.573001 0.335440 0.854177 -0.087259
C15   C     C_R   0.307614 0.395440 0.890884 -0.182704
C16   C     C_R   0.427124 0.664668 0.854217 -0.095728
C17   C     C_R   0.692542 0.604781 0.891576 -0.155853
C18   C     C_R   0.071961 0.164141 0.646040 -0.120309
C19   C     C_R   0.807348 0.104888 0.608111 -0.149507
C20   C     C_R   0.927385 0.835491 0.645844 -0.093689
C21   C     C_R   0.193065 0.894221 0.606457 -0.135007
C22   C     C_R   0.073001 0.835440 0.354177 -0.087259
C23   C     C_R   0.398106 0.696180 0.107817 0.541517
C24   C     C_R   0.807614 0.895440 0.390884 -0.182705
C25   C     C_R   0.927124 0.164668 0.354217 -0.095728
C26   C     C_R   0.192543 0.104781 0.391576 -0.155853
C27   C     C_R   0.676646 0.318921 0.128424 -0.132906
C28   C     C_R   0.628336 0.632607 0.191479 -0.078367
C29   C     C_R   0.323789 0.680175 0.130162 -0.130938
C30   C     C_R   0.369927 0.366263 0.190489 -0.173256
C31   C     C_R   0.675987 0.679989 0.869249 -0.132020
C32   C     C_R   0.630569 0.366158 0.809675 -0.176931
C33   C     C_R   0.324523 0.320531 0.867827 0.009672
C34   C     C_R   0.331422 0.421571 0.144194 0.602429
C35   C     C_R   0.369588 0.633906 0.809634 -0.173113
C36   C     C_R   0.176646 0.818921 0.628424 -0.132906
C37   C     C_R   0.128336 0.132607 0.691479 -0.078366
C38   C     C_R   0.823789 0.180175 0.630162 -0.130938
C39   C     C_R   0.869927 0.866263 0.690489 -0.173256
C40   C     C_R   0.175987 0.179989 0.369249 -0.132020
C41   C     C_R   0.130569 0.866158 0.309675 -0.176931
C42   C     C_R   0.824523 0.820531 0.367827 0.009672
C43   C     C_R   0.869588 0.133906 0.309634 -0.173113
C44   C     C_2   0.799693 0.736387 0.844996 0.383257
C45   C     C_R   0.601709 0.696065 0.891777 0.538184
C46   C     C_2   0.353110 0.736982 0.714056 0.357272
C47   C     C_2   0.201976 0.262116 0.843895 0.220608
C48   C     C_2   0.647235 0.262621 0.714684 0.361365
C49   C     C_2   0.800364 0.262679 0.153578 0.382507
C50   C     C_2   0.352718 0.262386 0.284983 0.356494
C51   C     C_2   0.200149 0.736633 0.154578 0.381464
C52   C     C_2   0.646664 0.736119 0.285854 0.235406
C53   C     C_2   0.299693 0.236386 0.344996 0.383257
C54   C     C_2   0.853110 0.236982 0.214056 0.357272
C55   C     C_2   0.701976 0.762116 0.343895 0.220607
C56   C     C_R   0.668886 0.421485 0.856007 0.601412
C57   C     C_2   0.147235 0.762621 0.214684 0.361365
C58   C     C_2   0.300364 0.762679 0.653578 0.382508
C59   C     C_2   0.852718 0.762386 0.784983 0.356494
C60   C     C_2   0.700149 0.236633 0.654578 0.381464
C61   C     C_2   0.146664 0.236119 0.785854 0.235406
C62   C     C_2   0.727178 0.727104 0.822692 0.347236
C63   C     C_2   0.354899 0.660220 0.729763 0.395578
C64   C     C_2   0.274547 0.273504 0.820831 0.375451
C65   C     C_2   0.645511 0.339471 0.730004 0.404022
C66   C     C_2   0.727693 0.271941 0.175373 0.345390
C67   C     C_R   0.398613 0.304425 0.890605 0.540960
C68   C     C_2   0.354886 0.339294 0.270047 0.401732
C69   C     C_2   0.272676 0.727262 0.176796 0.345184
C70   C     C_2   0.642418 0.658636 0.271220 0.348867
C71   C     C_2   0.227178 0.227104 0.322692 0.347236
C72   C     C_2   0.854899 0.160220 0.229763 0.395578
C73   C     C_2   0.774547 0.773504 0.320831 0.375452
C74   C     C_2   0.145511 0.839471 0.230003 0.404022
C75   C     C_2   0.227693 0.771941 0.675373 0.345390
C76   C     C_2   0.854886 0.839294 0.770048 0.401732
C77   C     C_2   0.772676 0.227262 0.676796 0.345184
C78   C     C_R   0.331179 0.578577 0.855953 0.605597
C79   C     C_2   0.142418 0.158637 0.771220 0.348867
C80   C     C_3   0.583078 0.174337 0.142735 -0.131654
C81   C     C_3   0.757820 0.523741 0.227049 -0.178270
C82   C     C_3   0.416542 0.825356 0.143645 -0.132462
C83   C     C_3   0.232714 0.466762 0.221655 -0.198731
C84   C     C_3   0.582943 0.825024 0.855318 -0.130371
C85   C     C_3   0.768229 0.466016 0.778965 -0.198681
C86   C     C_3   0.418904 0.177402 0.849244 -0.130989
C87   C     C_3   0.231643 0.534582 0.778786 -0.192751
C88   C     C_3   0.083078 0.674337 0.642735 -0.131654
C89   C     C_R   0.101890 0.803539 0.607287 0.537905
C90   C     C_3   0.257820 0.023741 0.727049 -0.178271
C91   C     C_3   0.916542 0.325356 0.643645 -0.132462
C92   C     C_3   0.732714 0.966762 0.721655 -0.198731
C93   C     C_3   0.082943 0.325024 0.355318 -0.130371
C94   C     C_3   0.268229 0.966016 0.278965 -0.198681
C95   C     C_3   0.918903 0.677402 0.349244 -0.130988
C96   C     C_3   0.731643 0.034581 0.278786 -0.192751
H1    H     H_    0.530828 0.706422 0.164567 0.184862
H2    H     H_    0.751615 0.078674 0.607042 0.209610
H3    H     H_    0.968592 0.793370 0.664694 0.177759
H4    H     H_    0.249033 0.919817 0.603983 0.210696
H5    H     H_    0.032034 0.793384 0.335058 0.183691
H6    H     H_    0.751783 0.921451 0.391826 0.212728
H7    H     H_    0.968277 0.206757 0.335296 0.177820
H8    H     H_    0.248295 0.078600 0.392612 0.209893
H9    H     H_    0.567194 0.195592 0.201311 0.114804
H10   H     H_    0.641963 0.151301 0.140852 0.159089
H11   H     H_    0.544881 0.124534 0.129687 0.178094
H12   H     H_    0.251615 0.578674 0.107042 0.209610
H13   H     H_    0.709835 0.489791 0.252289 0.176207
H14   H     H_    0.776814 0.571977 0.265113 0.178635
H15   H     H_    0.806573 0.482933 0.222501 0.143173
H16   H     H_    0.432652 0.803844 0.202077 0.117344
H17   H     H_    0.357629 0.848332 0.142047 0.158511
H18   H     H_    0.454640 0.875264 0.130681 0.178100
H19   H     H_    0.273737 0.508769 0.247345 0.118567
H20   H     H_    0.221088 0.415906 0.259373 0.208245
H21   H     H_    0.178079 0.498592 0.215938 0.156178
H22   H     H_    0.566756 0.803159 0.797046 0.113430
H23   H     H_    0.468592 0.293370 0.164694 0.177759
H24   H     H_    0.641791 0.848160 0.856639 0.158879
H25   H     H_    0.544732 0.874901 0.868092 0.178618
H26   H     H_    0.727670 0.508287 0.752909 0.116493
H27   H     H_    0.779651 0.414925 0.741510 0.208696
H28   H     H_    0.823079 0.497398 0.784844 0.156187
H29   H     H_    0.431237 0.202949 0.791354 0.155103
H30   H     H_    0.361333 0.151096 0.851637 0.140090
H31   H     H_    0.460154 0.129225 0.858055 0.176243
H32   H     H_    0.271948 0.492146 0.752631 0.126871
H33   H     H_    0.220512 0.585856 0.741461 0.207799
H34   H     H_    0.749033 0.419817 0.103983 0.210696
H35   H     H_    0.176613 0.503514 0.784562 0.157022
H36   H     H_    0.067194 0.695592 0.701310 0.114804
H37   H     H_    0.141963 0.651301 0.640853 0.159089
H38   H     H_    0.044881 0.624534 0.629687 0.178094
H39   H     H_    0.209835 0.989791 0.752289 0.176207
H40   H     H_    0.276814 0.071977 0.765113 0.178635
H41   H     H_    0.306573 0.982933 0.722501 0.143174
H42   H     H_    0.932652 0.303844 0.702078 0.117344
H43   H     H_    0.857629 0.348332 0.642047 0.158511
H44   H     H_    0.954640 0.375264 0.630681 0.178100
H45   H     H_    0.532034 0.293384 0.835058 0.183691
H46   H     H_    0.773737 0.008769 0.747345 0.118567
H47   H     H_    0.721087 0.915906 0.759373 0.208245
H48   H     H_    0.678079 0.998592 0.715938 0.156178
H49   H     H_    0.066756 0.303159 0.297046 0.113430
H50   H     H_    0.141791 0.348160 0.356639 0.158879
H51   H     H_    0.044732 0.374901 0.368092 0.178618
H52   H     H_    0.227670 0.008287 0.252909 0.116494
H53   H     H_    0.279651 0.914925 0.241510 0.208696
H54   H     H_    0.323079 0.997398 0.284844 0.156188
H55   H     H_    0.931237 0.702949 0.291354 0.155104
H56   H     H_    0.251783 0.421451 0.891826 0.212728
H57   H     H_    0.861333 0.651096 0.351637 0.140090
H58   H     H_    0.960154 0.629225 0.358055 0.176242
H59   H     H_    0.771948 0.992146 0.252631 0.126871
H60   H     H_    0.720512 0.085856 0.241461 0.207799
H61   H     H_    0.676613 0.003514 0.284562 0.157022
H62   H     H_    0.879917 0.723085 0.919930 0.327685
H63   H     H_    0.367137 0.844198 0.747339 0.309720
H64   H     H_    0.123615 0.272655 0.921603 0.329273
H65   H     H_    0.633233 0.155517 0.748503 0.310382
H66   H     H_    0.881018 0.275951 0.079160 0.325271
H67   H     H_    0.468277 0.706757 0.835296 0.177820
H68   H     H_    0.366156 0.155396 0.250615 0.310263
H69   H     H_    0.119802 0.723331 0.079795 0.327943
H70   H     H_    0.634034 0.843162 0.251028 0.328136
H71   H     H_    0.379917 0.223085 0.419930 0.327685
H72   H     H_    0.867137 0.344198 0.247339 0.309720
H73   H     H_    0.623615 0.772655 0.421603 0.329273
H74   H     H_    0.133233 0.655517 0.248503 0.310382
H75   H     H_    0.381019 0.775951 0.579160 0.325271
H76   H     H_    0.866156 0.655396 0.750615 0.310263
H77   H     H_    0.619802 0.223331 0.579795 0.327943
H78   H     H_    0.748295 0.578600 0.892612 0.209893
H79   H     H_    0.134034 0.343162 0.751028 0.328136
H80   H     H_    0.655712 0.725723 0.736792 0.312052
H81   H     H_    0.361997 0.556601 0.687257 0.310508
H82   H     H_    0.271436 0.212757 0.724306 0.336608
H83   H     H_    0.638624 0.442893 0.686942 0.307331
H84   H     H_    0.655913 0.273781 0.260999 0.315292
H85   H     H_    0.362192 0.442496 0.313511 0.310329
H86   H     H_    0.344291 0.725785 0.262582 0.314626
H87   H     H_    0.654150 0.627397 0.379468 0.336526
H88   H     H_    0.155712 0.225723 0.236792 0.312052
H89   H     H_    0.030828 0.206422 0.664567 0.184862
H90   H     H_    0.861997 0.056601 0.187257 0.310509
H91   H     H_    0.771435 0.712757 0.224306 0.336608
H92   H     H_    0.138624 0.942893 0.186942 0.307331
H93   H     H_    0.155913 0.773781 0.760998 0.315292
H94   H     H_    0.862192 0.942496 0.813511 0.310329
H95   H     H_    0.844291 0.225785 0.762582 0.314626
H96   H     H_    0.154150 0.127397 0.879468 0.336527
N1    N     N_R   0.574080 0.369570 0.076720 -0.104340
N2    N     N_R   0.130430 0.074080 0.576720 -0.092064
N3    N     N_R   0.925920 0.130430 0.576720 -0.103162
N4    N     N_R   0.869570 0.925920 0.576720 -0.091471
N5    N     N_R   0.074080 0.130430 0.423280 -0.104324
N6    N     N_R   0.130430 0.925920 0.423280 -0.092210
N7    N     N_R   0.925920 0.869570 0.423280 -0.110761
N8    N     N_R   0.869570 0.074080 0.423280 -0.090472
N9    N     N_R   0.574050 0.630410 0.076720 -0.069148
N10   N     N_R   0.369590 0.574050 0.076720 -0.097880
N11   N     N_R   0.425950 0.369590 0.076720 -0.068113
N12   N     N_R   0.630430 0.574080 0.076720 -0.092064
N13   N     N_R   0.630410 0.425950 0.076720 -0.095963
N14   N     N_R   0.574050 0.369590 0.923280 -0.067379
N15   N     N_R   0.369590 0.425950 0.923280 -0.102260
N16   N     N_R   0.425950 0.630410 0.923280 -0.066232
N17   N     N_R   0.630410 0.574050 0.923280 -0.098389
N18   N     N_R   0.074050 0.130410 0.576720 -0.069148
N19   N     N_R   0.869590 0.074050 0.576720 -0.097880
N20   N     N_R   0.925950 0.869590 0.576720 -0.068113
N21   N     N_R   0.130410 0.925950 0.576720 -0.095963
N22   N     N_R   0.074050 0.869590 0.423280 -0.067379
N23   N     N_R   0.425920 0.630430 0.076720 -0.103162
N24   N     N_R   0.869590 0.925950 0.423280 -0.102260
N25   N     N_R   0.925950 0.130410 0.423280 -0.066232
N26   N     N_R   0.130410 0.074050 0.423280 -0.098389
N27   N     N_R   0.369570 0.425920 0.076720 -0.091471
N28   N     N_R   0.574080 0.630430 0.923280 -0.104324
N29   N     N_R   0.630430 0.425920 0.923280 -0.092210
N30   N     N_R   0.425920 0.369570 0.923280 -0.110761
N31   N     N_R   0.369570 0.574080 0.923280 -0.090472
N32   N     N_R   0.074080 0.869570 0.576720 -0.104340
Ni1   Ni    Ni4+2 0.500000 0.370760 0.000000 0.293587
Ni2   Ni    Ni4+2 0.629240 0.500000 0.000000 0.257492
Ni3   Ni    Ni4+2 0.500000 0.629240 0.000000 0.294917
Ni4   Ni    Ni4+2 0.370760 0.500000 0.000000 0.258281
Ni5   Ni    Ni4+2 0.000000 0.870760 0.500000 0.293587
Ni6   Ni    Ni4+2 0.129240 0.000000 0.500000 0.257492
Ni7   Ni    Ni4+2 0.000000 0.129240 0.500000 0.294917
Ni8   Ni    Ni4+2 0.870760 0.000000 0.500000 0.258281
O1    O     O_3   0.572239 0.231647 0.085464 -0.590241
O2    O     O_3   0.241527 0.052392 0.652600 -0.634902
O3    O     O_3   0.927211 0.268347 0.586075 -0.590289
O4    O     O_3   0.755116 0.942094 0.647579 -0.605962
O5    O     O_3   0.072581 0.268304 0.413244 -0.590430
O6    O     O_3   0.245246 0.941852 0.353024 -0.604603
O7    O     O_3   0.928384 0.731757 0.409572 -0.601544
O8    O     O_3   0.754783 0.058327 0.352926 -0.605480
O9    O     O_3   0.824386 0.713418 0.917382 -0.739471
O10   O     O_3   0.377347 0.791192 0.768057 -0.761249
O11   O     O_3   0.178994 0.282758 0.917603 -0.737881
O12   O     O_3   0.741527 0.552392 0.152600 -0.634902
O13   O     O_3   0.622872 0.208632 0.768873 -0.762131
O14   O     O_3   0.825456 0.285535 0.081313 -0.739519
O15   O     O_3   0.376819 0.208562 0.230524 -0.762355
O16   O     O_3   0.175332 0.713616 0.082264 -0.737103
O17   O     O_3   0.622061 0.790022 0.231664 -0.748604
O18   O     O_3   0.324386 0.213419 0.417382 -0.739471
O19   O     O_3   0.877347 0.291192 0.268057 -0.761250
O20   O     O_3   0.678994 0.782758 0.417603 -0.737881
O21   O     O_3   0.122872 0.708632 0.268873 -0.762131
O22   O     O_3   0.325456 0.785535 0.581314 -0.739519
O23   O     O_3   0.427211 0.768347 0.086075 -0.590289
O24   O     O_3   0.876818 0.708562 0.730524 -0.762355
O25   O     O_3   0.675331 0.213616 0.582264 -0.737103
O26   O     O_3   0.122061 0.290022 0.731664 -0.748604
O27   O     O_3   0.705216 0.750415 0.749161 -0.762089
O28   O     O_3   0.340972 0.607659 0.670846 -0.782257
O29   O     O_3   0.301389 0.255462 0.747489 -0.769375
O30   O     O_3   0.659657 0.391739 0.670868 -0.783232
O31   O     O_3   0.705410 0.248934 0.248891 -0.760544
O32   O     O_3   0.341021 0.391351 0.329417 -0.780469
O33   O     O_3   0.294745 0.750467 0.250316 -0.760656
O34   O     O_3   0.255116 0.442093 0.147579 -0.605962
O35   O     O_3   0.656008 0.602861 0.327584 -0.794708
O36   O     O_3   0.205215 0.250415 0.249161 -0.762089
O37   O     O_3   0.840973 0.107659 0.170846 -0.782257
O38   O     O_3   0.801389 0.755462 0.247489 -0.769375
O39   O     O_3   0.159657 0.891739 0.170868 -0.783232
O40   O     O_3   0.205410 0.748934 0.748891 -0.760544
O41   O     O_3   0.841021 0.891351 0.829417 -0.780469
O42   O     O_3   0.794745 0.250467 0.750317 -0.760656
O43   O     O_3   0.156008 0.102861 0.827584 -0.794709
O44   O     O_3   0.572581 0.768304 0.913244 -0.590430
O45   O     O_3   0.745246 0.441852 0.853024 -0.604603
O46   O     O_3   0.428384 0.231757 0.909572 -0.601543
O47   O     O_3   0.254783 0.558327 0.852926 -0.605480
O48   O     O_3   0.072239 0.731647 0.585464 -0.590241

loop_
_geom_bond_atom_site_label_1
_geom_bond_atom_site_label_2
_ccdc_geom_bond_type
C36   C89   A    
C57   C74   D    
C71   O36   S    
N20   Ni5   S    
C40   C71   S    
C91   O3    S    
C26   N26   A    
C24   C42   A    
C47   C61   S    
N2    Ni6   S    
H93   O40   S    
C25   N25   A    
C65   O30   S    
C2    C37   A    
C8    C43   A    
N11   Ni1   S    
H88   O36   S    
C85   O45   S    
C11   H23   S    
C25   C43   A    
C89   N32   A    
H77   O25   S    
C70   O35   S    
C21   C36   A    
C23   N23   A    
N16   N31   A    
N3    N19   A    
C6    O6    S    
C80   H11   S    
C33   C67   A    
C43   C72   S    
H71   O18   S    
C5    O5    S    
C12   C28   A    
C19   N19   A    
C35   C78   A    
C23   C29   A    
C81   O12   S    
C18   N18   A    
C18   C37   A    
C6    C41   A    
C78   O47   S    
C17   N17   A    
C73   O38   S    
N16   Ni3   S    
C69   O33   S    
C56   N29   A    
H83   O30   S    
C96   H59   S    
C86   H30   S    
C75   O40   S    
C44   C59   S    
C49   C54   S    
C80   H10   S    
C61   C79   D    
H87   O35   S    
C90   O2    S    
C85   H28   S    
N9    Ni3   S    
C7    C42   A    
C87   H35   S    
H68   O15   S    
C92   H47   S    
N26   Ni6   S    
C21   N21   A    
C51   C69   D    
C26   H8    S    
C41   C74   S    
C10   H12   S    
C2    O2    S    
N4    Ni8   S    
C3    C38   A    
C1    O1    S    
C12   O12   S    
H94   O41   S    
C58   C75   D    
C9    H1    S    
C13   H34   S    
C26   C40   A    
C58   O22   S    
C51   C57   S    
N10   N23   A    
C92   H46   S    
C52   O17   S    
C59   O24   S    
H95   O42   S    
N23   Ni3   S    
C49   O14   S    
C52   C55   S    
C84   H24   S    
C78   N31   A    
C3    O3    S    
C86   O46   S    
C96   H61   S    
C56   O45   S    
C14   H45   S    
C46   C58   S    
C86   H29   S    
C57   O21   S    
N8    N25   A    
C4    O4    S    
C31   C62   S    
H69   O16   S    
C61   O26   S    
C80   O1    S    
C12   N12   A    
H96   O43   S    
C15   H56   S    
C19   H2    S    
C94   O6    S    
C44   O9    S    
C48   C60   S    
C54   O19   S    
C29   C69   S    
N5    Ni7   S    
C16   H67   S    
C94   H52   S    
C60   C77   D    
N24   Ni8   S    
H86   O33   S    
C50   C53   S    
N1    N13   A    
C49   C66   D    
C30   C34   A    
N7    N24   A    
H70   O17   S    
C81   H15   S    
C93   H50   S    
C11   C30   A    
C23   O23   S    
C54   C72   D    
N19   Ni8   S    
C93   O5    S    
C47   C64   D    
C6    N6    A    
C20   C39   A    
C34   N27   A    
C24   N24   A    
N10   Ni4   S    
N30   Ni1   S    
C44   C62   D    
C84   H25   S    
N5    N26   A    
C80   H9    S    
C92   O4    S    
C89   O48   S    
C3    N3    A    
N28   Ni3   S    
C32   C56   A    
C94   H53   S    
H62   O9    S    
C82   H16   S    
C60   O25   S    
H66   O14   S    
C67   N30   A    
C1    N1    A    
H65   O13   S    
C48   O13   S    
C36   C75   S    
C83   H19   S    
C22   C41   A    
N2    N18   A    
C91   H42   S    
C37   C79   S    
C64   O29   S    
C10   N10   A    
C4    C39   A    
N18   Ni7   S    
C55   C73   D    
C85   H27   S    
N14   Ni1   S    
N3    Ni7   S    
C85   H26   S    
H91   O38   S    
C95   O7    S    
C39   C76   S    
C13   C27   A    
C67   O46   S    
C93   H49   S    
C88   O48   S    
C82   H18   S    
C96   O8    S    
C8    O8    S    
C9    N9    A    
C87   H32   S    
C91   H43   S    
C59   C76   D    
C81   H13   S    
C11   N11   A    
C22   H5    S    
C14   N14   A    
H92   O39   S    
N13   Ni2   S    
C72   O37   S    
C48   C65   D    
N9    N12   A    
C13   N13   A    
C82   O23   S    
C8    N8    A    
N27   Ni4   S    
N17   Ni2   S    
C46   O10   S    
N12   Ni2   S    
C66   O31   S    
C53   C71   D    
C68   O32   S    
C90   H41   S    
C17   H78   S    
H73   O20   S    
H84   O31   S    
C4    N4    A    
H72   O19   S    
H76   O24   S    
C42   C73   S    
C79   O43   S    
H63   O10   S    
H74   O21   S    
C86   H31   S    
C21   H4    S    
N17   N28   A    
C77   O42   S    
C34   O34   S    
C83   O34   S    
C28   C70   S    
C82   H17   S    
C14   C32   A    
C16   N16   A    
H82   O29   S    
C87   O47   S    
C5    N5    A    
C74   O39   S    
N6    Ni6   S    
H80   O27   S    
C38   C77   S    
C94   H54   S    
C45   O44   S    
N8    Ni8   S    
C88   H37   S    
C18   H89   S    
N11   N27   A    
C46   C63   D    
C95   H58   S    
C83   H21   S    
C84   O44   S    
C51   O16   S    
N7    Ni5   S    
C88   H38   S    
C16   C35   A    
C27   C66   S    
C30   C68   S    
N32   Ni5   S    
N25   Ni7   S    
C47   O11   S    
C90   H39   S    
N31   Ni4   S    
H90   O37   S    
C87   H33   S    
C96   H60   S    
C20   H3    S    
C95   H57   S    
C7    O7    S    
C33   C64   S    
C17   C31   A    
N29   Ni2   S    
H75   O22   S    
N21   N32   A    
H85   O32   S    
C90   H40   S    
C93   H51   S    
C24   H6    S    
C53   O18   S    
C20   N20   A    
H64   O11   S    
C7    N7    A    
C92   H48   S    
H81   O28   S    
C25   H7    S    
C52   C70   D    
C76   O41   S    
H79   O26   S    
N1    Ni1   S    
C91   H44   S    
N4    N20   A    
C10   C29   A    
N15   Ni4   S    
C19   C38   A    
C95   H55   S    
C81   H14   S    
N15   N30   A    
C84   H22   S    
C31   C45   A    
C5    C40   A    
C83   H20   S    
C1    C27   A    
C45   N28   A    
C88   H36   S    
C55   O20   S    
C22   N22   A    
C35   C63   S    
N14   N29   A    
C2    N2    A    
C63   O28   S    
N22   Ni5   S    
C50   C68   D    
C62   O27   S    
C15   C33   A    
C15   N15   A    
N21   Ni6   S    
C50   O15   S    
C9    C28   A    
C32   C65   S    
N6    N22   A    
