data_mof_unit_28628.cif
_audit_creation_date              2012-12-10T18:38:08-0500
_audit_creation_method            fapswitch 2.2
_symmetry_space_group_name_H-M    P1
_symmetry_Int_Tables_number       1
_space_group_crystal_system       triclinic
_cell_length_a                    14.967055
_cell_length_b                    15.586532
_cell_length_c                    27.716677
_cell_angle_alpha                 90.650824
_cell_angle_beta                  105.912936
_cell_angle_gamma                 81.103648
_cell_volume                      6140.00962115

loop_
_atom_site_label
_atom_site_type_symbol
_atom_type_description
_atom_site_fract_x
_atom_site_fract_y
_atom_site_fract_z
_atom_type_partial_charge
C1    C     C_R   0.440215 0.662502 0.492234 0.864752
C2    C     C_R   0.456334 0.582877 0.122072 -0.170551
C3    C     C_R   0.501870 0.506976 0.646702 -0.089159
C4    C     C_R   0.494390 0.499623 0.352809 -0.107018
C5    C     C_R   0.467978 0.585479 0.022047 -0.005166
C6    C     C_R   0.488607 0.429779 0.971399 -0.013944
C7    C     C_R   0.495706 0.427110 0.023472 0.038819
C8    C     C_R   0.482787 0.586880 0.973713 0.040315
C9    C     C_R   0.480478 0.505282 0.048083 0.092883
C10   C     C_R   0.487944 0.509341 0.947357 0.093699
C11   C     C_R   0.437463 0.661927 0.044122 -0.272456
C12   C     C_R   0.559824 0.337708 0.508379 0.863170
C13   C     C_R   0.478700 0.355560 0.942499 -0.292706
C14   C     C_R   0.428565 0.661740 0.092793 0.399193
C15   C     C_R   0.476690 0.356295 0.892014 0.488749
C16   C     C_R   0.501383 0.501224 0.593995 0.893687
C17   C     C_R   0.498152 0.499740 0.405968 0.893881
C18   C     C_R   0.495286 0.663466 0.952004 -0.184663
C19   C     C_R   0.520273 0.348392 0.051568 -0.187084
C20   C     C_R   0.401913 0.756168 0.488822 -0.091658
C21   C     C_R   0.598241 0.244881 0.519063 -0.090379
C22   C     C_R   0.278665 0.882323 0.469774 -0.228249
C23   C     C_R   0.492270 0.511248 0.896985 -0.120304
C24   C     C_R   0.715421 0.122963 0.560171 -0.226252
C25   C     C_R   0.304813 0.791803 0.470408 0.169407
C26   C     C_R   0.692133 0.211948 0.547129 0.162872
C27   C     C_R   0.467994 0.811964 0.505468 -0.300937
C28   C     C_R   0.532979 0.188006 0.504550 -0.284754
C29   C     C_R   0.442120 0.901678 0.505842 0.097182
C30   C     C_R   0.553310 0.101797 0.521861 0.097243
C31   C     C_R   0.346159 0.936961 0.486322 0.143434
C32   C     C_R   0.647038 0.068356 0.548177 0.137407
C33   C     C_R   0.510328 0.957284 0.522597 0.081269
C34   C     C_R   0.478192 0.503497 0.098776 -0.106195
C35   C     C_R   0.482874 0.047733 0.512503 0.082480
C36   C     C_R   0.385819 0.081414 0.494680 -0.218028
C37   C     C_R   0.604755 0.925720 0.549368 -0.213795
C38   C     C_R   0.318678 0.026684 0.482498 -0.212843
C39   C     C_R   0.671459 0.980738 0.562452 -0.208056
C40   C     C_R   0.500488 0.589657 0.823438 0.573191
C41   C     C_R   0.494098 0.424661 0.176448 0.575136
C42   C     C_R   0.844891 0.641913 0.569903 -0.315709
C43   C     C_R   0.155130 0.359721 0.427690 -0.312140
C44   C     C_R   0.766611 0.602604 0.568384 0.309750
C45   C     C_R   0.499178 0.590778 0.874287 -0.056159
C46   C     C_R   0.243938 0.383389 0.437794 0.327096
C47   C     C_R   0.783743 0.526854 0.496268 -0.077238
C48   C     C_R   0.202267 0.493862 0.490888 -0.077908
C49   C     C_R   0.874445 0.550372 0.503332 -0.017425
C50   C     C_R   0.106956 0.478571 0.476438 -0.004802
C51   C     C_R   0.899065 0.617789 0.536748 0.092480
C52   C     C_R   0.084900 0.407081 0.445667 0.061227
C53   C     C_R   0.942910 0.505850 0.481144 0.036704
C54   C     C_R   0.034031 0.530509 0.492366 0.048841
C55   C     C_R   0.049001 0.607360 0.518397 -0.213728
C56   C     C_R   0.498078 0.422643 0.126070 -0.054871
C57   C     C_R   0.924785 0.433585 0.451258 -0.187795
C58   C     C_R   0.981931 0.652885 0.539514 0.191798
C59   C     C_R   0.993262 0.384549 0.432521 0.165799
C60   C     C_R   0.499810 0.436660 0.820619 0.623553
C61   C     C_R   0.464946 0.579691 0.173842 0.615395
C62   C     C_R   0.585263 0.499277 0.734839 -0.153509
C63   C     C_R   0.404459 0.512896 0.265740 -0.153961
C64   C     C_R   0.586552 0.494880 0.684937 -0.210109
C65   C     C_R   0.407563 0.512457 0.316242 -0.206417
C66   C     C_R   0.415903 0.524006 0.658859 -0.302807
C67   C     C_R   0.504657 0.667439 0.903151 0.158419
C68   C     C_R   0.578229 0.488456 0.338434 -0.282976
C69   C     C_R   0.413851 0.528364 0.708783 0.448182
C70   C     C_R   0.575862 0.489863 0.287813 0.513029
C71   C     C_R   0.499503 0.515376 0.746922 0.198172
C72   C     C_R   0.487955 0.501343 0.251335 0.176931
C73   C     C_3   0.768930 0.267552 0.564646 -0.368536
C74   C     C_3   0.811102 0.286490 0.522302 -0.835195
C75   C     C_3   0.227387 0.737952 0.449638 -0.411905
C76   C     C_3   0.229171 0.704277 0.397830 -0.764333
C77   C     C_3   0.002845 0.737771 0.564698 -0.407713
C78   C     C_R   0.522994 0.343989 0.102465 0.156383
C79   C     C_3   0.012026 0.805100 0.527337 -0.861208
C80   C     C_3   0.970271 0.307353 0.399010 -0.423680
C81   C     C_3   0.870000 0.286486 0.387547 -0.814154
C82   C     C_3   0.306821 0.336783 0.407913 -0.404951
C83   C     C_3   0.266465 0.358679 0.351677 -0.851037
C84   C     C_3   0.738853 0.601120 0.616667 -0.377115
C85   C     C_3   0.664030 0.677201 0.620511 -0.809100
C86   C     C_3   0.521230 0.752639 0.882420 -0.326118
C87   C     C_3   0.536772 0.827386 0.918627 -0.855955
C88   C     C_3   0.554678 0.256387 0.131502 -0.312096
C89   C     C_R   0.489785 0.433402 0.869516 -0.153762
C90   C     C_3   0.591861 0.178634 0.104306 -0.864753
H1    H     H_    0.350378 0.533847 0.629313 0.187319
H2    H     H_    0.753465 0.486647 0.466420 0.143851
H3    H     H_    0.869281 0.681816 0.601425 0.149994
H4    H     H_    0.141257 0.305562 0.403576 0.149395
H5    H     H_    0.112909 0.633950 0.522751 0.131568
H6    H     H_    0.857294 0.413450 0.442683 0.154618
H7    H     H_    0.342300 0.523686 0.326683 0.167219
H8    H     H_    0.653404 0.479650 0.676474 0.155470
H9    H     H_    0.337082 0.522637 0.237581 0.162824
H10   H     H_    0.650872 0.488446 0.764334 0.159837
H11   H     H_    0.415181 0.722474 0.022623 0.193089
H12   H     H_    0.645517 0.478181 0.366680 0.193998
H13   H     H_    0.466966 0.296830 0.958291 0.195591
H14   H     H_    0.502101 0.719958 0.974432 0.167338
H15   H     H_    0.542166 0.290062 0.034145 0.167541
H16   H     H_    0.245079 0.054819 0.468663 0.146365
H17   H     H_    0.742821 0.954222 0.583285 0.149261
H18   H     H_    0.756225 0.317217 0.488962 0.260388
H19   H     H_    0.863446 0.330960 0.535513 0.250152
H20   H     H_    0.847248 0.225076 0.510973 0.251868
H21   H     H_    0.743095 0.328281 0.581169 0.218681
H22   H     H_    0.827064 0.233448 0.595694 0.199014
H23   H     H_    0.465271 0.212427 0.479315 0.155661
H24   H     H_    0.214733 0.759767 0.370550 0.257340
H25   H     H_    0.298155 0.665462 0.398475 0.261109
H26   H     H_    0.173929 0.662590 0.384819 0.242969
H27   H     H_    0.230926 0.684267 0.476253 0.211733
H28   H     H_    0.157119 0.777709 0.445376 0.193810
H29   H     H_    0.074583 0.784242 0.513481 0.245046
H30   H     H_    0.947915 0.815475 0.494987 0.272319
H31   H     H_    0.020380 0.867876 0.546077 0.254655
H32   H     H_    0.947270 0.768893 0.581339 0.208710
H33   H     H_    0.069322 0.724850 0.595480 0.216244
H34   H     H_    0.541243 0.784391 0.516226 0.177151
H35   H     H_    0.854149 0.268541 0.422594 0.243278
H36   H     H_    0.817928 0.342347 0.367856 0.297463
H37   H     H_    0.863452 0.230220 0.362580 0.266822
H38   H     H_    0.983559 0.319685 0.362353 0.221748
H39   H     H_    0.018364 0.247902 0.417175 0.205447
H40   H     H_    0.246880 0.430035 0.345011 0.260657
H41   H     H_    0.319758 0.334234 0.331637 0.265534
H42   H     H_    0.203158 0.327746 0.335758 0.257012
H43   H     H_    0.377924 0.351419 0.418257 0.268908
H44   H     H_    0.313691 0.265470 0.414215 0.175543
H45   H     H_    0.205299 0.910763 0.455039 0.138194
H46   H     H_    0.691147 0.739253 0.619342 0.233510
H47   H     H_    0.598650 0.678161 0.589975 0.279802
H48   H     H_    0.647003 0.671639 0.656790 0.256330
H49   H     H_    0.720940 0.537253 0.622999 0.215578
H50   H     H_    0.801415 0.604466 0.649069 0.188699
H51   H     H_    0.214098 0.621003 0.656481 0.340004
H52   H     H_    0.828935 0.480531 0.310769 0.387194
H53   H     H_    0.472669 0.849806 0.930996 0.273605
H54   H     H_    0.598240 0.807299 0.951552 0.265867
H55   H     H_    0.551509 0.883138 0.899055 0.280064
H56   H     H_    0.786979 0.096281 0.580671 0.141072
H57   H     H_    0.585229 0.738913 0.868902 0.242279
H58   H     H_    0.459448 0.777450 0.850546 0.267534
H59   H     H_    0.535417 0.162396 0.071772 0.271641
H60   H     H_    0.653026 0.192108 0.091897 0.269157
H61   H     H_    0.615699 0.121018 0.130474 0.276649
H62   H     H_    0.612691 0.263761 0.165521 0.267103
H63   H     H_    0.494299 0.238286 0.142918 0.254065
H64   H     H_    0.253519 0.707743 0.119061 0.339179
H65   H     H_    0.362429 0.231957 0.786532 0.391016
H66   H     H_    0.359339 0.150140 0.491279 0.147368
H67   H     H_    0.628768 0.859205 0.562424 0.144273
H68   H     H_    0.225883 0.542271 0.517304 0.127535
N1    N     N_R   0.500087 0.513986 0.798514 -0.345469
N2    N     N_R   0.482187 0.501890 0.199058 -0.341427
N3    N     N_R   0.731710 0.552720 0.528410 -0.114088
N4    N     N_R   0.268290 0.447280 0.471590 -0.115684
O1    O     O_R   0.383110 0.605620 0.485680 -0.616433
O2    O     O_2   0.501761 0.351044 0.203305 -0.570613
O3    O     O_2   0.460298 0.652942 0.199882 -0.433344
O4    O     O_2   0.510925 0.363770 0.794953 -0.459703
O5    O     O_2   0.294138 0.472321 0.752617 -0.204871
O6    O     O_2   0.298766 0.628252 0.753213 -0.284983
O7    O     O_3   0.214575 0.562115 0.669724 -0.543580
O8    O     O_2   0.706328 0.383611 0.257858 -0.306335
O9    O     O_2   0.675450 0.535217 0.227375 -0.271232
O10   O     O_3   0.770131 0.499989 0.320365 -0.579438
O11   O     O_2   0.449627 0.803949 0.147593 -0.178562
O12   O     O_R   0.616890 0.394380 0.514320 -0.615163
O13   O     O_2   0.325232 0.821974 0.068610 -0.290561
O14   O     O_3   0.296178 0.741513 0.142719 -0.475464
O15   O     O_2   0.538196 0.212751 0.848600 -0.247680
O16   O     O_2   0.414928 0.201181 0.889467 -0.300210
O17   O     O_3   0.366962 0.287042 0.804560 -0.460949
O18   O     O_R   0.531900 0.639510 0.503910 -0.610405
O19   O     O_R   0.468100 0.360490 0.496090 -0.636203
O20   O     O_R   0.425620 0.483050 0.562130 -0.607815
O21   O     O_R   0.574380 0.516950 0.437870 -0.615777
O22   O     O_R   0.574410 0.516930 0.580360 -0.630523
O23   O     O_R   0.425590 0.483070 0.419640 -0.633406
O24   O     O_2   0.501064 0.662812 0.798164 -0.570903
S1    S     S_3+6 0.304009 0.548283 0.722668 0.054430
S2    S     S_3+6 0.683325 0.476446 0.271445 0.022454
S3    S     S_3+6 0.374995 0.760900 0.112682 0.093982
S4    S     S_3+6 0.450440 0.260364 0.859007 0.082379
Zn1   Zn    Zn3+2 0.400660 0.477380 0.487830 0.936445
Zn2   Zn    Zn3+2 0.599340 0.522620 0.512170 0.939708

loop_
_geom_bond_atom_site_label_1
_geom_bond_atom_site_label_2
_ccdc_geom_bond_type
C21   C26   A    
C63   C65   A    
C34   C56   A    
C23   C45   A    
C81   H36   S    
C27   C29   A    
C42   H3    S    
C47   H2    S    
C40   N1    A    
C35   C36   A    
C75   H27   S    
C60   N1    A    
C90   H60   S    
O21   Zn2   S    
C26   C73   S    
C74   H19   S    
C47   C49   A    
C3    C64   A    
C39   H17   S    
C79   H31   S    
C44   N3    A    
C50   C54   A    
O9    S2    D    
H52   O10   S    
C68   H12   S    
C5    C11   A    
C28   H23   S    
C90   H59   S    
C4    C65   A    
O16   S4    D    
C1    O18   A    
C16   O20   A    
C43   C52   A    
C57   C59   A    
C66   C69   A    
C48   N4    A    
C20   C25   A    
C29   C33   A    
C43   H4    S    
C56   C78   A    
C73   C74   S    
C32   C39   A    
C37   H67   S    
C69   C71   A    
C62   C64   A    
C77   H32   S    
C58   C77   S    
C76   H26   S    
C46   C82   S    
C14   S3    S    
C84   H49   S    
C17   O23   A    
C49   C51   A    
C22   C25   A    
C79   H29   S    
C45   C67   A    
C76   H24   S    
O22   Zn2   S    
O23   Zn1   S    
O15   S4    D    
C87   H54   S    
C13   H13   S    
C69   S1    S    
C2    C61   A    
C70   S2    S    
C42   C51   A    
C64   H8    S    
C2    C34   A    
C48   C50   A    
O6    S1    D    
C86   H57   S    
C88   H62   S    
C75   H28   S    
C42   C44   A    
C76   H25   S    
N3    Zn2   S    
N4    Zn1   S    
H65   O17   S    
C73   H21   S    
C77   C79   S    
C40   C45   A    
C37   C39   A    
C22   C31   A    
C84   C85   S    
O7    S1    S    
C83   H40   S    
C55   H5    S    
O18   Zn2   S    
C61   N2    A    
C11   C14   A    
C4    C68   A    
C53   C57   A    
C86   C87   S    
C80   C81   S    
C80   H38   S    
C18   C67   A    
C53   C54   A    
C48   H68   S    
C12   C21   S    
C57   H6    S    
C33   C37   A    
C25   C75   S    
C82   H44   S    
C19   C78   A    
C75   C76   S    
C24   C32   A    
C41   C56   A    
C5    C9    A    
C77   H33   S    
C52   C59   A    
C15   C89   A    
C41   N2    A    
C17   O21   A    
C50   C52   A    
C12   O19   A    
O5    S1    D    
C38   H16   S    
H51   O7    S    
C23   C89   A    
C11   H11   S    
C51   C58   A    
C18   H14   S    
C1    O1    A    
C6    C7    A    
C62   H10   S    
C4    C17   S    
C19   H15   S    
C1    C20   S    
C8    C10   A    
C15   S4    S    
C88   C90   S    
C7    C19   A    
C13   C15   A    
C9    C34   A    
C41   O2    S    
C3    C66   A    
O20   Zn1   S    
C85   H47   S    
C71   N1    S    
C36   H66   S    
C73   H22   S    
C12   O12   A    
C78   C88   S    
C7    C9    A    
C60   C89   A    
C54   C55   A    
C67   C86   S    
C80   H39   S    
C87   H55   S    
C81   H35   S    
C21   C28   A    
C24   C26   A    
C90   H61   S    
C44   C84   S    
C86   H58   S    
C59   C80   S    
O13   S3    D    
C5    C8    A    
O1    Zn1   S    
C27   H34   S    
C16   O22   A    
C66   H1    S    
C20   C27   A    
C10   C23   A    
C63   H9    S    
C30   C35   A    
C72   N2    S    
C31   C38   A    
H64   O14   S    
C22   H45   S    
C88   H63   S    
C82   H43   S    
C36   C38   A    
C83   H41   S    
C65   H7    S    
C28   C30   A    
C29   C31   A    
C24   H56   S    
C6    C13   A    
C30   C32   A    
O19   Zn1   S    
O14   S3    S    
O17   S4    S    
O10   S2    S    
C49   C53   A    
O11   S3    D    
C33   C35   A    
C62   C71   A    
C61   O3    S    
C2    C14   A    
C43   C46   A    
C8    C18   A    
C6    C10   A    
C85   H46   S    
C74   H18   S    
C47   N3    A    
C79   H30   S    
C83   H42   S    
C60   O4    S    
C40   O24   S    
C63   C72   A    
C84   H50   S    
C68   C70   A    
C82   C83   S    
C46   N4    A    
C55   C58   A    
O8    S2    D    
C70   C72   A    
C87   H53   S    
C74   H20   S    
C85   H48   S    
C81   H37   S    
C3    C16   S    
O12   Zn2   S    
