data_mof_unit_38818.cif
_audit_creation_date              2012-10-26T21:14:25-0400
_audit_creation_method            fapswitch 2.2
_symmetry_space_group_name_H-M    P1
_symmetry_Int_Tables_number       1
_space_group_crystal_system       triclinic
_cell_length_a                    11.027992
_cell_length_b                    19.445966
_cell_length_c                    18.340924
_cell_angle_alpha                 89.978562
_cell_angle_beta                  102.838619
_cell_angle_gamma                 90.684996
_cell_volume                      3834.59476816

loop_
_atom_site_label
_atom_site_type_symbol
_atom_type_description
_atom_site_fract_x
_atom_site_fract_y
_atom_site_fract_z
_atom_type_partial_charge
C1    C     C_R   0.499496 0.367705 0.499932 0.528132
C2    C     C_R   0.504008 0.927799 0.499000 0.030475
C3    C     C_R   0.453561 0.444674 0.715759 0.361070
C4    C     C_R   0.602774 0.521365 0.291243 0.362161
C5    C     C_R   0.461955 0.442358 0.793415 -0.138109
C6    C     C_R   0.605823 0.516073 0.215168 -0.138999
C7    C     C_R   0.500409 0.500381 0.838555 -0.057038
C8    C     C_R   0.497378 0.501264 0.160829 -0.059644
C9    C     C_R   0.539698 0.557996 0.803353 -0.145937
C10   C     C_R   0.390158 0.485965 0.187291 -0.138793
C11   C     C_R   0.548347 0.555098 0.727891 0.353962
C12   C     C_R   0.500653 0.632291 0.500017 0.526214
C13   C     C_R   0.395586 0.479642 0.264411 0.362605
C14   C     C_R   0.588392 0.539147 0.973714 0.239204
C15   C     C_R   0.416696 0.457217 0.026684 0.241299
C16   C     C_R   0.262788 0.499842 0.469604 0.545845
C17   C     C_R   0.737240 0.499955 0.530464 0.543582
C18   C     C_R   0.576271 0.546438 0.048217 0.234926
C19   C     C_R   0.408039 0.463110 0.949112 0.224913
C20   C     C_R   0.496467 0.501739 0.077861 -0.065103
C21   C     C_R   0.498892 0.500891 0.921116 -0.064141
C22   C     C_2   0.127591 0.498473 0.452594 -0.136835
C23   C     C_R   0.502196 0.707848 0.499932 0.005740
C24   C     C_2   0.872494 0.500698 0.547840 -0.139096
C25   C     C_2   0.067597 0.500610 0.508309 -0.184588
C26   C     C_2   0.932988 0.497069 0.492518 -0.158728
C27   C     C_R   0.505567 0.744002 0.434081 -0.139367
C28   C     C_R   0.501445 0.255441 0.565867 -0.133629
C29   C     C_R   0.506600 0.815593 0.433847 -0.123122
C30   C     C_R   0.501449 0.183860 0.565526 -0.130565
C31   C     C_R   0.504550 0.852165 0.499446 0.033062
C32   C     C_R   0.499257 0.147756 0.499009 0.033646
C33   C     C_R   0.501815 0.816153 0.565349 -0.130235
C34   C     C_R   0.498817 0.292140 0.499619 0.009639
C35   C     C_R   0.496200 0.184379 0.432702 -0.122658
C36   C     C_R   0.500323 0.744563 0.565560 -0.137376
C37   C     C_R   0.495933 0.255969 0.432980 -0.139466
C38   C     C_3   0.730816 0.609580 0.724558 0.007425
C39   C     C_3   0.789320 0.661682 0.679806 -0.247181
C40   C     C_3   0.930861 0.662754 0.704604 -0.491533
C41   C     C_3   0.287784 0.381995 0.282139 0.023206
C42   C     C_3   0.171597 0.358790 0.224795 -0.283974
C43   C     C_3   0.159830 0.280526 0.221392 -0.488897
C44   C     C_3   0.783395 0.527624 0.951384 0.010938
C45   C     C_R   0.580764 0.964982 0.557337 -0.117673
C46   C     C_3   0.870776 0.522206 0.028924 -0.249645
C47   C     C_3   0.986761 0.481248 0.026022 -0.483924
C48   C     C_3   0.408410 0.350589 0.078641 0.011560
C49   C     C_3   0.401602 0.297104 0.016533 -0.243023
C50   C     C_3   0.461957 0.229884 0.047561 -0.503102
C51   C     C_3   0.578951 0.653098 0.101704 0.010954
C52   C     C_3   0.579879 0.705754 0.039687 -0.244053
C53   C     C_3   0.514612 0.771698 0.053329 -0.501726
C54   C     C_3   0.216964 0.474213 0.871591 0.023276
C55   C     C_3   0.096895 0.433418 0.842002 -0.251825
C56   C     C_R   0.424314 0.034780 0.440516 -0.117601
C57   C     C_3   0.995924 0.478651 0.796238 -0.506864
C58   C     C_3   0.273205 0.389197 0.657611 0.020471
C59   C     C_3   0.224010 0.321445 0.682606 -0.284130
C60   C     C_3   0.082825 0.315689 0.655950 -0.486279
C61   C     C_3   0.709569 0.619573 0.336968 0.020176
C62   C     C_3   0.827112 0.643397 0.312625 -0.280932
C63   C     C_3   0.837997 0.721701 0.312776 -0.484055
C64   C     C_R   0.579405 0.036565 0.557242 -0.116411
C65   C     C_R   0.425960 0.963193 0.440512 -0.116755
C66   C     C_R   0.500961 0.072036 0.498917 0.031221
Cu1   Cu    Cu3+1 0.499960 0.500000 0.573360 1.009134
Cu2   Cu    Cu3+1 0.500040 0.500000 0.426640 1.009849
H1    H     H_    0.883209 0.491498 0.434687 0.202796
H2    H     H_    0.503903 0.281840 0.618090 0.169208
H3    H     H_    0.510103 0.842421 0.382576 0.100318
H4    H     H_    0.502158 0.156709 0.617184 0.102332
H5    H     H_    0.498748 0.843407 0.616387 0.104812
H6    H     H_    0.495954 0.157672 0.380863 0.100083
H7    H     H_    0.496922 0.718149 0.617012 0.169326
H8    H     H_    0.494204 0.282865 0.381063 0.112738
H9    H     H_    0.642896 0.938654 0.602484 0.100328
H10   H     H_    0.361743 0.060991 0.395485 0.098879
H11   H     H_    0.640842 0.064212 0.602261 0.101001
H12   H     H_    0.117815 0.505089 0.566295 0.146172
H13   H     H_    0.364723 0.935436 0.395487 0.101238
H14   H     H_    0.769558 0.557859 0.717686 0.144540
H15   H     H_    0.755754 0.624481 0.784702 0.120008
H16   H     H_    0.762524 0.648354 0.619364 0.179087
H17   H     H_    0.753695 0.713806 0.687483 0.160627
H18   H     H_    0.960160 0.674975 0.765180 0.143264
H19   H     H_    0.969821 0.702621 0.672648 0.149320
H20   H     H_    0.968810 0.612150 0.693638 0.140488
H21   H     H_    0.281281 0.361941 0.337901 0.162001
H22   H     H_    0.371829 0.358186 0.268306 0.096962
H23   H     H_    0.436309 0.394969 0.817193 0.165850
H24   H     H_    0.087683 0.380330 0.240127 0.169592
H25   H     H_    0.176151 0.378403 0.168583 0.170877
H26   H     H_    0.241835 0.257923 0.204876 0.136922
H27   H     H_    0.074834 0.265357 0.179338 0.147851
H28   H     H_    0.152599 0.259701 0.276699 0.147160
H29   H     H_    0.836980 0.548828 0.911763 0.133688
H30   H     H_    0.749888 0.475508 0.929839 0.115855
H31   H     H_    0.899355 0.574645 0.050725 0.194302
H32   H     H_    0.821505 0.496258 0.068137 0.169826
H33   H     H_    0.960537 0.428476 0.004610 0.146525
H34   H     H_    0.693567 0.525122 0.199698 0.165307
H35   H     H_    0.046908 0.477481 0.083080 0.155189
H36   H     H_    0.040388 0.507375 0.989289 0.149987
H37   H     H_    0.365182 0.328153 0.122582 0.138761
H38   H     H_    0.507439 0.362103 0.106204 0.112700
H39   H     H_    0.302661 0.286850 0.988946 0.187797
H40   H     H_    0.450330 0.317258 0.973930 0.175821
H41   H     H_    0.561473 0.238859 0.074569 0.143156
H42   H     H_    0.456116 0.192355 0.001262 0.145275
H43   H     H_    0.413149 0.207723 0.089161 0.141703
H44   H     H_    0.622687 0.677084 0.156307 0.139131
H45   H     H_    0.565132 0.605581 0.833591 0.164429
H46   H     H_    0.481337 0.639780 0.104511 0.116052
H47   H     H_    0.677580 0.718230 0.037365 0.188471
H48   H     H_    0.531691 0.683680 0.984882 0.173075
H49   H     H_    0.416184 0.760474 0.054820 0.143324
H50   H     H_    0.516385 0.808661 0.007409 0.146145
H51   H     H_    0.562662 0.795712 0.107118 0.141962
H52   H     H_    0.242519 0.503013 0.824672 0.131981
H53   H     H_    0.199367 0.511788 0.913980 0.122113
H54   H     H_    0.115524 0.390530 0.806315 0.171494
H55   H     H_    0.063486 0.410936 0.889791 0.169925
H56   H     H_    0.301509 0.477665 0.149063 0.166329
H57   H     H_    0.979068 0.523696 0.829654 0.131087
H58   H     H_    0.908051 0.448486 0.779159 0.144833
H59   H     H_    0.024476 0.496892 0.745123 0.134645
H60   H     H_    0.239632 0.393330 0.596101 0.172739
H61   H     H_    0.232705 0.432892 0.683590 0.101455
H62   H     H_    0.267282 0.277678 0.659252 0.172102
H63   H     H_    0.249693 0.318164 0.744602 0.161607
H64   H     H_    0.036860 0.360071 0.676146 0.147023
H65   H     H_    0.049095 0.267562 0.677805 0.148319
H66   H     H_    0.056472 0.314322 0.593874 0.154653
H67   H     H_    0.922771 0.505002 0.605784 0.085030
H68   H     H_    0.713390 0.639488 0.394221 0.164374
H69   H     H_    0.626316 0.642976 0.299457 0.099263
H70   H     H_    0.910178 0.622021 0.351374 0.173549
H71   H     H_    0.824951 0.623996 0.255381 0.174496
H72   H     H_    0.756944 0.744122 0.273330 0.136904
H73   H     H_    0.924151 0.737344 0.294973 0.152472
H74   H     H_    0.842476 0.742261 0.369833 0.149305
H75   H     H_    0.076952 0.494939 0.394617 0.118969
H76   H     H_    0.507273 0.717104 0.382650 0.112643
N1    N     N_R   0.499990 0.500020 0.683620 -0.206001
N2    N     N_R   0.500010 0.499980 0.316380 -0.210185
O1    O     O_R   0.499950 0.400180 0.561970 -0.454826
O2    O     O_3   0.291906 0.454771 0.286496 -0.546694
O3    O     O_3   0.685560 0.573779 0.952764 -0.568659
O4    O     O_3   0.339682 0.409621 0.050506 -0.563710
O5    O     O_3   0.650696 0.595216 0.092374 -0.571830
O6    O     O_3   0.312295 0.427735 0.902097 -0.567609
O7    O     O_3   0.404852 0.388237 0.673382 -0.561320
O8    O     O_3   0.706749 0.546805 0.340162 -0.563746
O9    O     O_R   0.500050 0.599820 0.438030 -0.516042
O10   O     O_R   0.500010 0.400190 0.438070 -0.518056
O11   O     O_R   0.499990 0.599810 0.561930 -0.450241
O12   O     O_R   0.320670 0.500000 0.539180 -0.513441
O13   O     O_R   0.679330 0.500000 0.460820 -0.448196
O14   O     O_R   0.320730 0.500010 0.415280 -0.440738
O15   O     O_R   0.679270 0.499990 0.584720 -0.505210
O16   O     O_3   0.600429 0.610037 0.697915 -0.554742

loop_
_geom_bond_atom_site_label_1
_geom_bond_atom_site_label_2
_ccdc_geom_bond_type
C4    O8    S    
C46   H31   S    
C59   H62   S    
C58   H60   S    
C51   H44   S    
C47   H33   S    
C48   O4    S    
C38   H15   S    
C16   O14   A    
C34   C37   A    
C63   H72   S    
C14   C18   A    
C41   H21   S    
C3    O7    S    
C2    C65   A    
C61   H69   S    
C61   O8    S    
C33   C36   A    
C35   H6    S    
C15   C19   A    
C12   C23   S    
C59   H63   S    
C8    C20   S    
C40   H19   S    
C35   C37   A    
C24   C26   D    
C39   H16   S    
C10   H56   S    
C57   H57   S    
C38   C39   S    
C53   H49   S    
C27   C29   A    
C58   H61   S    
C56   C65   A    
C25   H12   S    
C54   O6    S    
C50   H42   S    
C43   H26   S    
C56   H10   S    
C41   C42   S    
C40   H18   S    
C49   C50   S    
C54   C55   S    
C44   H30   S    
C48   H38   S    
C22   C25   D    
C22   H75   S    
Cu1   N1    S    
C43   H27   S    
C31   C33   A    
C23   C27   A    
C62   H71   S    
C49   H39   S    
Cu2   O13   S    
C42   H24   S    
Cu2   O9    S    
C6    H34   S    
C41   H22   S    
C55   H54   S    
C51   O5    S    
C59   C60   S    
C38   H14   S    
C60   H64   S    
C36   H7    S    
C13   N2    A    
C44   C46   S    
C1    C34   S    
C43   H28   S    
C49   H40   S    
C52   H48   S    
C2    C45   A    
C15   C20   A    
C55   H55   S    
C51   H46   S    
C47   H35   S    
C28   C34   A    
C16   O12   A    
C51   C52   S    
C17   C24   S    
C32   C35   A    
C4    C6    A    
C57   H58   S    
C5    C7    A    
C53   H50   S    
C11   N1    A    
C6    C8    A    
C3    C5    A    
C25   C26   S    
C7    C21   S    
C11   O16   S    
Cu1   Cu2   S    
C2    C31   S    
C64   C66   A    
C1    O10   A    
C62   C63   S    
C58   O7    S    
C44   H29   S    
Cu1   O15   S    
C65   H13   S    
C48   H37   S    
C4    N2    A    
C19   O6    S    
C63   H73   S    
Cu1   O11   S    
C46   C47   S    
C62   H70   S    
C9    C11   A    
C5    H23   S    
C17   O15   A    
C42   H25   S    
C33   H5    S    
C48   C49   S    
C54   H53   S    
C3    N1    A    
C55   C57   S    
Cu1   O1    S    
C12   O11   A    
C64   H11   S    
C1    O1    A    
C42   C43   S    
C39   H17   S    
C12   O9    A    
C18   O5    S    
C60   H66   S    
C39   C40   S    
Cu2   N2    S    
C52   C53   S    
C24   H67   S    
C32   C66   S    
C52   H47   S    
C7    C9    A    
C46   H32   S    
C54   H52   S    
C16   C22   S    
C47   H36   S    
C19   C21   A    
C37   H8    S    
C28   H2    S    
Cu2   O10   S    
C10   C13   A    
C57   H59   S    
C30   H4    S    
C53   H51   S    
C45   C64   A    
C44   O3    S    
C9    H45   S    
C40   H20   S    
C28   C30   A    
C58   C59   S    
C29   C31   A    
C30   C32   A    
C27   H76   S    
C41   O2    S    
C56   C66   A    
C14   O3    S    
C50   H43   S    
C63   H74   S    
Cu1   O12   S    
C18   C20   A    
C50   H41   S    
C61   C62   S    
C17   O13   A    
C14   C21   A    
C38   O16   S    
C8    C10   A    
C23   C36   A    
C26   H1    S    
C45   H9    S    
C13   O2    S    
Cu2   O14   S    
C60   H65   S    
C15   O4    S    
C61   H68   S    
C29   H3    S    
