data_mof_unit_6344.cif
_audit_creation_date              2012-12-11T15:59:38-0500
_audit_creation_method            fapswitch 2.2
_symmetry_space_group_name_H-M    P1
_symmetry_Int_Tables_number       1
_space_group_crystal_system       triclinic
_cell_length_a                    10.786196
_cell_length_b                    10.670556
_cell_length_c                    17.076688
_cell_angle_alpha                 99.58051
_cell_angle_beta                  99.548648
_cell_angle_gamma                 60.733401
_cell_volume                      1682.46269517

loop_
_atom_site_label
_atom_site_type_symbol
_atom_type_description
_atom_site_fract_x
_atom_site_fract_y
_atom_site_fract_z
_atom_type_partial_charge
C1    C     C_R   0.354555 0.778293 0.402056 0.538558
C2    C     C_R   0.831836 0.231967 0.195487 0.013433
C3    C     C_R   0.832371 0.217973 0.275922 0.005557
C4    C     C_R   0.931897 0.382753 0.317280 -0.128019
C5    C     C_R   0.955682 0.375417 0.239273 -0.152414
C6    C     C_R   0.762442 0.171103 0.136226 -0.083861
C7    C     C_R   0.721327 0.076034 0.155158 -0.109971
C8    C     C_R   0.740723 0.046672 0.233489 -0.109017
C9    C     C_R   0.797641 0.114499 0.293403 -0.078276
C10   C     C_R   0.861299 0.313028 0.335417 -0.005121
C11   C     C_R   0.318356 0.859936 0.168729 0.009874
C12   C     C_R   0.369876 0.346106 0.357473 0.563701
C13   C     C_R   0.452844 0.814667 0.212865 0.008258
C14   C     C_R   0.459607 0.825247 0.296762 0.000495
C15   C     C_R   0.205578 0.898055 0.287905 -0.146621
C16   C     C_R   0.195773 0.904576 0.207733 -0.139590
C17   C     C_R   0.580199 0.758269 0.176118 -0.126117
C18   C     C_R   0.709449 0.727425 0.222105 -0.112608
C19   C     C_R   0.712320 0.759328 0.304708 0.128242
C20   C     C_R   0.588370 0.809017 0.341770 -0.035967
C21   C     C_R   0.337689 0.848957 0.332105 -0.002365
C22   C     C_R   0.349183 0.355665 0.838905 -0.051668
C23   C     C_R   0.782079 0.371640 0.405851 0.553055
C24   C     C_R   0.487740 0.279705 0.813919 -0.008678
C25   C     C_R   0.505807 0.274212 0.733229 -0.033104
C26   C     C_R   0.248857 0.453178 0.712155 0.219986
C27   C     C_R   0.236545 0.451574 0.791391 -0.122690
C28   C     C_R   0.605832 0.194791 0.866329 -0.039752
C29   C     C_R   0.726461 0.079289 0.836410 0.189931
C30   C     C_R   0.746301 0.068538 0.757141 -0.080549
C31   C     C_R   0.641981 0.169347 0.707500 -0.135939
C32   C     C_R   0.385420 0.365796 0.681599 -0.013734
C33   C     C_1   0.846256 0.328485 0.705444 -0.000775
C34   C     C_R   0.358059 0.769252 0.627346 0.537278
C35   C     C_1   0.893233 0.293826 0.772040 -0.027423
C36   C     C_1   0.338800 0.810441 0.709347 -0.010262
C37   C     C_1   0.312785 0.838432 0.777391 -0.015839
C38   C     C_R   0.946624 0.287866 0.099683 0.540025
C39   C     C_R   0.318824 0.300294 0.120084 0.542388
C40   C     C_R   0.291681 0.894866 0.086920 0.527813
C41   C     C_R   0.943383 0.273342 0.854350 0.559809
C42   C     C_R   0.312942 0.300058 0.899482 0.537503
C43   C     C_R   0.278657 0.885151 0.857190 0.544867
C44   C     C_R   0.406258 0.375721 0.599875 0.562025
C45   C     C_R   0.777742 0.378127 0.629087 0.565673
C46   C     C_1   0.343325 0.336108 0.274148 -0.031244
C47   C     C_1   0.331283 0.326872 0.203371 -0.031061
C48   C     C_R   0.901548 0.305544 0.177830 -0.000427
Cr1   Cr    Cr6+3 0.608100 0.610860 0.522250 1.072283
Cr2   Cr    Cr6+3 0.288890 0.599990 0.488420 1.133887
Cr3   Cr    Cr6+3 0.603040 0.289190 0.489390 1.022729
Cr4   Cr    Cr6+3 0.053960 0.052250 0.967380 1.068079
Cr5   Cr    Cr6+3 0.059890 0.373160 0.992710 1.046416
Cr6   Cr    Cr6+3 0.373370 0.061690 0.991710 1.020479
H1    H     H_    0.963811 0.447087 0.363287 0.186009
H2    H     H_    0.805690 0.687224 0.193084 0.151850
H3    H     H_    0.593297 0.839189 0.405393 0.167647
H4    H     H_    0.599486 0.208389 0.930056 0.133186
H5    H     H_    0.132587 0.512317 0.813661 0.200187
H6    H     H_    0.843290 0.982496 0.733813 0.177090
H7    H     H_    0.672324 0.153401 0.648881 0.185559
H8    H     H_    0.736067 0.197613 0.075291 0.152425
H9    H     H_    0.013969 0.427322 0.226555 0.146661
H10   H     H_    0.675858 0.023768 0.108828 0.157202
H11   H     H_    0.707389 0.974880 0.248358 0.159235
H12   H     H_    0.817045 0.081833 0.352709 0.174199
H13   H     H_    0.110683 0.922103 0.314328 0.157443
H14   H     H_    0.581233 0.736394 0.112005 0.142257
H15   H     H_    0.089731 0.944837 0.176326 0.164916
O1    O     O_R   0.749810 0.499790 0.438040 -0.502293
O2    O     O_R   0.298970 0.468800 0.557390 -0.404766
O3    O     O_R   0.489400 0.255930 0.561910 -0.526649
O4    O     O_R   0.723890 0.306050 0.584610 -0.550448
O5    O     O_3   0.500010 0.500010 0.500020 -0.298629
O6    O     O_R   0.171100 0.914680 0.053100 -0.500551
O7    O     O_R   0.941680 0.184840 0.050710 -0.496666
O8    O     O_R   0.922080 0.403420 0.072610 -0.515157
O9    O     O_R   0.196880 0.369150 0.083850 -0.510598
O10   O     O_R   0.411730 0.181020 0.091530 -0.529948
O11   O     O_R   0.365010 0.944360 0.063320 -0.509298
O12   O     O_R   0.477660 0.726260 0.439290 -0.514911
O13   O     O_R   0.159380 0.906670 0.876210 -0.469637
O14   O     O_R   0.930820 0.177420 0.886730 -0.474672
O15   O     O_R   0.910360 0.395420 0.895720 -0.482600
O16   O     O_R   0.186010 0.361730 0.919870 -0.509143
O17   O     O_R   0.400000 0.173010 0.914630 -0.509289
O18   O     O_R   0.354140 0.936940 0.899340 -0.489805
O19   O     O_3   0.162410 0.162370 0.983930 -0.289264
O20   O     O_R   0.260150 0.743000 0.412270 -0.484517
O21   O     O_R   0.297740 0.466550 0.394720 -0.467618
O22   O     O_R   0.488080 0.253500 0.386430 -0.509732
O23   O     O_R   0.722670 0.303800 0.421940 -0.514091
O24   O     O_R   0.751130 0.502220 0.613520 -0.440581
O25   O     O_R   0.478890 0.728510 0.601960 -0.495650
O26   O     O_R   0.261470 0.745430 0.587750 -0.468896
Br1   Br    Br    0.882672 0.745990 0.366593 -0.579587
S1    S     S_3+6 0.082504 0.545269 0.653313 0.034269
O27   O     O_2   0.959002 0.585548 0.699605 -0.274947
O28   O     O_2   0.068867 0.681327 0.629908 -0.259803
O29   O     O_3   0.073324 0.437638 0.570965 -0.506003
H16   H     H_    0.990499 0.501896 0.536211 0.374850
Br2   Br    Br    0.857884 0.931901 0.903064 -0.458491

loop_
_geom_bond_atom_site_label_1
_geom_bond_atom_site_label_2
_ccdc_geom_bond_type
C25   C31   A    
C1    C21   S    
C33   C45   S    
C31   H7    S    
C12   O22   A    
C19   C20   A    
Cr3   O5    S    
Cr4   O6    S    
C45   O24   A    
S1    O27   D    
C7    C8    A    
C38   O7    A    
C26   C32   A    
C26   C27   A    
Cr5   O15   S    
C14   C21   A    
C12   O21   A    
C36   C37   T    
Cr2   O5    S    
C30   C31   A    
Cr2   O26   S    
C1    O12   A    
C15   C16   A    
C41   O14   A    
C5    H9    S    
C44   O2    A    
C45   O4    A    
C18   C19   A    
Cr1   O12   S    
C9    H12   S    
Cr3   O22   S    
Cr2   O21   S    
C8    C9    A    
C30   H6    S    
C22   C42   S    
C40   O11   A    
C42   O17   A    
Cr1   O25   S    
C24   C28   A    
C38   C48   S    
C18   H2    S    
C25   C32   A    
C8    H11   S    
C13   C14   A    
C23   O1    A    
C2    C6    A    
S1    O28   D    
Cr6   O11   S    
C5    C48   A    
C39   O9    A    
C14   C20   A    
Cr4   O19   S    
C34   O26   A    
C12   C46   S    
Cr6   O17   S    
C2    C48   A    
C41   O15   A    
C39   O10   A    
C37   C43   S    
Cr4   O14   S    
Cr5   O8    S    
Cr2   O2    S    
C29   C30   A    
C3    C9    A    
Cr3   O23   S    
Cr3   O4    S    
C11   C16   A    
Cr2   O20   S    
C15   H13   S    
C17   C18   A    
C32   C44   S    
C42   O16   A    
C24   C25   A    
Cr4   O13   S    
Cr1   O1    S    
C4    H1    S    
C22   C24   A    
Cr3   O3    S    
C4    C10   A    
S1    O29   S    
C39   C47   S    
Cr6   O10   S    
C46   C47   T    
C28   C29   A    
C17   H14   S    
C1    O20   A    
Cr1   O5    S    
C16   H15   S    
C34   O25   A    
C4    C5    A    
Cr4   O7    S    
C6    C7    A    
C38   O8    A    
C28   H4    S    
C10   C23   S    
C40   O6    A    
C13   C17   A    
C22   C27   A    
C43   O18   A    
C6    H8    S    
C2    C3    A    
C3    C10   A    
C27   H5    S    
Cr6   O19   S    
C11   C13   A    
Cr6   O18   S    
O29   H16   S    
C33   C35   T    
C29   Br2   S    
C44   O3    A    
Cr5   O19   S    
C34   C36   S    
C11   C40   S    
C35   C41   S    
C7    H10   S    
C26   S1    S    
Cr5   O9    S    
C15   C21   A    
C43   O13   A    
C23   O23   A    
Cr5   O16   S    
Cr1   O24   S    
C20   H3    S    
C19   Br1   S    
