data_mof_unit_13637.cif
_audit_creation_date              2012-12-10T17:08:45-0500
_audit_creation_method            fapswitch 2.2
_symmetry_space_group_name_H-M    P1
_symmetry_Int_Tables_number       1
_space_group_crystal_system       triclinic
_cell_length_a                    27.736131
_cell_length_b                    11.105356
_cell_length_c                    9.908168
_cell_angle_alpha                 111.625384
_cell_angle_beta                  97.688412
_cell_angle_gamma                 91.516743
_cell_volume                      2802.06485698

loop_
_atom_site_label
_atom_site_type_symbol
_atom_type_description
_atom_site_fract_x
_atom_site_fract_y
_atom_site_fract_z
_atom_type_partial_charge
C1    C     C_R   0.497267 0.254820 0.440743 0.814053
C2    C     C_R   0.502561 0.745170 0.559283 0.809851
C3    C     C_R   0.100886 0.485795 0.493666 -0.141098
C4    C     C_R   0.896957 0.483886 0.477729 -0.138488
C5    C     C_R   0.127150 0.397423 0.539534 -0.017052
C6    C     C_R   0.868608 0.536850 0.387883 -0.009815
C7    C     C_R   0.101964 0.301820 0.569892 -0.213835
C8    C     C_R   0.890960 0.584606 0.297197 -0.208795
C9    C     C_R   0.125967 0.578195 0.456155 -0.257661
C10   C     C_R   0.874413 0.434165 0.567909 -0.244378
C11   C     C_R   0.355036 0.497664 0.505577 -0.269697
C12   C     C_R   0.644931 0.497479 0.492456 -0.268589
C13   C     C_R   0.975376 0.413210 0.553547 -0.155200
C14   C     C_R   0.022908 0.564601 0.429068 -0.166091
C15   C     C_R   0.971132 0.546005 0.401656 0.123669
C16   C     C_R   0.025015 0.396065 0.535078 0.120223
C17   C     C_R   0.947879 0.480766 0.477371 -0.052313
C18   C     C_R   0.049528 0.482018 0.485787 -0.051827
C19   C     C_R   0.952782 0.371030 0.650046 0.522245
C20   C     C_R   0.049062 0.665650 0.408029 0.544487
C21   C     C_R   0.903070 0.380679 0.656358 0.561453
C22   C     C_R   0.099690 0.670502 0.418045 0.587660
C23   C     C_R   0.407793 0.500545 0.501854 0.829226
C24   C     C_R   0.592205 0.498041 0.497742 0.828982
C25   C     C_R   0.051144 0.296417 0.561823 0.282590
C26   C     C_R   0.941577 0.587439 0.300473 0.279182
C27   C     C_2   0.490268 0.117072 0.410367 -0.388706
C28   C     C_2   0.509579 0.882922 0.589718 -0.388910
C29   C     C_2   0.509495 0.065549 0.507454 0.248553
C30   C     C_2   0.490255 0.934558 0.492865 0.250259
C31   C     C_2   0.506403 0.503310 0.078541 0.341671
C32   C     C_2   0.493501 0.497047 0.921571 0.343609
C33   C     C_R   0.178108 0.403301 0.548252 0.645494
C34   C     C_R   0.818071 0.537479 0.387808 0.622510
C35   C     C_R   0.176859 0.576998 0.460912 0.687496
C36   C     C_R   0.823905 0.442458 0.569105 0.697415
C37   C     C_R   0.284061 0.600500 0.601753 0.625557
C38   C     C_R   0.714291 0.392228 0.387296 0.620503
C39   C     C_R   0.334259 0.607840 0.597159 0.059596
C40   C     C_R   0.664305 0.387425 0.395235 0.063109
C41   C     C_R   0.324859 0.383164 0.417583 0.127129
C42   C     C_R   0.676557 0.608134 0.584411 0.129867
C43   C     C_R   0.273987 0.381844 0.414839 0.199693
C44   C     C_R   0.727201 0.606546 0.582660 0.187348
C45   C     C_R   0.253776 0.490466 0.508431 0.078995
C46   C     C_R   0.745606 0.499099 0.481819 0.099791
Cu1   Cu    Cu3+1 0.508480 0.521810 0.644910 1.021367
Cu2   Cu    Cu3+1 0.491520 0.478190 0.355090 1.019825
H1    H     H_    0.536622 0.937003 0.683740 0.171340
H2    H     H_    0.463372 0.062821 0.316022 0.171209
H3    H     H_    0.121504 0.227183 0.594165 0.198968
H4    H     H_    0.869035 0.618173 0.221056 0.192978
N1    N     N_R   0.201798 0.490601 0.506744 -0.431925
N2    N     N_R   0.797141 0.494152 0.480528 -0.424396
N3    N     N_2   0.478780 0.445430 0.137360 0.064493
N4    N     N_2   0.521220 0.554570 0.862640 0.064208
O1    O     O_R   0.504520 0.332330 0.577400 -0.572703
O2    O     O_R   0.495480 0.667670 0.422600 -0.572119
O3    O     O_R   0.490210 0.295500 0.332650 -0.540244
O4    O     O_R   0.509790 0.704500 0.667350 -0.537044
O5    O     O_R   0.437420 0.518430 0.622370 -0.575484
O6    O     O_R   0.562580 0.481570 0.377630 -0.577357
O7    O     O_R   0.423110 0.481600 0.377610 -0.554429
O8    O     O_R   0.576890 0.518400 0.622390 -0.552321
O9    O     O_2   0.203840 0.322489 0.597882 -0.520752
O10   O     O_2   0.790003 0.581307 0.296267 -0.534608
O11   O     O_2   0.801472 0.398791 0.656968 -0.448933
O12   O     O_2   0.201284 0.659868 0.417893 -0.440007
N5    N     N_2   0.345000 0.267941 0.332181 -0.417205
H5    H     H_    0.369729 0.280714 0.268859 0.301974
C47   C     C_3   0.361328 0.187103 0.412374 -0.658294
H6    H     H_    0.392773 0.237885 0.499201 0.221752
H7    H     H_    0.372841 0.095172 0.335653 0.236977
H8    H     H_    0.331255 0.162546 0.463858 0.247268
N6    N     N_2   0.658093 0.723299 0.676461 -0.410905
H9    H     H_    0.636428 0.709497 0.747074 0.301381
C48   C     C_3   0.637430 0.803744 0.600701 -0.636965
H10   H     H_    0.663485 0.824434 0.534653 0.233230
H11   H     H_    0.629080 0.897405 0.682304 0.234485
H12   H     H_    0.603270 0.754596 0.526102 0.214896
N7    N     N_2   0.449829 0.424969 0.832936 -0.400026
H13   H     H_    0.448050 0.326554 0.809993 0.279430
C49   C     C_3   0.405146 0.485817 0.869509 -0.560789
H14   H     H_    0.374062 0.430600 0.783786 0.225198
H15   H     H_    0.407850 0.587380 0.874475 0.219901
H16   H     H_    0.397361 0.488034 0.977147 0.250244
N8    N     N_2   0.550030 0.575612 0.167259 -0.401204
H17   H     H_    0.551720 0.674029 0.190226 0.279700
C50   C     C_3   0.594779 0.515124 0.130748 -0.553007
H18   H     H_    0.625760 0.569915 0.217145 0.225765
H19   H     H_    0.602763 0.513960 0.023702 0.251588
H20   H     H_    0.592034 0.413211 0.124534 0.219220
F1    F     F_    0.552600 0.655216 0.949084 -0.606314
F2    F     F_    0.447143 0.345374 0.050965 -0.605690
N9    N     N_2   0.242693 0.271714 0.317269 -0.385335
H21   H     H_    0.256712 0.183314 0.301329 0.299874
C51   C     C_3   0.222056 0.282473 0.180609 -0.588702
H22   H     H_    0.196272 0.196196 0.114878 0.238782
H23   H     H_    0.251447 0.287123 0.116209 0.239209
H24   H     H_    0.201610 0.370575 0.201775 0.231003
N10   N     N_2   0.760220 0.707102 0.690509 -0.403970
H25   H     H_    0.750271 0.739664 0.793892 0.289075
C52   C     C_3   0.774572 0.812948 0.648629 -0.573267
H26   H     H_    0.805930 0.873192 0.729323 0.236988
H27   H     H_    0.744108 0.875547 0.648565 0.234937
H28   H     H_    0.785982 0.776345 0.538629 0.248419
N11   N     N_2   0.634577 0.270338 0.307441 -0.396109
H29   H     H_    0.597861 0.278704 0.284388 0.259202
C53   C     C_3   0.644021 0.160542 0.349852 -0.573960
H30   H     H_    0.617300 0.076938 0.281812 0.214813
H31   H     H_    0.640624 0.186089 0.467294 0.194014
H32   H     H_    0.681152 0.129820 0.332405 0.288441
N12   N     N_2   0.362911 0.727095 0.683444 -0.398895
H33   H     H_    0.399736 0.721127 0.708533 0.256339
C54   C     C_3   0.352635 0.834373 0.637120 -0.555937
H34   H     H_    0.356097 0.806654 0.519400 0.194099
H35   H     H_    0.378836 0.919636 0.703596 0.210514
H36   H     H_    0.315260 0.863626 0.653269 0.296546
F3    F     F_    0.733113 0.290864 0.289202 -0.629662
F4    F     F_    0.264240 0.701367 0.697450 -0.620369
F5    F     F_    0.883427 0.338102 0.750786 -0.592270
F6    F     F_    0.122765 0.768676 0.394362 -0.569016
F7    F     F_    0.979234 0.332475 0.750109 -0.640382
F8    F     F_    0.026637 0.768035 0.392664 -0.628955
N13   N     N_2   0.026645 0.183068 0.564713 -0.365160
H37   H     H_    0.047528 0.135030 0.619845 0.286295
C55   C     C_3   0.001240 0.095438 0.423679 -0.532825
H38   H     H_    0.981495 0.013648 0.437862 0.267126
H39   H     H_    0.027723 0.055511 0.346723 0.239343
H40   H     H_    0.974061 0.146136 0.375864 0.203938
N14   N     N_2   0.961358 0.619788 0.191436 -0.395348
H41   H     H_    0.940818 0.678910 0.151332 0.264129
C56   C     C_3   0.976222 0.510444 0.075412 -0.504514
H42   H     H_    0.992710 0.545643 0.999195 0.251093
H43   H     H_    0.944077 0.441164 0.013194 0.278245
H44   H     H_    0.003929 0.459450 0.120881 0.214960
N15   N     N_2   0.448891 0.868633 0.383752 -0.439816
H45   H     H_    0.424952 0.812814 0.412185 0.254407
C57   C     C_3   0.456671 0.812508 0.231832 -0.629975
H46   H     H_    0.450300 0.705271 0.190400 0.226451
H47   H     H_    0.494184 0.838970 0.218515 0.231935
H48   H     H_    0.429984 0.847555 0.163637 0.226929
N16   N     N_2   0.550756 0.131627 0.616951 -0.439125
H49   H     H_    0.574769 0.187565 0.588906 0.254685
C58   C     C_3   0.542831 0.187412 0.768757 -0.627481
H50   H     H_    0.549190 0.294657 0.810477 0.225877
H51   H     H_    0.569458 0.152257 0.836997 0.227391
H52   H     H_    0.505284 0.160799 0.781665 0.231577

loop_
_geom_bond_atom_site_label_1
_geom_bond_atom_site_label_2
_ccdc_geom_bond_type
Cu2   N3    S    
N8    H17   S    
N10   H25   S    
C35   N1    A    
N11   C53   S    
C14   C18   A    
N9    H21   S    
C34   O10   S    
N7    H13   S    
C36   O11   S    
C33   O9    S    
N14   C56   S    
C48   H10   S    
C32   N7    S    
N15   C57   S    
C19   F7    S    
C42   N6    S    
C41   N5    S    
C19   C21   A    
C53   H31   S    
C58   H50   S    
C57   H48   S    
C2    O4    A    
C9    C22   A    
C27   C29   D    
N16   H49   S    
C29   N16   S    
C51   H22   S    
C8    C26   A    
C3    C18   A    
N16   C58   S    
C11   C23   S    
N5    C47   S    
C25   N13   S    
C12   C42   A    
C58   H51   S    
Cu1   O4    S    
C49   H14   S    
C54   H35   S    
C5    C33   A    
C56   H44   S    
C43   N9    S    
N11   H29   S    
C50   H19   S    
C8    H4    S    
C27   H2    S    
C1    C27   S    
C23   O7    A    
C45   N1    S    
C24   O8    A    
C30   N15   S    
C41   C43   A    
C42   C44   A    
N3    F2    S    
N7    C49   S    
C44   C46   A    
C22   F6    S    
C48   H11   S    
C10   C21   A    
C33   N1    A    
N4    F1    S    
C31   N8    S    
C13   C19   A    
C9    C35   A    
C14   C20   A    
C4    C6    A    
C51   H23   S    
C53   H32   S    
Cu1   O8    S    
C5    C7    A    
C15   C26   A    
C6    C8    A    
C39   N12   S    
C6    C34   A    
C12   C40   A    
N6    H9    S    
C55   H39   S    
C29   C30   S    
C3    C9    A    
C1    O1    A    
Cu1   O1    S    
C43   C45   A    
C28   H1    S    
Cu2   O6    S    
Cu1   Cu2   S    
C44   N10   S    
C54   H36   S    
C46   N2    S    
N9    C51   S    
C52   H27   S    
C50   H20   S    
C11   C39   A    
N6    C48   S    
C40   N11   S    
C4    C17   A    
C16   C18   A    
C49   H15   S    
C20   C22   A    
C34   N2    A    
N8    C50   S    
C56   H42   S    
C38   F3    S    
C4    C10   A    
N14   H41   S    
C3    C5    A    
C58   H52   S    
Cu2   O3    S    
C56   H43   S    
N12   H33   S    
C48   H12   S    
C16   C25   A    
C15   C17   A    
C24   O6    A    
C51   H24   S    
C31   C32   S    
Cu2   O7    S    
Cu1   O5    S    
C47   H8    S    
C10   C36   A    
C57   H46   S    
C2    O2    A    
Cu2   O2    S    
C55   H38   S    
N15   H45   S    
C12   C24   S    
C7    C25   A    
C13   C17   A    
C1    O3    A    
C55   H40   S    
C7    H3    S    
C47   H6    S    
C37   C39   A    
C53   H30   S    
C38   C46   A    
C38   C40   A    
C57   H47   S    
N13   H37   S    
C37   F4    S    
C35   O12   S    
C28   C30   D    
C11   C41   A    
C52   H28   S    
C21   F5    S    
N5    H5    S    
C20   F8    S    
C36   N2    A    
C23   O5    A    
C49   H16   S    
N10   C52   S    
C13   C16   A    
C47   H7    S    
C52   H26   S    
N13   C55   S    
C14   C15   A    
C2    C28   S    
C31   N3    D    
C50   H18   S    
C37   C45   A    
C32   N4    D    
C26   N14   S    
C54   H34   S    
Cu1   N4    S    
N12   C54   S    
