data_mof_unit_40740.cif
_audit_creation_date              2012-12-10T18:57:04-0500
_audit_creation_method            fapswitch 2.2
_symmetry_space_group_name_H-M    P1
_symmetry_Int_Tables_number       1
_space_group_crystal_system       triclinic
_cell_length_a                    10.715732
_cell_length_b                    9.898859
_cell_length_c                    10.684107
_cell_angle_alpha                 90.167938
_cell_angle_beta                  92.117048
_cell_angle_gamma                 90.102035
_cell_volume                      1132.52041211

loop_
_atom_site_label
_atom_site_type_symbol
_atom_type_description
_atom_site_fract_x
_atom_site_fract_y
_atom_site_fract_z
_atom_type_partial_charge
C1    C     C_R   0.260079 0.499946 0.500821 0.875299
C2    C     C_R   0.739897 0.500082 0.499212 0.876566
C3    C     C_R   0.584819 0.070558 0.573390 0.191025
C4    C     C_R   0.414711 0.069711 0.427193 0.191619
C5    C     C_R   0.584317 0.927608 0.572725 -0.143298
C6    C     C_R   0.415469 0.926799 0.427566 -0.144321
C7    C     C_R   0.502433 0.499491 0.259817 0.899734
C8    C     C_R   0.492639 0.499935 0.739307 0.911882
C9    C     C_R   0.464259 0.616843 0.063931 0.121658
C10   C     C_R   0.463323 0.618209 0.936220 0.106329
C11   C     C_R   0.491420 0.496807 0.126407 -0.185209
C12   C     C_R   0.471606 0.498125 0.870025 -0.193777
C13   C     C_R   0.497269 0.372850 0.059974 -0.036425
C14   C     C_R   0.461586 0.374143 0.933212 -0.047178
C15   C     C_3   0.538140 0.744810 0.930427 -0.448518
C16   C     C_3   0.536126 0.746442 0.071644 -0.472185
C17   C     C_R   0.063528 0.377257 0.501417 -0.187527
C18   C     C_R   0.935883 0.377293 0.497666 -0.187866
C19   C     C_R   0.872421 0.500369 0.498480 -0.013238
C20   C     C_R   0.127521 0.500218 0.501596 -0.011315
C21   C     C_R   0.936285 0.623612 0.500072 -0.199805
C22   C     C_R   0.064135 0.623542 0.501093 -0.195780
H1    H     H_    0.632860 0.728253 0.894070 0.207158
H2    H     H_    0.477621 0.829058 0.108411 0.202947
H3    H     H_    0.485093 0.829236 0.887331 0.199982
H4    H     H_    0.630258 0.735177 0.117896 0.200700
H5    H     H_    0.111378 0.281151 0.504082 0.188051
H6    H     H_    0.887602 0.281162 0.494589 0.186182
H7    H     H_    0.888024 0.719713 0.500460 0.161650
H8    H     H_    0.112764 0.719633 0.501605 0.161651
H9    H     H_    0.651201 0.872738 0.631300 0.159208
H10   H     H_    0.348172 0.871289 0.369490 0.161203
N1    N     N_R   0.500000 0.857200 0.500000 -0.104344
N2    N     N_R   0.500000 0.142810 0.500000 -0.096411
O1    O     O_R   0.316770 0.614620 0.499990 -0.635306
O2    O     O_R   0.683230 0.614620 0.500010 -0.635555
O3    O     O_R   0.316800 0.385290 0.500000 -0.595292
O4    O     O_R   0.683200 0.385290 0.500000 -0.595619
O5    O     O_R   0.500000 0.614690 0.316780 -0.621674
O6    O     O_R   0.500000 0.614690 0.683220 -0.624147
O7    O     O_R   0.500020 0.385360 0.316780 -0.581472
O8    O     O_R   0.499980 0.385360 0.683220 -0.583147
Zn1   Zn    Zn3+2 0.500000 0.653120 0.500000 0.936203
Zn2   Zn    Zn3+2 0.500000 0.346880 0.500000 1.011905
C23   C     C_R   0.590075 0.270318 0.104298 0.168091
C24   C     C_R   0.554782 0.138949 0.136787 -0.119961
C25   C     C_R   0.641081 0.053365 0.198099 -0.138383
C26   C     C_R   0.764190 0.095384 0.221363 -0.094381
C27   C     C_R   0.801646 0.223621 0.184076 -0.117615
C28   C     C_R   0.715113 0.310917 0.126382 -0.145748
H11   H     H_    0.460141 0.104510 0.118662 0.148670
H12   H     H_    0.612482 0.955484 0.230737 0.136289
H13   H     H_    0.830304 0.028820 0.268956 0.132021
H14   H     H_    0.897001 0.256527 0.202332 0.150532
H15   H     H_    0.744673 0.411841 0.101805 0.119897
C29   C     C_R   0.376648 0.268246 0.879661 0.171628
C30   C     C_R   0.419344 0.139026 0.848338 -0.125519
C31   C     C_R   0.340025 0.049168 0.781996 -0.145907
C32   C     C_R   0.216876 0.085321 0.751130 -0.092506
C33   C     C_R   0.172448 0.211862 0.785677 -0.125571
C34   C     C_R   0.252027 0.303305 0.848609 -0.144613
H16   H     H_    0.514469 0.109586 0.871190 0.153428
H17   H     H_    0.373990 0.952334 0.751618 0.136004
H18   H     H_    0.156153 0.015537 0.699749 0.132925
H19   H     H_    0.077015 0.240103 0.761679 0.155761
H20   H     H_    0.217096 0.402670 0.871440 0.124390
I1    I     I_    0.720250 0.161930 0.695869 -0.444833
I2    I     I_    0.275709 0.159409 0.308682 -0.446141

loop_
_geom_bond_atom_site_label_1
_geom_bond_atom_site_label_2
_ccdc_geom_bond_type
C5    H9    S    
C6    H10   S    
O4    Zn2   S    
C25   H12   S    
C29   C34   A    
C13   C14   A    
O1    Zn1   S    
C9    C10   A    
C2    O4    A    
C14   C29   S    
C28   H15   S    
C6    N1    A    
C1    O3    A    
C8    C12   S    
O3    Zn2   S    
C15   H1    S    
C17   C18   A    
C32   H18   S    
N2    Zn2   S    
C32   C33   A    
C16   H2    S    
C23   C24   A    
C13   C23   S    
C11   C13   A    
C30   C31   A    
C8    O6    A    
O8    Zn2   S    
C23   C28   A    
C24   H11   S    
C10   C12   A    
C7    O7    A    
C26   C27   A    
C19   C21   A    
C9    C16   S    
C8    O8    A    
C33   H19   S    
C7    C11   S    
C10   C15   S    
C9    C11   A    
C16   H4    S    
C26   H13   S    
O7    Zn2   S    
C4    N2    A    
C15   H3    S    
C15   C16   S    
C27   H14   S    
C17   H5    S    
C12   C14   A    
C30   H16   S    
C17   C20   A    
C18   H6    S    
C29   C30   A    
C1    O1    A    
C4    C6    A    
C27   C28   A    
C2    O2    A    
C31   H17   S    
C4    I2    S    
C7    O5    A    
C24   C25   A    
C18   C19   A    
C1    C20   S    
O5    Zn1   S    
C22   H8    S    
C3    N2    A    
C3    C5    A    
C31   C32   A    
C21   C22   A    
N1    Zn1   S    
C21   H7    S    
C34   H20   S    
O6    Zn1   S    
C3    I1    S    
C25   C26   A    
C2    C19   S    
C20   C22   A    
C33   C34   A    
O2    Zn1   S    
C5    N1    A    
