data_mof_unit_51074.cif
_audit_creation_date              2012-12-11T16:22:08-0500
_audit_creation_method            fapswitch 2.2
_symmetry_space_group_name_H-M    P1
_symmetry_Int_Tables_number       1
_space_group_crystal_system       triclinic
_cell_length_a                    13.474484
_cell_length_b                    14.047104
_cell_length_c                    29.990697
_cell_angle_alpha                 97.803528
_cell_angle_beta                  90.267214
_cell_angle_gamma                 118.237389
_cell_volume                      4939.24892602

loop_
_atom_site_label
_atom_site_type_symbol
_atom_type_description
_atom_site_fract_x
_atom_site_fract_y
_atom_site_fract_z
_atom_type_partial_charge
C1    C     C_R   0.720863 0.098690 0.569176 0.536116
C2    C     C_1   0.368295 0.682252 0.766963 -0.029435
C3    C     C_3   0.995146 0.440559 0.286541 -0.369779
C4    C     C_3   0.422710 0.946879 0.239757 -0.000480
C5    C     C_3   0.484791 0.068582 0.257710 -0.376500
C6    C     C_3   0.651703 0.878949 0.234323 0.011294
C7    C     C_3   0.757245 0.881974 0.214896 -0.385952
C8    C     C_3   0.584460 0.599303 0.242753 -0.003695
C9    C     C_3   0.702709 0.619922 0.256699 -0.399108
C10   C     C_3   0.043881 0.952206 0.142504 -0.010039
C11   C     C_3   0.966235 0.846736 0.159638 -0.378920
C12   C     C_3   0.121861 0.736320 0.677468 -0.011787
C13   C     C_1   0.369653 0.687789 0.727476 0.041893
C14   C     C_3   0.055971 0.745575 0.717376 -0.375648
C15   C     C_3   0.517573 0.406210 0.335373 -0.019657
C16   C     C_3   0.561251 0.515513 0.366341 -0.354062
C17   C     C_3   0.797063 0.427859 0.348796 -0.287151
C18   C     C_3   0.865604 0.368045 0.447718 -0.009052
C19   C     C_3   0.854921 0.456797 0.479075 -0.361901
C20   C     C_3   0.856769 0.919094 0.353752 -0.305142
C21   C     C_3   0.821162 0.947471 0.071714 -0.292413
C22   C     C_3   0.630348 0.787829 0.691251 -0.009271
C23   C     C_3   0.712194 0.767643 0.718529 -0.375667
C24   C     C_R   0.384177 0.788853 0.551139 0.547816
C25   C     C_R   0.301541 0.602356 0.897714 0.027372
C26   C     C_3   0.238416 0.153234 0.725159 -0.133895
C27   C     C_3   0.229786 0.066662 0.754466 -0.150205
C28   C     C_1   0.299042 0.195859 0.877425 -0.000656
C29   C     C_1   0.367992 0.132737 0.614577 -0.000913
C30   C     C_3   0.327358 0.244234 0.760620 0.304694
C31   C     C_3   0.318642 0.158890 0.789693 0.028987
C32   C     C_R   0.364285 0.694269 0.680428 0.052514
C33   C     C_3   0.423619 0.234424 0.737581 0.294404
C34   C     C_3   0.336052 0.144052 0.701895 0.023843
C35   C     C_3   0.415849 0.148531 0.766377 -0.141161
C36   C     C_R   0.398002 0.118181 0.569708 0.541725
C37   C     C_3   0.327078 0.056684 0.730183 -0.152803
C38   C     C_1   0.308682 0.174375 0.838134 -0.024829
C39   C     C_1   0.350194 0.138984 0.653710 -0.027430
C40   C     C_3   0.906976 0.268397 0.733982 -0.107308
C41   C     C_3   0.817393 0.262320 0.767382 -0.104075
C42   C     C_1   0.893254 0.204586 0.878972 -0.026121
C43   C     C_R   0.271539 0.699013 0.661374 0.230870
C44   C     C_1   0.768398 0.131147 0.614799 -0.016365
C45   C     C_3   0.931371 0.191336 0.759005 -0.106892
C46   C     C_3   0.841365 0.184895 0.791561 0.052309
C47   C     C_3   0.839205 0.090442 0.727852 -0.107591
C48   C     C_R   0.720594 0.095901 0.442583 0.543832
C49   C     C_3   0.815069 0.167508 0.703556 0.054141
C50   C     C_3   0.749550 0.084126 0.761083 -0.105612
C51   C     C_3   0.724921 0.161144 0.736074 -0.096660
C52   C     C_1   0.863530 0.194296 0.840012 -0.070813
C53   C     C_1   0.795067 0.151454 0.654612 -0.059159
C54   C     C_R   0.273286 0.717973 0.616304 -0.147478
C55   C     C_3   0.278450 0.608009 0.262567 0.219992
C56   C     C_3   0.282083 0.689380 0.232286 0.233183
C57   C     C_1   0.309140 0.604013 0.111575 0.004477
C58   C     C_1   0.377114 0.743329 0.377862 0.015723
C59   C     C_3   0.348076 0.570400 0.231320 -0.174307
C60   C     C_R   0.383738 0.785480 0.424295 0.542975
C61   C     C_3   0.353113 0.653780 0.200528 -0.035374
C62   C     C_3   0.457023 0.663061 0.258448 0.227657
C63   C     C_3   0.386401 0.699671 0.289538 0.037019
C64   C     C_3   0.463569 0.744355 0.227207 0.243085
C65   C     C_R   0.256475 0.660796 0.831245 -0.101543
C66   C     C_3   0.392011 0.780456 0.257918 0.212392
C67   C     C_1   0.331895 0.630471 0.151574 0.010895
C68   C     C_1   0.383291 0.720696 0.338317 0.052170
C69   C     C_R   0.348859 0.130985 0.401955 -0.019344
C70   C     C_R   0.390028 0.235289 0.389797 -0.109674
C71   C     C_R   0.360123 0.246851 0.346494 0.283981
C72   C     C_R   0.395349 0.114055 0.443013 0.547799
C73   C     C_R   0.287148 0.153086 0.316077 0.040407
C74   C     C_R   0.238372 0.050369 0.329638 -0.172597
C75   C     C_R   0.268618 0.039260 0.372263 -0.139830
C76   C     C_R   0.227095 0.624481 0.872769 0.257752
C77   C     C_R   0.227649 0.090646 0.148089 0.277330
C78   C     C_R   0.237337 0.110008 0.102973 -0.115006
C79   C     C_R   0.384257 0.296248 0.127331 -0.147923
C80   C     C_R   0.377859 0.276731 0.171754 -0.174314
C81   C     C_R   0.297330 0.176187 0.182438 0.044305
C82   C     C_1   0.285276 0.164506 0.229188 0.014714
C83   C     C_1   0.281193 0.158816 0.268817 0.009710
C84   C     C_R   0.368023 0.737111 0.591965 -0.064840
C85   C     C_R   0.310418 0.214427 0.092820 -0.016627
C86   C     C_R   0.777851 0.136296 0.401330 -0.021593
C87   C     C_R   0.404560 0.619104 0.880309 -0.157814
C88   C     C_R   0.810080 0.072108 0.370555 0.100645
C89   C     C_R   0.821681 0.091858 0.325578 -0.129818
C90   C     C_R   0.797410 0.169437 0.310877 -0.043959
C91   C     C_R   0.776427 0.240781 0.342250 0.166966
C92   C     C_R   0.778197 0.230461 0.388267 0.268446
C93   C     C_R   0.878591 0.298353 0.165546 -0.135822
C94   C     C_R   0.917082 0.309685 0.122744 -0.165026
C95   C     C_R   0.812985 0.112357 0.100188 0.127429
C96   C     C_R   0.455613 0.723898 0.610698 -0.125798
C97   C     C_R   0.773693 0.102240 0.143540 -0.110936
C98   C     C_R   0.430429 0.651221 0.838016 -0.125926
C99   C     C_R   0.812922 0.194489 0.176931 0.011213
C100  C     C_1   0.800493 0.182898 0.223701 -0.050117
C101  C     C_1   0.797869 0.176273 0.263348 -0.063839
C102  C     C_R   0.890174 0.216979 0.090444 0.046844
C103  C     C_R   0.284328 0.232597 0.922314 0.548275
C104  C     C_R   0.265718 0.547051 0.937815 0.557083
C105  C     C_R   0.944757 0.222308 0.923110 0.546916
C106  C     C_R   0.292342 0.244347 0.049481 0.541497
C107  C     C_R   0.274948 0.557860 0.065263 0.541233
C108  C     C_R   0.454362 0.703005 0.654942 0.222876
C109  C     C_R   0.354861 0.669341 0.813212 -0.017724
C110  C     C_R   0.952088 0.232573 0.049349 0.561842
C111  C     C_3   0.035968 0.515410 0.863657 0.006763
C112  C     C_3   0.926201 0.491391 0.885166 -0.348235
C113  C     C_3   0.594241 0.384726 0.764376 -0.008931
C114  C     C_3   0.700081 0.478619 0.750737 -0.380609
C115  C     C_3   0.333360 0.404084 0.744595 0.004873
C116  C     C_3   0.220305 0.401642 0.737091 -0.384851
C117  C     C_3   0.139939 0.731197 0.253353 0.012622
C118  C     C_3   0.013445 0.682821 0.242249 -0.393558
C119  C     C_3   0.095742 0.465820 0.258875 -0.009485
Cr1   Cr    Cr6+3 0.583430 0.162610 0.509470 1.047444
Cr2   Cr    Cr6+3 0.584210 0.916680 0.495400 1.026530
Cr3   Cr    Cr6+3 0.332380 0.920740 0.495100 1.011073
Cr4   Cr    Cr6+3 0.086810 0.177030 0.983130 1.024152
Cr5   Cr    Cr6+3 0.337180 0.419300 0.994610 1.017697
Cr6   Cr    Cr6+3 0.084840 0.422330 0.995830 1.028041
H1    H     H_    0.166099 0.153644 0.707537 0.098174
H2    H     H_    0.015816 0.202603 0.769544 0.119816
H3    H     H_    0.675351 0.834214 0.663930 0.133950
H4    H     H_    0.745187 0.720990 0.696233 0.155387
H5    H     H_    0.784206 0.846593 0.734314 0.090329
H6    H     H_    0.668308 0.720178 0.745648 0.150874
H7    H     H_    0.327998 0.484339 0.219584 0.115431
H8    H     H_    0.185255 0.045564 0.075804 0.113521
H9    H     H_    0.182487 0.977889 0.306210 0.109903
H10   H     H_    0.234388 0.957580 0.380731 0.147026
H11   H     H_    0.448069 0.306872 0.413131 0.129650
H12   H     H_    0.432700 0.341670 0.198170 0.102999
H13   H     H_    0.441622 0.377619 0.120579 0.139612
H14   H     H_    0.974078 0.391192 0.115991 0.143678
H15   H     H_    0.905058 0.370956 0.190150 0.102774
H16   H     H_    0.327480 0.979284 0.716802 0.121912
H17   H     H_    0.203776 0.723003 0.600701 0.125693
H18   H     H_    0.716128 0.022314 0.151472 0.126857
H19   H     H_    0.846161 0.044802 0.301154 0.120010
H20   H     H_    0.527749 0.734784 0.591910 0.147093
H21   H     H_    0.506721 0.657283 0.823896 0.115441
H22   H     H_    0.462565 0.601751 0.898279 0.137749
H23   H     H_    0.150295 0.997204 0.762370 0.115084
H24   H     H_    0.049713 0.443046 0.863459 0.142649
H25   H     H_    0.026379 0.527173 0.828237 0.109266
H26   H     H_    0.908089 0.560584 0.884572 0.146539
H27   H     H_    0.486849 0.145263 0.783749 0.095691
H28   H     H_    0.855341 0.415887 0.866231 0.084118
H29   H     H_    0.932863 0.479419 0.920689 0.181136
H30   H     H_    0.620742 0.335328 0.782441 0.116549
H31   H     H_    0.551645 0.419911 0.787630 0.161763
H32   H     H_    0.676907 0.530390 0.732855 0.166166
H33   H     H_    0.756899 0.529622 0.781254 0.084355
H34   H     H_    0.745688 0.446022 0.728092 0.163931
H35   H     H_    0.357789 0.377402 0.711642 0.158444
H36   H     H_    0.399018 0.489984 0.755919 0.165098
H37   H     H_    0.194845 0.429132 0.769425 0.164627
H38   H     H_    0.808422 0.332933 0.784170 0.091697
H39   H     H_    0.226823 0.456251 0.712496 0.131168
H40   H     H_    0.154575 0.317666 0.723097 0.129052
H41   H     H_    0.177707 0.821475 0.259047 0.149757
H42   H     H_    0.152137 0.705792 0.285649 0.157894
H43   H     H_    0.971323 0.592299 0.237956 0.139090
H44   H     H_    0.976100 0.713225 0.269876 0.083476
H45   H     H_    0.997565 0.706547 0.210429 0.163239
H46   H     H_    0.101054 0.389688 0.247775 0.152864
H47   H     H_    0.083849 0.497847 0.228497 0.158779
H48   H     H_    0.001005 0.518307 0.303818 0.151428
H49   H     H_    0.971246 0.343821 0.722259 0.111432
H50   H     H_    0.915161 0.396606 0.265024 0.110221
H51   H     H_    0.995142 0.390934 0.312365 0.173603
H52   H     H_    0.336268 0.924676 0.226561 0.174701
H53   H     H_    0.468246 0.931722 0.211192 0.170283
H54   H     H_    0.572876 0.093140 0.269095 0.165811
H55   H     H_    0.485133 0.115948 0.230875 0.107469
H56   H     H_    0.443813 0.087424 0.286981 0.177092
H57   H     H_    0.646689 0.856122 0.268670 0.175341
H58   H     H_    0.659985 0.961824 0.238248 0.154015
H59   H     H_    0.779005 0.925874 0.185528 0.139256
H60   H     H_    0.639874 0.148959 0.725867 0.123961
H61   H     H_    0.830240 0.923512 0.240500 0.084212
H62   H     H_    0.742795 0.797779 0.203542 0.157763
H63   H     H_    0.586249 0.625457 0.209189 0.153343
H64   H     H_    0.525698 0.510442 0.239544 0.129298
H65   H     H_    0.703075 0.588741 0.288658 0.142301
H66   H     H_    0.731334 0.577623 0.230026 0.093408
H67   H     H_    0.763081 0.708803 0.261860 0.144467
H68   H     H_    0.034074 0.933047 0.105103 0.119299
H69   H     H_    0.016227 0.014171 0.154114 0.129033
H70   H     H_    0.970761 0.860978 0.197109 0.148065
H71   H     H_    0.685006 0.009073 0.772954 0.100530
H72   H     H_    0.878008 0.816445 0.146033 0.084880
H73   H     H_    0.991684 0.783682 0.147756 0.171325
H74   H     H_    0.060538 0.689228 0.647630 0.135054
H75   H     H_    0.180165 0.820679 0.671045 0.122685
H76   H     H_    0.114922 0.791624 0.747909 0.154748
H77   H     H_    0.009224 0.789528 0.709838 0.089782
H78   H     H_    0.994535 0.662767 0.724154 0.154349
H79   H     H_    0.542193 0.421497 0.300802 0.146702
H80   H     H_    0.560207 0.361064 0.346348 0.138474
H81   H     H_    0.537910 0.501918 0.401245 0.141564
H82   H     H_    0.849841 0.021235 0.710592 0.094687
H83   H     H_    0.654675 0.562578 0.366801 0.085777
H84   H     H_    0.524095 0.563939 0.354227 0.216219
H85   H     H_    0.717086 0.302086 0.293593 0.238568
H86   H     H_    0.803497 0.481497 0.323693 0.094593
H87   H     H_    0.883309 0.453756 0.363441 0.150946
H88   H     H_    0.746752 0.439838 0.375958 0.185372
H89   H     H_    0.939852 0.408104 0.427729 0.111568
H90   H     H_    0.881710 0.316838 0.468886 0.126196
H91   H     H_    0.782385 0.419081 0.499957 0.163798
H92   H     H_    0.933420 0.506481 0.501723 0.096812
H93   H     H_    0.198952 0.676315 0.811867 0.127845
H94   H     H_    0.841367 0.511197 0.459056 0.137421
H95   H     H_    0.871894 0.011103 0.416847 0.257990
H96   H     H_    0.862338 0.856698 0.371174 0.138300
H97   H     H_    0.939724 0.968230 0.340421 0.133536
H98   H     H_    0.789464 0.875132 0.325743 0.164072
H99   H     H_    0.685788 0.975056 0.062349 0.250742
H100  H     H_    0.792207 0.881338 0.042133 0.145483
H101  H     H_    0.914743 0.994317 0.073650 0.164228
H102  H     H_    0.793883 0.909671 0.102694 0.119937
H103  H     H_    0.602408 0.838127 0.714382 0.121968
N1    N     N_2   0.741952 0.314326 0.327356 -0.508662
N2    N     N_2   0.829001 0.988797 0.385417 -0.480292
N3    N     N_2   0.772842 0.018210 0.066434 -0.497775
O1    O     O_R   0.493980 0.188910 0.559650 -0.499459
O2    O     O_R   0.170560 0.527890 0.952050 -0.462591
O3    O     O_R   0.987620 0.318470 0.945550 -0.509864
O4    O     O_R   0.678640 0.153520 0.554450 -0.497278
O5    O     O_R   0.976400 0.159270 0.031530 -0.491987
O6    O     O_R   0.194000 0.188570 0.028560 -0.507304
O7    O     O_R   0.365260 0.335720 0.039020 -0.513485
O8    O     O_R   0.330440 0.515580 0.044910 -0.500152
O9    O     O_R   0.177310 0.536200 0.050190 -0.506095
O10   O     O_R   0.993870 0.326170 0.036530 -0.514387
O11   O     O_3   0.169610 0.339550 0.991190 -0.251226
O12   O     O_R   0.480180 0.824400 0.444640 -0.489254
O13   O     O_R   0.698130 0.004030 0.549500 -0.519094
O14   O     O_R   0.481060 0.827210 0.535360 -0.502314
O15   O     O_R   0.309260 0.811560 0.537660 -0.517345
O16   O     O_R   0.341620 0.023400 0.546290 -0.503676
O17   O     O_R   0.493030 0.185890 0.461780 -0.490297
O18   O     O_R   0.677760 0.150720 0.463730 -0.453462
O19   O     O_R   0.697180 0.001010 0.451640 -0.497225
O20   O     O_3   0.125578 0.610565 0.888735 -0.537981
O21   O     O_3   0.522996 0.320979 0.725293 -0.558630
O22   O     O_3   0.328226 0.342617 0.779038 -0.574277
O23   O     O_R   0.308310 0.808540 0.439800 -0.515603
O24   O     O_3   0.188050 0.697993 0.216592 -0.564222
O25   O     O_3   0.191481 0.540854 0.287369 -0.560330
O26   O     O_3   0.418349 0.888930 0.275324 -0.575790
O27   O     O_3   0.557138 0.807977 0.203870 -0.580951
O28   O     O_3   0.550202 0.656037 0.276129 -0.567782
O29   O     O_3   0.156255 0.988243 0.159129 -0.554862
O30   O     O_3   0.180778 0.680363 0.687741 -0.564434
O31   O     O_3   0.398229 0.348948 0.333727 -0.549517
O32   O     O_3   0.764661 0.305082 0.419343 -0.526937
O33   O     O_3   0.538551 0.685970 0.672633 -0.557341
O34   O     O_R   0.340740 0.020600 0.455570 -0.505442
O35   O     O_3   0.500010 0.000010 0.499990 -0.249707
O36   O     O_R   0.969650 0.150960 0.933380 -0.499294
O37   O     O_R   0.187740 0.180870 0.937580 -0.493989
O38   O     O_R   0.358510 0.327410 0.940870 -0.507017
O39   O     O_R   0.324180 0.507870 0.953930 -0.511724

loop_
_geom_bond_atom_site_label_1
_geom_bond_atom_site_label_2
_ccdc_geom_bond_type
Cr2   O13   S    
C88   N2    S    
C55   C56   S    
C2    C109  S    
C4    O26   S    
C55   C59   S    
C105  O3    A    
C110  O5    A    
C34   C37   S    
C117  O24   S    
C73   C74   A    
C7    H61   S    
C24   O15   A    
C18   H90   S    
C110  O10   A    
C42   C105  S    
C4    H52   S    
C66   O26   S    
C57   C107  S    
C119  O25   S    
Cr1   O1    S    
C54   C84   A    
C15   H79   S    
C37   H16   S    
C47   C49   S    
C45   C46   S    
C8    H63   S    
C21   H101  S    
C29   C36   S    
Cr5   O39   S    
C26   C27   S    
C93   C94   A    
C65   C76   A    
C87   H22   S    
C7    H59   S    
C6    H57   S    
C103  O38   A    
C7    H62   S    
C16   H84   S    
C35   C37   S    
C95   N3    S    
C18   C19   S    
C16   H81   S    
C10   H69   S    
Cr1   O4    S    
C84   C96   A    
C65   H93   S    
C33   C35   S    
C86   C88   A    
C22   H103  S    
C118  H45   S    
C111  O20   S    
C80   H12   S    
C21   N3    S    
C14   H76   S    
C46   C52   S    
C25   C87   A    
C55   O25   S    
C23   H4    S    
Cr3   O34   S    
C19   H91   S    
C26   H1    S    
C73   C83   S    
C48   O18   A    
C2    C13   T    
C32   C43   A    
C114  H33   S    
C62   C64   S    
Cr6   O3    S    
C13   C32   S    
C96   H20   S    
C9    H65   S    
C50   H71   S    
Cr4   O37   S    
C20   H98   S    
C5    H54   S    
C111  C112  S    
C22   O33   S    
C8    C9    S    
C49   C51   S    
C77   O29   S    
C55   C63   S    
C41   C46   S    
C56   C66   S    
Cr6   O10   S    
C70   C71   A    
C19   H92   S    
C28   C38   T    
C9    H67   S    
C93   C99   A    
C95   C102  A    
C36   O1    A    
C119  H47   S    
Cr3   O15   S    
C87   C98   A    
C100  C101  T    
C17   H87   S    
C71   O31   S    
Cr2   O14   S    
C96   C108  A    
C63   C66   S    
C98   C109  A    
C112  H29   S    
C70   H11   S    
C94   H14   S    
C24   O14   A    
C18   H89   S    
H99   N3    S    
C113  H30   S    
C17   H88   S    
C111  H24   S    
C5    H56   S    
C97   C99   A    
C64   O27   S    
C69   C75   A    
C81   C82   S    
C47   C50   S    
C45   C47   S    
C91   N1    S    
C40   C45   S    
C21   H102  S    
C59   H7    S    
C59   C61   S    
Cr1   O35   S    
C74   C75   A    
C27   C31   S    
C34   C39   S    
C12   H74   S    
C20   N2    S    
Cr1   O18   S    
C10   H68   S    
C91   C92   A    
C71   C73   A    
Cr5   O8    S    
C17   N1    S    
C11   H70   S    
C48   C86   S    
C98   H21   S    
C118  H44   S    
C17   H86   S    
C74   H9    S    
C77   C78   A    
C107  O8    A    
C106  O6    A    
C45   H2    S    
C23   H5    S    
C64   C66   S    
C115  H36   S    
C61   C64   S    
C11   H72   S    
C90   C101  S    
Cr5   O38   S    
C51   H60   S    
C1    O13   A    
Cr5   O7    S    
C61   C67   S    
C1    C44   S    
C22   H3    S    
C99   C100  S    
C115  O22   S    
C77   C81   A    
C117  H41   S    
C20   H96   S    
C14   H78   S    
C29   C39   T    
C62   C63   S    
C60   O23   A    
C50   C51   S    
C12   H75   S    
C30   O22   S    
C23   H6    S    
Cr6   O11   S    
C103  O37   A    
C43   C54   A    
Cr1   O17   S    
C113  O21   S    
C65   C109  A    
C15   H80   S    
Cr6   O9    S    
C3    C119  S    
C78   C85   A    
C58   C68   T    
C40   C41   S    
C54   H17   S    
C8    H64   S    
C12   C14   S    
C26   C30   S    
C114  H32   S    
C112  H28   S    
C41   H38   S    
C106  O7    A    
C1    O4    A    
C31   C35   S    
C116  H40   S    
C102  C110  S    
C44   C53   T    
C19   H94   S    
C35   H27   S    
C113  H31   S    
Cr5   O11   S    
C85   C106  S    
C117  H42   S    
C111  H25   S    
C79   C85   A    
C33   O21   S    
Cr2   O19   S    
Cr3   O35   S    
C43   O30   S    
C113  C114  S    
C3    H50   S    
Cr2   O12   S    
C63   C68   S    
C104  O2    A    
C60   O12   A    
C30   C33   S    
C26   C34   S    
C22   C23   S    
C116  H39   S    
C4    H53   S    
C80   C81   A    
C16   H83   S    
Cr2   O35   S    
Cr3   O23   S    
C95   C97   A    
C25   C104  S    
C97   H18   S    
C6    C7    S    
C47   H82   S    
C105  O36   A    
C89   H19   S    
C21   H100  S    
C107  O9    A    
C46   C50   S    
C31   C38   S    
H95   N2    S    
C6    H58   S    
C6    O27   S    
C25   C76   A    
C59   C62   S    
C8    O28   S    
C116  H37   S    
C115  H35   S    
C27   H23   S    
C18   O32   S    
C15   O31   S    
C24   C84   S    
C117  C118  S    
C5    H55   S    
C57   C67   T    
C28   C103  S    
C72   O17   A    
C90   C91   A    
C30   C31   S    
C75   H10   S    
C27   C37   S    
C49   C53   S    
C15   C16   S    
C14   H77   S    
C118  H43   S    
C72   O34   A    
C3    H48   S    
H85   N1    S    
C33   C34   S    
C108  O33   S    
C10   O29   S    
C12   O30   S    
C48   O19   A    
C69   C70   A    
C78   H8    S    
C104  O39   A    
C114  H34   S    
C11   H73   S    
C92   O32   S    
Cr6   O2    S    
C10   C11   S    
C79   C80   A    
Cr4   O36   S    
C3    H51   S    
C4    C5    S    
C79   H13   S    
C88   C89   A    
C40   H49   S    
C82   C83   T    
C32   C108  A    
C56   O24   S    
C42   C52   T    
C93   H15   S    
C36   O16   A    
C20   H97   S    
C56   C61   S    
C86   C92   A    
Cr4   O5    S    
C69   C72   S    
C115  C116  S    
C89   C90   A    
C9    H66   S    
C76   O20   S    
C58   C60   S    
C62   O28   S    
C41   C51   S    
Cr4   O11   S    
C112  H26   S    
C40   C49   S    
C94   C102  A    
C119  H46   S    
Cr3   O16   S    
Cr4   O6    S    
