data_mof_unit_7572.cif
_audit_creation_date              2012-12-10T17:23:11-0500
_audit_creation_method            fapswitch 2.2
_symmetry_space_group_name_H-M    P1
_symmetry_Int_Tables_number       1
_space_group_crystal_system       triclinic
_cell_length_a                    15.835222
_cell_length_b                    10.854583
_cell_length_c                    9.628691
_cell_angle_alpha                 89.88795
_cell_angle_beta                  89.373635
_cell_angle_gamma                 94.683302
_cell_volume                      1649.3939082

loop_
_atom_site_label
_atom_site_type_symbol
_atom_type_description
_atom_site_fract_x
_atom_site_fract_y
_atom_site_fract_z
_atom_type_partial_charge
C1    C     C_R   0.504571 0.263186 0.500215 0.780732
C2    C     C_3   0.083134 0.502193 0.500732 0.063698
C3    C     C_3   0.976301 0.581864 0.591822 0.520875
C4    C     C_3   0.917050 0.500415 0.499528 0.049451
C5    C     C_3   0.034867 0.616894 0.466332 -0.338509
C6    C     C_3   0.975765 0.531832 0.375134 0.515622
C7    C     C_1   0.174772 0.501561 0.501532 -0.032932
C8    C     C_1   0.825319 0.500659 0.498486 0.048156
C9    C     C_R   0.570243 0.123083 0.735374 -0.171652
C10   C     C_R   0.570850 0.065613 0.866340 0.144998
C11   C     C_R   0.528963 0.948222 0.881395 -0.230486
C12   C     C_R   0.339992 0.499297 0.500578 0.798771
C13   C     C_R   0.493712 0.885813 0.767032 -0.186690
C14   C     C_R   0.500730 0.938089 0.631832 0.064800
C15   C     C_R   0.527008 0.064517 0.622072 0.050545
C16   C     C_R   0.506731 0.129040 0.501051 -0.129422
C17   C     C_R   0.474101 0.064724 0.385374 -0.248801
C18   C     C_R   0.462430 0.936431 0.384425 0.079742
C19   C     C_R   0.481421 0.870670 0.506722 -0.166876
C20   C     C_R   0.632812 0.652441 0.131293 0.451066
C21   C     C_R   0.704136 0.689616 0.048079 -0.351192
C22   C     C_R   0.696832 0.696692 0.906779 0.432370
C23   C     C_R   0.491973 0.736573 0.501172 0.807607
C24   C     C_R   0.622736 0.648551 0.846748 -0.220439
C25   C     C_R   0.561063 0.573906 0.921974 0.031559
C26   C     C_R   0.563073 0.574615 0.071686 0.080210
C27   C     C_R   0.442662 0.429040 0.077349 -0.076517
C28   C     C_R   0.440413 0.430080 0.930341 0.216519
C29   C     C_R   0.659983 0.500304 0.499433 0.849188
C30   C     C_3   0.965735 0.387074 0.533517 -0.291081
C31   C     C_3   0.025001 0.418279 0.406342 -0.205617
C32   C     C_1   0.250324 0.500539 0.501612 -0.212470
C33   C     C_1   0.749712 0.500596 0.498316 -0.143193
C34   C     C_3   0.025565 0.469564 0.628322 -0.210383
Cu1   Cu    Cu3+1 0.499990 0.499990 0.640660 0.910226
Cu2   Cu    Cu3+1 0.500010 0.500010 0.359340 0.959520
H1    H     H_    0.046744 0.351278 0.329497 0.140160
H2    H     H_    0.524421 0.903713 0.982175 0.125621
H3    H     H_    0.457222 0.799616 0.789169 0.180038
H4    H     H_    0.397192 0.369634 0.136318 0.149449
H5    H     H_    0.762568 0.728066 0.093737 0.194737
H6    H     H_    0.617941 0.670195 0.740091 0.228356
H7    H     H_    0.935984 0.293886 0.560746 0.161453
H8    H     H_    0.064263 0.710184 0.438690 0.136749
H9    H     H_    0.047747 0.444781 0.732959 0.138494
H10   H     H_    0.456057 0.115538 0.294848 0.154407
H11   H     H_    0.603883 0.212671 0.720967 0.151143
N1    N     N_R   0.500800 0.501210 0.147910 -0.196886
N2    N     N_R   0.500830 0.501290 0.852040 -0.200202
O1    O     O_R   0.499990 0.319640 0.618810 -0.605669
O2    O     O_R   0.500000 0.319660 0.381240 -0.595258
O3    O     O_R   0.379070 0.499980 0.618770 -0.595661
O4    O     O_R   0.379080 0.500000 0.381190 -0.576731
O5    O     O_R   0.500000 0.680340 0.618760 -0.619016
O6    O     O_R   0.500010 0.680360 0.381190 -0.509696
O7    O     O_R   0.620920 0.500000 0.618810 -0.598850
O8    O     O_R   0.620930 0.500020 0.381230 -0.522669
C35   C     C_3   0.425287 0.876105 0.253335 -0.388425
C36   C     C_3   0.337512 0.809077 0.280782 -0.307062
C37   C     C_3   0.305370 0.737811 0.152760 -0.844960
H12   H     H_    0.299646 0.801980 0.063975 0.241804
H13   H     H_    0.349584 0.667585 0.123569 0.267267
H14   H     H_    0.242082 0.689842 0.175684 0.235020
H15   H     H_    0.339479 0.743322 0.368656 0.216043
H16   H     H_    0.292023 0.877946 0.308992 0.203176
H17   H     H_    0.417522 0.946815 0.171671 0.169976
H18   H     H_    0.469434 0.813979 0.205769 0.225536
O9    O     O_3   0.633347 0.694042 0.266728 -0.516390
C38   C     C_3   0.658906 0.822078 0.277431 -0.329761
H19   H     H_    0.629326 0.877669 0.196716 0.134787
H20   H     H_    0.728958 0.838908 0.274503 0.163426
H21   H     H_    0.638919 0.855532 0.380197 0.179557
O10   O     O_3   0.763587 0.748312 0.826665 -0.525636
C39   C     C_3   0.748300 0.871156 0.794119 -0.288712
H22   H     H_    0.740959 0.926911 0.889749 0.147103
H23   H     H_    0.691881 0.874765 0.726820 0.157159
H24   H     H_    0.803751 0.914078 0.735286 0.192327
C40   C     C_3   0.368601 0.349003 0.867036 -0.363784
C41   C     C_3   0.283894 0.410071 0.870093 -0.331349
C42   C     C_3   0.236676 0.395858 0.009267 -0.883066
H25   H     H_    0.230939 0.297780 0.043630 0.252023
H26   H     H_    0.269282 0.454313 0.089851 0.260808
H27   H     H_    0.171969 0.426671 0.997627 0.232240
H28   H     H_    0.294258 0.510055 0.844265 0.236839
H29   H     H_    0.242116 0.365772 0.789194 0.209395
H30   H     H_    0.382865 0.323740 0.759862 0.227929
H31   H     H_    0.361252 0.258532 0.922207 0.156159
O11   O     O_3   0.943035 0.562937 0.245146 -0.568395
C43   C     C_3   0.010203 0.584688 0.148881 -0.320484
H32   H     H_    0.044153 0.500191 0.132069 0.151861
H33   H     H_    0.055137 0.663107 0.181593 0.153233
H34   H     H_    0.983460 0.609979 0.047767 0.205147
O12   O     O_3   0.944226 0.664225 0.688453 -0.535370
C44   C     C_3   0.012212 0.731222 0.754622 -0.297188
H35   H     H_    0.049729 0.792217 0.679720 0.149950
H36   H     H_    0.053835 0.668939 0.808329 0.134775
H37   H     H_    0.986058 0.791310 0.834708 0.196178
C45   C     C_3   0.610655 0.126281 0.994488 -0.440374
C46   C     C_3   0.654953 0.256188 0.972317 -0.362541
C47   C     C_3   0.690752 0.309318 0.108121 -0.784602
H38   H     H_    0.639085 0.315703 0.186009 0.270172
H39   H     H_    0.738484 0.249992 0.149998 0.243200
H40   H     H_    0.721775 0.403430 0.089340 0.256064
H41   H     H_    0.707821 0.252160 0.895964 0.218115
H42   H     H_    0.608919 0.319004 0.932260 0.234638
H43   H     H_    0.559992 0.131873 0.074644 0.199639
H44   H     H_    0.657602 0.065287 0.035843 0.187185

loop_
_geom_bond_atom_site_label_1
_geom_bond_atom_site_label_2
_ccdc_geom_bond_type
C27   N1    A    
C40   H31   S    
O12   C44   S    
C38   H21   S    
C24   H6    S    
O10   C39   S    
C2    C7    S    
C4    C8    S    
C36   H15   S    
C39   H23   S    
C37   H14   S    
C5    C6    S    
C41   H28   S    
C15   C16   A    
C29   C33   S    
C6    O11   S    
C37   H13   S    
C18   C19   A    
C38   H20   S    
Cu2   O4    S    
C35   H17   S    
Cu1   Cu2   S    
O9    C38   S    
C39   H24   S    
Cu1   N2    S    
Cu2   N1    S    
C43   H33   S    
C28   C40   S    
C9    C10   A    
C12   O4    A    
C26   N1    A    
C40   H30   S    
C6    C31   S    
C36   C37   S    
C21   C22   A    
C12   C32   S    
Cu1   O5    S    
C44   H37   S    
C42   H27   S    
C12   O3    A    
C18   C35   S    
C46   H42   S    
C39   H22   S    
C30   C34   S    
C17   H10   S    
C4    C6    S    
Cu2   O8    S    
C34   H9    S    
C40   C41   S    
C16   C17   A    
C3    C34   S    
C35   C36   S    
C47   H40   S    
C45   H44   S    
C31   H1    S    
C37   H12   S    
C11   H2    S    
C19   C23   S    
C28   N2    A    
C46   C47   S    
C27   H4    S    
C20   C21   A    
Cu1   O1    S    
C47   H39   S    
C17   C18   A    
C44   H35   S    
C3    O12   S    
C1    C16   S    
C24   C25   A    
C43   H34   S    
C44   H36   S    
C1    O2    A    
Cu2   O2    S    
C21   H5    S    
C42   H26   S    
C5    H8    S    
C29   O8    A    
C9    H11   S    
C22   C24   A    
C30   H7    S    
C2    C5    S    
C3    C4    S    
C41   H29   S    
C23   O5    A    
C1    O1    A    
C7    C32   T    
Cu1   O7    S    
C14   C19   A    
C20   O9    S    
C42   H25   S    
C3    C5    S    
C23   O6    A    
C29   O7    A    
C10   C45   S    
C45   H43   S    
C25   C26   A    
Cu2   O6    S    
C36   H16   S    
C11   C13   A    
C2    C34   S    
C30   C31   S    
C20   C26   A    
C47   H38   S    
C46   H41   S    
C8    C33   T    
C9    C15   A    
C38   H19   S    
C25   N2    A    
C13   H3    S    
C10   C11   A    
C41   C42   S    
C35   H18   S    
O11   C43   S    
C45   C46   S    
Cu1   O3    S    
C14   C15   A    
C2    C31   S    
C22   O10   S    
C43   H32   S    
C13   C14   A    
C4    C30   S    
C27   C28   A    
