data_mof_unit_11751.cif
_audit_creation_date              2013-03-05T15:40:18-0500
_audit_creation_method            fapswitch 2.2
_symmetry_space_group_name_H-M    P1
_symmetry_Int_Tables_number       1
_space_group_crystal_system       triclinic
_cell_length_a                    7.742385
_cell_length_b                    8.704375
_cell_length_c                    12.747228
_cell_angle_alpha                 90.442554
_cell_angle_beta                  85.930939
_cell_angle_gamma                 93.15879
_cell_volume                      855.595416127

loop_
_atom_site_label
_atom_site_type_symbol
_atom_site_description
_atom_site_fract_x
_atom_site_fract_y
_atom_site_fract_z
_atom_type_partial_charge
O1    O     O_R   0.609680 0.261530 0.506880 -0.584136
O2    O     O_R   0.390320 0.738470 0.493120 -0.584133
O3    O     O_R   0.323330 0.288220 0.488910 -0.590489
O4    O     O_R   0.676670 0.711780 0.511090 -0.590486
C1    C     C_R   0.455702 0.206182 0.497100 0.872432
C2    C     C_R   0.544299 0.793818 0.502897 0.872438
O5    O     O_R   0.619510 0.488830 0.661140 -0.595589
O6    O     O_R   0.380490 0.511170 0.338860 -0.595588
O7    O     O_R   0.333160 0.515520 0.643180 -0.592672
O8    O     O_R   0.666840 0.484480 0.356820 -0.592670
C3    C     C_R   0.462367 0.504280 0.699871 0.880393
C4    C     C_R   0.537633 0.495720 0.300129 0.880385
Zn1   Zn    Zn3+2 0.691200 0.482180 0.511990 1.092646
Zn2   Zn    Zn3+2 0.308800 0.517820 0.488010 1.092648
N1    N     N_2   0.054030 0.541640 0.471970 -0.120201
N2    N     N_2   0.945970 0.458360 0.528030 -0.120203
C5    C     C_R   0.568783 0.490386 0.188163 -0.181971
C6    C     C_R   0.431217 0.509615 0.811837 -0.181973
C7    C     C_R   0.381427 0.670010 0.964089 -0.215537
C8    C     C_R   0.618572 0.329991 0.035910 -0.215538
C9    C     C_R   0.361523 0.641633 0.858583 0.264727
C10   C     C_R   0.638478 0.358368 0.141416 0.264723
C11   C     C_R   0.502591 0.397453 0.871851 0.039959
C12   C     C_R   0.497407 0.602547 0.128149 0.039962
C13   C     C_R   0.529604 0.430881 0.976943 0.072189
C14   C     C_R   0.470395 0.569119 0.023057 0.072190
H1    H     H_    0.328230 0.772666 0.998839 0.202972
H2    H     H_    0.671770 0.227335 0.001160 0.202973
H3    H     H_    0.999116 0.614954 0.422522 0.228168
H4    H     H_    0.000884 0.385045 0.577478 0.228166
C15   C     C_2   0.432010 0.044682 0.493617 0.003406
C16   C     C_2   0.567993 0.955318 0.506372 0.003399
N3    N     N_3   0.448985 0.748527 0.173048 -0.388771
H5    H     H_    0.488585 0.763925 0.249168 0.208641
H6    H     H_    0.520004 0.834874 0.129510 0.233048
N4    N     N_3   0.551013 0.251473 0.826952 -0.388776
H7    H     H_    0.511410 0.236075 0.750832 0.208639
H8    H     H_    0.479994 0.165127 0.870491 0.233049
N5    N     N_R   0.721101 0.248011 0.201217 0.218383
O9    O     O_R   0.676650 0.102335 0.193099 -0.398410
O10   O     O_R   0.862130 0.288884 0.246315 -0.312348
N6    N     N_R   0.278905 0.751992 0.798781 0.218381
O11   O     O_R   0.323368 0.897666 0.806894 -0.398415
O12   O     O_R   0.137873 0.711124 0.753685 -0.312350
N7    N     N_R   0.259976 0.984748 0.475602 0.235822
O13   O     O_R   0.148718 0.954993 0.555094 -0.254326
O14   O     O_R   0.210561 0.974718 0.380246 -0.318333
N8    N     N_R   0.740028 0.015252 0.524386 0.235817
O15   O     O_R   0.851277 0.045033 0.444892 -0.254327
O16   O     O_R   0.789458 0.025247 0.619741 -0.318313

loop_
_geom_bond_atom_site_label_1
_geom_bond_atom_site_label_2
_geom_bond_distance
_ccdc_geom_bond_type
C4    C5    1.431349 S    
C1    C15   1.408382 S    
C2    C16   1.408381 S    
O7    Zn2   2.000594 S    
N6    O12   1.300924 A    
C3    C6    1.431348 S    
C5    C10   1.406726 A    
C6    C9    1.406725 A    
C7    H1    1.082985 S    
N6    O11   1.300750 A    
C12   N3    1.446903 S    
O6    C4    1.293777 A    
N4    H8    1.045386 S    
N3    H5    1.043639 S    
N5    O10   1.300925 A    
N7    O13   1.300566 A    
O5    C3    1.293775 A    
C16   N8    1.436657 S    
O2    C2    1.275051 A    
O3    Zn2   2.008035 S    
O8    C4    1.283359 A    
O1    C1    1.275051 A    
C10   N5    1.435721 S    
N8    O16   1.300845 A    
N8    O15   1.300577 A    
N3    H6    1.045387 S    
C8    C10   1.383336 A    
N1    H3    1.029307 S    
O7    C3    1.283360 A    
O2    Zn2   1.990401 S    
Zn1   N2    2.019562 S    
C5    C12   1.405267 A    
O1    Zn1   1.990401 S    
C8    C13   1.400376 A    
N2    H4    1.029305 S    
C6    C11   1.405264 A    
O5    Zn1   1.943774 S    
C11   C13   1.396441 A    
O4    C2    1.291578 A    
C11   N4    1.446903 S    
C15   N7    1.436656 S    
N7    O14   1.300840 A    
N5    O9    1.300751 A    
C7    C14   1.400377 A    
Zn2   N1    2.019559 S    
N4    H7    1.043639 S    
O6    Zn2   1.943774 S    
C9    N6    1.435717 S    
C8    H2    1.082985 S    
C7    C9    1.383336 A    
C13   C14   1.419565 A    
N1    N2    1.261916 D    
C15   C16   1.362519 D    
O4    Zn1   2.008034 S    
C12   C14   1.396442 A    
O3    C1    1.291578 A    
O8    Zn1   2.000593 S    
