data_mof_unit_45576.cif
_audit_creation_date              2013-03-05T16:11:05-0500
_audit_creation_method            fapswitch 2.2
_symmetry_space_group_name_H-M    P1
_symmetry_Int_Tables_number       1
_space_group_crystal_system       triclinic
_cell_length_a                    10.866565
_cell_length_b                    9.423561
_cell_length_c                    10.619791
_cell_angle_alpha                 89.943924
_cell_angle_beta                  90.139407
_cell_angle_gamma                 90.033237
_cell_volume                      1087.48113578

loop_
_atom_site_label
_atom_site_type_symbol
_atom_site_description
_atom_site_fract_x
_atom_site_fract_y
_atom_site_fract_z
_atom_type_partial_charge
O1    O     O_R   0.317570 0.620260 0.500070 -0.596977
O2    O     O_R   0.317570 0.379740 0.500070 -0.591225
C1    C     C_R   0.260260 0.499958 0.499484 0.903807
O3    O     O_R   0.499850 0.620240 0.316900 -0.612551
O4    O     O_R   0.499850 0.379760 0.316900 -0.593138
C2    C     C_R   0.500659 0.500194 0.259347 0.801491
Cu1   Cu    Cu3+1 0.499860 0.642410 0.500060 0.901334
Cu2   Cu    Cu3+1 0.499860 0.357590 0.500060 0.911260
O5    O     O_R   0.682190 0.620260 0.500030 -0.573503
O6    O     O_R   0.682190 0.379740 0.500030 -0.564000
O7    O     O_R   0.499910 0.620280 0.683200 -0.604173
O8    O     O_R   0.499910 0.379720 0.683200 -0.592889
C3    C     C_R   0.740248 0.500099 0.503640 0.861901
C4    C     C_R   0.500205 0.499874 0.740777 0.780227
C5    C     C_3   0.503540 0.635170 0.040843 -0.162769
C6    C     C_3   0.399213 0.435424 0.041961 -0.161143
C7    C     C_3   0.401179 0.569503 0.958129 -0.167800
H1    H     H_    0.319113 0.626633 0.922082 0.119478
H2    H     H_    0.505272 0.745754 0.076777 0.116030
H3    H     H_    0.315724 0.382347 0.078537 0.157881
C8    C     C_3   0.500912 0.499585 0.877669 0.042139
C9    C     C_3   0.603383 0.565198 0.958104 -0.172156
C10   C     C_3   0.498988 0.365379 0.959404 -0.157337
C11   C     C_3   0.601355 0.431082 0.042202 -0.174076
C12   C     C_3   0.501427 0.500895 0.122509 0.029611
H4    H     H_    0.686887 0.618200 0.920538 0.113348
H5    H     H_    0.496976 0.254737 0.923609 0.120742
H6    H     H_    0.683097 0.374376 0.079747 0.136055
C13   C     C_3   0.074848 0.624784 0.587938 -0.071841
C14   C     C_3   0.073958 0.357322 0.558081 -0.076540
H7    H     H_    0.109792 0.728002 0.551700 0.187586
H8    H     H_    0.102564 0.270032 0.496962 0.153063
C15   C     C_3   0.931025 0.625798 0.586127 -0.063510
C16   C     C_3   0.931919 0.361944 0.566176 -0.114947
H9    H     H_    0.897337 0.604645 0.683566 0.142435
H10   H     H_    0.904954 0.372538 0.666944 0.145832
C17   C     C_3   0.073266 0.530817 0.359850 0.792256
C18   C     C_3   0.123226 0.500117 0.500794 -0.079333
C19   C     C_3   0.878843 0.501214 0.499904 -0.024611
C20   C     C_3   0.925284 0.522751 0.358355 0.230246
C21   C     C_3   0.623652 0.083414 0.529098 -0.195559
C22   C     C_3   0.623637 0.916475 0.530431 -0.190252
H11   H     H_    0.658459 0.124346 0.620683 0.151942
H12   H     H_    0.656559 0.877443 0.623479 0.154735
H13   H     H_    0.687340 0.118223 0.453747 0.179886
H14   H     H_    0.689891 0.879286 0.458170 0.180810
H15   H     H_    0.442103 0.121363 0.694438 0.140658
H16   H     H_    0.440553 0.877370 0.694069 0.140384
C23   C     C_3   0.415329 0.083623 0.599119 -0.184430
C24   C     C_3   0.414790 0.916024 0.598690 -0.199086
C25   C     C_3   0.460861 0.083128 0.379450 -0.191938
C26   C     C_3   0.461332 0.916141 0.379312 -0.195304
N1    N     N_3   0.500250 0.143650 0.502780 -0.120021
N2    N     N_3   0.500250 0.856350 0.502780 -0.116503
H17   H     H_    0.367422 0.120697 0.355467 0.124455
H18   H     H_    0.368218 0.875935 0.354474 0.149548
H19   H     H_    0.522755 0.120985 0.303251 0.145146
H20   H     H_    0.524614 0.879378 0.303994 0.135341
H21   H     H_    0.320266 0.122627 0.582093 0.150255
H22   H     H_    0.319576 0.877645 0.580880 0.140134
N3    N     N_3   0.875669 0.657664 0.308460 -0.549258
H23   H     H_    0.780453 0.650049 0.296129 0.231321
H24   H     H_    0.908848 0.673570 0.217173 0.223217
N4    N     N_3   0.874704 0.412786 0.273973 -0.651834
H25   H     H_    0.864237 0.312439 0.311881 0.233960
H26   H     H_    0.918074 0.410946 0.186276 0.245242
N5    N     N_3   0.120605 0.615611 0.717911 -0.614919
H27   H     H_    0.215838 0.630827 0.718174 0.224014
H28   H     H_    0.084543 0.700733 0.769161 0.195396
N6    N     N_3   0.130629 0.322701 0.680870 -0.565603
H29   H     H_    0.125569 0.212851 0.694563 0.186915
H30   H     H_    0.082590 0.366964 0.756199 0.249059
N7    N     N_3   0.884389 0.767454 0.553128 -0.589466
H31   H     H_    0.935575 0.813758 0.480839 0.264694
H32   H     H_    0.895652 0.833809 0.631263 0.181200
N8    N     N_3   0.878019 0.226067 0.526548 -0.607316
H33   H     H_    0.929037 0.174577 0.457385 0.192745
H34   H     H_    0.880283 0.156580 0.603492 0.199422
O9    O     O_3   0.104802 0.677748 0.338699 -0.626605
C27   C     C_3   0.168491 0.708681 0.225790 -0.258071
H35   H     H_    0.115797 0.673236 0.141656 0.175129
H36   H     H_    0.261753 0.660629 0.227115 0.196497
H37   H     H_    0.179951 0.825332 0.218421 0.134227
O10   O     O_3   0.128464 0.448756 0.259745 -0.618531
C28   C     C_3   0.135880 0.300271 0.269512 -0.500623
H38   H     H_    0.052324 0.248858 0.304086 0.161458
H39   H     H_    0.217421 0.269478 0.323995 0.202076
H40   H     H_    0.149681 0.256980 0.173596 0.193251

loop_
_geom_bond_atom_site_label_1
_geom_bond_atom_site_label_2
_geom_bond_distance
_ccdc_geom_bond_type
N7    H32   1.046390 S    
C21   C22   1.573211 S    
C16   C19   1.596090 S    
Cu1   Cu2   2.684018 S    
H15   C23   1.111293 S    
C28   H38   1.093037 S    
Cu1   O7    1.955854 S    
C17   O9    1.443700 S    
C15   C19   1.592827 S    
C4    C8    1.453766 S    
N8    H34   1.046884 S    
C17   C20   1.609851 S    
O1    C1    1.293162 A    
C27   H37   1.108934 S    
C22   H14   1.110652 S    
O4    C2    1.288544 A    
O7    C4    1.288389 A    
C5    C12   1.533525 S    
C2    C12   1.453245 S    
C13   C15   1.562971 S    
C14   C18   1.570555 S    
Cu1   O5    1.992387 S    
N7    H31   1.044164 S    
N3    H24   1.045775 S    
O5    C3    1.297050 A    
C13   N5    1.468457 S    
O10   C28   1.405343 S    
C5    C9    1.546154 S    
C1    C18   1.489185 S    
C6    C7    1.545113 S    
C13   C18   1.586886 S    
C10   C11   1.545767 S    
C17   O10   1.446784 S    
N6    H29   1.046632 S    
C25   H19   1.111875 S    
C10   H5    1.110311 S    
C16   H10   1.114811 S    
Cu2   O8    1.956260 S    
H16   C24   1.111329 S    
C8    C9    1.532144 S    
C21   H11   1.112020 S    
C22   H12   1.112400 S    
O3    Cu1   1.956512 S    
C14   N6    1.477015 S    
C26   N2    1.487178 S    
C28   H39   1.096156 S    
C14   C16   1.546720 S    
N5    H27   1.044660 S    
C11   C12   1.531567 S    
C27   H36   1.110295 S    
C19   C20   1.599535 S    
C7    C8    1.531402 S    
C20   N3    1.478473 S    
C25   C26   1.573620 S    
N5    H28   1.046660 S    
N4    H26   1.044969 S    
C5    H2    1.110255 S    
C17   C18   1.616843 S    
C6    H3    1.106766 S    
C7    H1    1.109119 S    
C24   N2    1.490768 S    
N8    H33   1.041764 S    
C21   N1    1.482307 S    
C26   H20   1.111835 S    
O3    C2    1.286383 A    
O8    C4    1.287359 A    
C6    C10   1.544825 S    
C8    C10   1.533385 S    
C9    C11   1.547028 S    
C28   H40   1.108201 S    
C15   N7    1.469900 S    
C6    C12   1.530256 S    
C5    C7    1.545080 S    
O1    Cu1   1.991712 S    
O2    Cu2   1.991953 S    
C11   H6    1.109927 S    
C27   H35   1.111591 S    
O6    C3    1.298100 A    
C20   N4    1.475715 S    
Cu2   N1    2.016262 S    
O4    Cu2   1.956105 S    
C23   H21   1.110985 S    
C24   H22   1.111686 S    
N4    H25   1.033711 S    
O2    C1    1.293088 A    
C13   H7    1.112630 S    
C22   N2    1.484090 S    
C14   H8    1.094011 S    
C23   N1    1.490344 S    
C15   H9    1.116187 S    
C25   H17   1.104603 S    
N3    H23   1.045043 S    
C3    C19   1.506701 S    
O9    C27   1.415927 S    
Cu2   O6    1.992146 S    
C23   C24   1.579393 S    
C9    H4    1.110336 S    
C21   H13   1.108524 S    
N6    H30   1.043742 S    
Cu1   N2    2.016314 S    
C25   N1    1.490754 S    
C26   H18   1.111478 S    
C16   N8    1.469248 S    
