data_mof_unit_48317.cif
_audit_creation_date              2012-12-10T19:12:17-0500
_audit_creation_method            fapswitch 2.2
_symmetry_space_group_name_H-M    P1
_symmetry_Int_Tables_number       1
_space_group_crystal_system       triclinic
_cell_length_a                    7.813399
_cell_length_b                    9.091895
_cell_length_c                    17.054706
_cell_angle_alpha                 89.74596
_cell_angle_beta                  93.853482
_cell_angle_gamma                 89.80876
_cell_volume                      1208.78349613

loop_
_atom_site_label
_atom_site_type_symbol
_atom_type_description
_atom_site_fract_x
_atom_site_fract_y
_atom_site_fract_z
_atom_type_partial_charge
C1    C     C_R   0.500210 0.220128 0.500465 0.822916
C2    C     C_R   0.499837 0.779862 0.499899 0.836015
C3    C     C_R   0.520019 0.499630 0.651959 0.859028
C4    C     C_R   0.478926 0.499154 0.349108 0.875343
C5    C     C_R   0.525156 0.507209 0.739390 -0.339461
C6    C     C_R   0.466043 0.485174 0.263728 -0.331516
C7    C     C_R   0.371707 0.495888 0.779352 -0.249216
C8    C     C_R   0.516239 0.353477 0.227868 -0.188307
C9    C     C_R   0.374600 0.524550 0.859913 0.396565
C10   C     C_R   0.497970 0.341298 0.145482 0.412634
C11   C     C_R   0.531491 0.527884 0.904969 0.101589
C12   C     C_R   0.437596 0.462825 0.099797 0.077637
C13   C     C_R   0.684619 0.529667 0.867078 0.297132
C14   C     C_R   0.381736 0.591255 0.136129 0.348770
C15   C     C_R   0.680612 0.534270 0.784357 0.385203
C16   C     C_R   0.399714 0.603681 0.218146 0.334181
C17   C     C_1   0.500263 0.065384 0.500205 -0.165722
C18   C     C_1   0.499784 0.934590 0.499999 -0.173402
Cu1   Cu    Cu3+1 0.669080 0.500010 0.500000 1.024403
Cu2   Cu    Cu3+1 0.330920 0.499990 0.500000 1.019352
N1    N     N_1   0.076820 0.499970 0.500010 -0.045703
N2    N     N_1   0.923180 0.500030 0.499990 -0.038593
N3    N     N_2   0.538160 0.533475 0.988250 -0.161038
N4    N     N_2   0.428412 0.453984 0.017113 -0.145494
O1    O     O_R   0.642760 0.288400 0.500000 -0.578825
O2    O     O_R   0.357240 0.711600 0.500000 -0.573358
O3    O     O_R   0.357190 0.288380 0.500000 -0.574165
O4    O     O_R   0.642810 0.711620 0.500000 -0.584273
O5    O     O_R   0.658410 0.498660 0.613920 -0.528789
O6    O     O_R   0.341590 0.501340 0.386080 -0.552372
O7    O     O_R   0.372840 0.498650 0.613930 -0.617770
O8    O     O_R   0.627160 0.501350 0.386070 -0.595800
C19   C     C_2   0.585865 0.227983 0.276613 0.472009
H1    H     H_    0.556571 0.217622 0.337535 0.026580
O9    O     O_2   0.680446 0.136520 0.249864 -0.541699
C20   C     C_2   0.205441 0.455711 0.739293 0.586380
H2    H     H_    0.136039 0.534474 0.701373 0.100532
O10   O     O_2   0.148604 0.331954 0.746546 -0.557688
O11   O     O_3   0.517665 0.204307 0.111749 -0.537361
C21   C     C_3   0.658927 0.203095 0.064483 -0.173831
H3    H     H_    0.753776 0.292696 0.077660 0.138717
H4    H     H_    0.610418 0.207693 0.001956 0.158756
H5    H     H_    0.727995 0.096988 0.073790 0.181927
O12   O     O_3   0.223601 0.555153 0.894241 -0.540439
C22   C     C_3   0.196639 0.708696 0.889686 -0.211202
H6    H     H_    0.298088 0.768751 0.925430 0.183056
H7    H     H_    0.072082 0.735226 0.913683 0.207321
H8    H     H_    0.190224 0.748981 0.827795 0.115136
O13   O     O_3   0.838517 0.532426 0.911697 -0.565304
C23   C     C_3   0.906043 0.388203 0.915269 -0.149179
H9    H     H_    0.962970 0.360259 0.859528 0.240048
H10   H     H_    0.808715 0.304095 0.927534 0.079014
H11   H     H_    0.008344 0.381767 0.963502 0.192640
O14   O     O_3   0.313354 0.706569 0.091010 -0.548466
C24   C     C_3   0.132892 0.696499 0.088240 -0.198023
H12   H     H_    0.083379 0.701063 0.147858 0.182412
H13   H     H_    0.087584 0.594654 0.057565 0.179406
H14   H     H_    0.077452 0.792002 0.054653 0.169081
O15   O     O_3   0.829471 0.564527 0.748338 -0.540543
C25   C     C_3   0.839142 0.718484 0.738274 -0.268274
H15   H     H_    0.847717 0.776093 0.795845 0.155351
H16   H     H_    0.728075 0.761563 0.700582 0.145804
H17   H     H_    0.956701 0.744987 0.708200 0.163597
O16   O     O_3   0.341841 0.728666 0.254167 -0.572390
C26   C     C_3   0.475455 0.832495 0.259316 -0.162037
H18   H     H_    0.509335 0.868971 0.199957 0.218827
H19   H     H_    0.591001 0.788907 0.293666 0.140074
H20   H     H_    0.430581 0.930376 0.290747 0.182802

loop_
_geom_bond_atom_site_label_1
_geom_bond_atom_site_label_2
_ccdc_geom_bond_type
C17   C18   T    
C23   H10   S    
N3    N4    D    
C8    C10   A    
C15   O15   S    
Cu2   O3    S    
C2    C18   S    
C11   C13   A    
C7    C20   S    
C12   N4    S    
C1    C17   S    
Cu1   Cu2   S    
C24   H12   S    
C26   H20   S    
C1    O3    A    
O16   C26   S    
C3    C5    S    
C24   H13   S    
C23   H9    S    
O15   C25   S    
C2    O2    A    
Cu2   O6    S    
C22   H6    S    
Cu2   N1    S    
C3    O7    A    
C1    O1    A    
Cu1   O4    S    
C9    C11   A    
C4    O8    A    
C10   C12   A    
C25   H17   S    
C13   O13   S    
Cu1   O8    S    
C6    C8    A    
C20   O10   D    
C21   H3    S    
C19   O9    D    
C12   C14   A    
C19   H1    S    
C5    C7    A    
C8    C19   S    
C13   C15   A    
Cu1   O1    S    
C14   C16   A    
C24   H14   S    
C5    C15   A    
C23   H11   S    
C26   H18   S    
C6    C16   A    
Cu1   O5    S    
C7    C9    A    
Cu1   N2    S    
C22   H7    S    
O12   C22   S    
C25   H16   S    
O13   C23   S    
C22   H8    S    
C11   N3    S    
O11   C21   S    
C3    O5    A    
C21   H4    S    
O14   C24   S    
C20   H2    S    
C9    O12   S    
C2    O4    A    
C16   O16   S    
C14   O14   S    
N1    N2    T    
C4    C6    S    
C10   O11   S    
C21   H5    S    
C4    O6    A    
Cu2   O2    S    
C25   H15   S    
C26   H19   S    
Cu2   O7    S    
