data_mof_unit_22362.cif
_audit_creation_date              2013-03-05T16:32:25-0500
_audit_creation_method            fapswitch 2.2
_symmetry_space_group_name_H-M    P1
_symmetry_Int_Tables_number       1
_space_group_crystal_system       triclinic
_cell_length_a                    10.663068
_cell_length_b                    10.880315
_cell_length_c                    9.603951
_cell_angle_alpha                 90.810054
_cell_angle_beta                  89.183767
_cell_angle_gamma                 92.501831
_cell_volume                      1112.94986736

loop_
_atom_site_label
_atom_site_type_symbol
_atom_site_description
_atom_site_fract_x
_atom_site_fract_y
_atom_site_fract_z
_atom_type_partial_charge
O1    O     O_R   0.500000 0.319640 0.618810 -0.548144
O2    O     O_R   0.500010 0.319680 0.381230 -0.600131
C1    C     C_R   0.497029 0.262482 0.499400 0.822894
O3    O     O_R   0.316850 0.499950 0.618770 -0.523660
O4    O     O_R   0.316860 0.499990 0.381190 -0.579123
C2    C     C_R   0.259806 0.500201 0.500578 0.869633
Cu1   Cu    Cu3+1 0.499990 0.499980 0.640670 1.051650
Cu2   Cu    Cu3+1 0.500010 0.500020 0.359330 1.012275
O5    O     O_R   0.499990 0.680320 0.618770 -0.579713
O6    O     O_R   0.500000 0.680360 0.381190 -0.573124
O7    O     O_R   0.683140 0.500010 0.618810 -0.576795
O8    O     O_R   0.683150 0.500050 0.381230 -0.551918
C3    C     C_R   0.496738 0.737572 0.500657 0.814407
C4    C     C_R   0.740442 0.497296 0.499210 0.827118
C5    C     C_3   0.040539 0.536979 0.624839 -0.102266
C6    C     C_3   0.953970 0.420336 0.599380 -0.032005
H1    H     H_    0.914595 0.356815 0.679833 0.228076
H2    H     H_    0.077071 0.572046 0.726047 0.240045
C7    C     C_3   0.877372 0.494831 0.497995 -0.099349
C8    C     C_3   0.961304 0.611412 0.524260 -0.226659
C9    C     C_3   0.044667 0.570317 0.402258 0.403726
C10   C     C_3   0.959449 0.455423 0.373080 -0.220085
C11   C     C_3   0.038236 0.383598 0.475276 -0.101504
C12   C     C_3   0.123358 0.498327 0.500964 -0.164051
H3    H     H_    0.927384 0.705349 0.542905 0.174938
H4    H     H_    0.926473 0.417007 0.271815 0.213557
C13   C     C_R   0.471905 0.064844 0.623929 0.139975
C14   C     C_R   0.483810 0.129061 0.498798 -0.129909
C15   C     C_R   0.477054 0.061825 0.372800 -0.179916
H5    H     H_    0.478784 0.108009 0.273564 0.174357
C16   C     C_R   0.476791 0.933357 0.373616 -0.137228
H6    H     H_    0.478725 0.884404 0.274718 0.173257
C17   C     C_R   0.482283 0.870336 0.500477 -0.122568
C18   C     C_R   0.468644 0.937797 0.624360 0.168634
C19   C     C_3   0.537338 0.933898 0.759053 -0.365705
C20   C     C_3   0.543971 0.075706 0.757828 -0.145517
H7    H     H_    0.630602 0.893302 0.745415 0.106606
C21   C     C_R   0.604025 0.539422 0.072781 0.199279
N1    N     N_R   0.500800 0.500930 0.147930 -0.249824
C22   C     C_R   0.400887 0.452512 0.076613 -0.079277
H8    H     H_    0.320809 0.414053 0.133929 0.200165
C23   C     C_R   0.398742 0.453524 0.928863 0.377849
N2    N     N_R   0.500800 0.500890 0.852020 -0.259635
C24   C     C_R   0.606475 0.533812 0.925366 0.216507
C25   C     C_3   0.677189 0.654679 0.915309 -0.390678
C26   C     C_3   0.661929 0.667124 0.073479 0.077619
H9    H     H_    0.624747 0.719274 0.855555 0.118234
H10   H     H_    0.593674 0.736865 0.105683 0.096581
C27   C     C_2   0.472748 0.138974 0.874994 0.488879
H11   H     H_    0.519320 0.209208 0.939507 0.079461
O9    O     O_2   0.362655 0.110876 0.900243 -0.482717
C28   C     C_2   0.677204 0.127350 0.734923 0.295248
H12   H     H_    0.733644 0.091782 0.649660 0.093612
O10   O     O_2   0.722959 0.208440 0.810059 -0.526105
N3    N     N_R   0.285968 0.406665 0.864178 0.140218
O11   O     O_R   0.289296 0.314148 0.777518 -0.270745
O12   O     O_R   0.177791 0.436055 0.916160 -0.314791
C29   C     C_2   0.809378 0.644295 0.860770 0.558775
H13   H     H_    0.861016 0.725805 0.823833 0.048233
O13   O     O_2   0.860349 0.546008 0.860938 -0.486195
N4    N     N_R   0.778403 0.679298 0.152012 0.165270
O14   O     O_R   0.794396 0.769687 0.240934 -0.347068
O15   O     O_R   0.862870 0.597148 0.140928 -0.299344
N5    N     N_R   0.096672 0.652798 0.295814 0.168701
O16   O     O_R   0.083170 0.770728 0.307264 -0.296110
O17   O     O_R   0.153642 0.608521 0.186815 -0.292114
C30   C     C_2   0.082700 0.256908 0.447603 0.401489
H14   H     H_    0.063010 0.211215 0.348736 0.093874
O18   O     O_2   0.141900 0.205029 0.535410 -0.467245
C31   C     C_2   0.458546 0.875677 0.875058 0.526504
H15   H     H_    0.486715 0.891024 0.982157 0.031607
O19   O     O_2   0.364628 0.811081 0.850596 -0.478039

loop_
_geom_bond_atom_site_label_1
_geom_bond_atom_site_label_2
_geom_bond_distance
_ccdc_geom_bond_type
C5    H2    1.108793 S    
N3    O11   1.298389 A    
C22   H8    1.081268 S    
C19   C20   1.541649 S    
Cu1   Cu2   2.701978 S    
C25   C26   1.530172 S    
C24   C25   1.490726 S    
C3    C17   1.459417 S    
C14   C15   1.406236 A    
C19   H7    1.110966 S    
O4    C2    1.290339 A    
O7    C4    1.293905 A    
C8    H3    1.110289 S    
C29   O13   1.220582 D    
C5    C6    1.554959 S    
C18   C19   1.497655 S    
C11   C30   1.496193 S    
N4    O15   1.298583 A    
O5    C3    1.303441 A    
C9    N5    1.457488 S    
C7    C8    1.540073 S    
C19   C31   1.514999 S    
C6    H1    1.109722 S    
C27   O9    1.221897 D    
C11   C12   1.530263 S    
C16   C17   1.409673 A    
C31   H15   1.084267 S    
Cu2   N1    2.030336 S    
Cu1   N2    2.029820 S    
C20   C28   1.518996 S    
C22   C23   1.419694 A    
C9    C10   1.537890 S    
O3    Cu1   1.967090 S    
C28   O10   1.221326 D    
C25   H9    1.091256 S    
C13   C18   1.381294 A    
C5    C8    1.551731 S    
C26   H10   1.111894 S    
C25   C29   1.505029 S    
C26   N4    1.462326 S    
C30   H14   1.084451 S    
C7    C10   1.541863 S    
O3    C2    1.295519 A    
N1    C22   1.357667 A    
C29   H13   1.084546 S    
O1    C1    1.296946 A    
N5    O17   1.300044 A    
Cu1   O7    1.961203 S    
N2    C24   1.369111 A    
C21   C24   1.416135 A    
C15   H5    1.083234 S    
C23   N3    1.432032 S    
C16   H6    1.082755 S    
Cu2   O8    1.967090 S    
C2    C12   1.454156 S    
C17   C18   1.398261 A    
C5    C12   1.536381 S    
O8    C4    1.296244 A    
C6    C11   1.541147 S    
N3    O12   1.301283 A    
C23   N2    1.390484 A    
C28   H12   1.086192 S    
Cu1   O5    1.976350 S    
C1    C14   1.452296 S    
O1    Cu1   1.970406 S    
C4    C7    1.461387 S    
O2    Cu2   1.976352 S    
O6    C3    1.298339 A    
O4    Cu2   1.961204 S    
C13   C20   1.508005 S    
N5    O16   1.300354 A    
O2    C1    1.301354 A    
C15   C16   1.397784 A    
C21   N1    1.361428 A    
C6    C7    1.541085 S    
N4    O14   1.300518 A    
C21   C26   1.495575 S    
C8    C9    1.534002 S    
Cu2   O6    1.970406 S    
C27   H11   1.084754 S    
C10   H4    1.108879 S    
C9    C12   1.522252 S    
C13   C14   1.400055 A    
C10   C11   1.543481 S    
C31   O19   1.221745 D    
C30   O18   1.219827 D    
C20   C27   1.521912 S    
