data_mof_unit_41154.cif
_audit_creation_date              2012-12-10T19:12:19-0500
_audit_creation_method            fapswitch 2.2
_symmetry_space_group_name_H-M    P1
_symmetry_Int_Tables_number       1
_space_group_crystal_system       triclinic
_cell_length_a                    7.777373
_cell_length_b                    9.066252
_cell_length_c                    16.996379
_cell_angle_alpha                 89.711909
_cell_angle_beta                  93.253361
_cell_angle_gamma                 89.995974
_cell_volume                      1196.49559849

loop_
_atom_site_label
_atom_site_type_symbol
_atom_type_description
_atom_site_fract_x
_atom_site_fract_y
_atom_site_fract_z
_atom_type_partial_charge
C1    C     C_R   0.499972 0.220025 0.499864 0.833073
C2    C     C_R   0.500019 0.779966 0.499938 0.848155
C3    C     C_R   0.519971 0.500333 0.651621 0.830851
C4    C     C_R   0.479963 0.499635 0.348889 0.833871
C5    C     C_R   0.525358 0.509318 0.738059 -0.127539
C6    C     C_R   0.472031 0.483947 0.263722 -0.117254
C7    C     C_R   0.382959 0.455561 0.776434 -0.351192
C8    C     C_R   0.544304 0.357949 0.231710 -0.332856
C9    C     C_R   0.371112 0.471599 0.857465 0.011616
C10   C     C_R   0.540596 0.337718 0.150105 -0.000009
C11   C     C_R   0.506520 0.543186 0.901123 0.276175
C12   C     C_R   0.475709 0.451892 0.100258 0.266739
C13   C     C_R   0.647420 0.599199 0.863108 -0.322786
C14   C     C_R   0.399111 0.576929 0.132914 -0.257133
C15   C     C_R   0.660344 0.582234 0.781062 0.440543
C16   C     C_R   0.396702 0.593231 0.214430 0.394577
C17   C     C_1   0.500018 0.065408 0.499863 -0.183592
C18   C     C_1   0.500049 0.934569 0.499911 -0.188702
Cu1   Cu    Cu3+1 0.669080 0.500010 0.500000 1.018883
Cu2   Cu    Cu3+1 0.330920 0.499990 0.500000 1.010566
H1    H     H_    0.599510 0.273483 0.270803 0.156356
H2    H     H_    0.278163 0.402512 0.742590 0.191004
H3    H     H_    0.748083 0.652623 0.898926 0.129867
H4    H     H_    0.340828 0.661952 0.095148 0.161890
N1    N     N_1   0.076820 0.499970 0.500010 -0.042368
N2    N     N_1   0.923180 0.500030 0.499990 -0.038485
N3    N     N_2   0.505251 0.558978 0.983638 -0.273297
N4    N     N_2   0.487082 0.438466 0.017764 -0.240794
O1    O     O_R   0.642760 0.288400 0.500000 -0.582825
O2    O     O_R   0.357240 0.711600 0.500000 -0.575900
O3    O     O_R   0.357190 0.288380 0.500000 -0.581655
O4    O     O_R   0.642810 0.711620 0.500000 -0.577382
O5    O     O_R   0.658410 0.498660 0.613920 -0.529899
O6    O     O_R   0.341590 0.501340 0.386080 -0.553280
O7    O     O_R   0.372840 0.498650 0.613930 -0.599105
O8    O     O_R   0.627160 0.501350 0.386070 -0.594281
C19   C     C_R   0.604279 0.196804 0.118209 0.121772
C20   C     C_R   0.502291 0.116900 0.062183 -0.140887
C21   C     C_R   0.561364 0.983326 0.032926 -0.170017
C22   C     C_R   0.722019 0.927856 0.059519 -0.131238
C23   C     C_R   0.823716 0.005654 0.115609 -0.149600
C24   C     C_R   0.765170 0.139243 0.145109 -0.174708
H5    H     H_    0.376332 0.157129 0.041742 0.149168
H6    H     H_    0.482155 0.922391 0.989921 0.138451
H7    H     H_    0.767390 0.824355 0.036879 0.132885
H8    H     H_    0.948105 0.962491 0.136211 0.146583
H9    H     H_    0.846128 0.198515 0.188183 0.141487
C25   C     C_R   0.214960 0.415277 0.894400 0.175677
C26   C     C_R   0.156575 0.270778 0.879042 -0.163351
C27   C     C_R   0.008939 0.217757 0.912943 -0.151504
C28   C     C_R   0.918793 0.307997 0.962654 -0.071273
C29   C     C_R   0.976494 0.451034 0.979030 -0.148283
C30   C     C_R   0.122639 0.505351 0.944374 -0.140088
H10   H     H_    0.225843 0.198860 0.841175 0.122113
H11   H     H_    0.964382 0.106660 0.900654 0.125274
H12   H     H_    0.803718 0.267317 0.988066 0.165761
H13   H     H_    0.906422 0.520628 0.017703 0.142515
H14   H     H_    0.163132 0.617730 0.956187 0.115129
O9    O     O_3   0.803298 0.627429 0.741037 -0.558342
C31   C     C_3   0.886514 0.752721 0.774430 0.047926
H15   H     H_    0.968844 0.720314 0.827278 0.146346
H16   H     H_    0.792121 0.838872 0.790001 0.130090
C32   C     C_3   0.003366 0.818882 0.714736 -0.743051
H17   H     H_    0.926080 0.852408 0.660619 0.252821
H18   H     H_    0.070114 0.917388 0.740268 0.184454
H19   H     H_    0.101449 0.736630 0.698968 0.256784
O10   O     O_3   0.314248 0.712787 0.245541 -0.577503
C33   C     C_3   0.430854 0.831943 0.251753 0.048905
H20   H     H_    0.477177 0.862841 0.193078 0.167964
H21   H     H_    0.543316 0.804190 0.292707 0.139012
C34   C     C_3   0.339893 0.964813 0.284459 -0.753011
H22   H     H_    0.286664 0.936124 0.341835 0.255326
H23   H     H_    0.432500 0.056918 0.293601 0.193548
H24   H     H_    0.233267 0.000904 0.242499 0.239037

loop_
_geom_bond_atom_site_label_1
_geom_bond_atom_site_label_2
_ccdc_geom_bond_type
C34   H24   S    
C23   H8    S    
C4    O8    A    
C33   C34   S    
C19   C20   A    
Cu2   O3    S    
O10   C33   S    
C3    O7    A    
C25   C30   A    
C2    C18   S    
C7    H2    S    
C9    C11   A    
C23   C24   A    
C1    C17   S    
C27   H11   S    
C11   N3    S    
C30   H14   S    
Cu2   O6    S    
C19   C24   A    
C32   H18   S    
C17   C18   T    
C32   H19   S    
O9    C31   S    
C16   O10   S    
Cu2   O2    S    
C31   H16   S    
Cu1   N2    S    
C11   C13   A    
C21   H6    S    
C10   C12   A    
C12   N4    S    
C31   C32   S    
Cu1   O4    S    
C28   H12   S    
C1    O1    A    
C25   C26   A    
C12   C14   A    
C8    H1    S    
C14   C16   A    
Cu1   O8    S    
C13   C15   A    
Cu1   O5    S    
C22   H7    S    
C8    C10   A    
C4    O6    A    
C5    C15   A    
C4    C6    S    
C2    O2    A    
C3    O5    A    
C21   C22   A    
C6    C16   A    
C28   C29   A    
Cu1   O1    S    
C7    C9    A    
C34   H23   S    
C1    O3    A    
C24   H9    S    
C34   H22   S    
C29   C30   A    
C13   H3    S    
C9    C25   S    
C2    O4    A    
C26   C27   A    
C29   H13   S    
C14   H4    S    
N3    N4    D    
C5    C7    A    
C33   H21   S    
C22   C23   A    
C6    C8    A    
C26   H10   S    
C27   C28   A    
N1    N2    T    
C32   H17   S    
Cu2   O7    S    
C15   O9    S    
C10   C19   S    
C31   H15   S    
C20   H5    S    
Cu1   Cu2   S    
C33   H20   S    
C3    C5    S    
Cu2   N1    S    
C20   C21   A    
