data_mof_unit_47465.cif
_audit_creation_date              2012-12-10T18:58:36-0500
_audit_creation_method            fapswitch 2.2
_symmetry_space_group_name_H-M    P1
_symmetry_Int_Tables_number       1
_space_group_crystal_system       triclinic
_cell_length_a                    10.852978
_cell_length_b                    10.013817
_cell_length_c                    17.329908
_cell_angle_alpha                 86.731886
_cell_angle_beta                  99.277694
_cell_angle_gamma                 88.279455
_cell_volume                      1854.27879592

loop_
_atom_site_label
_atom_site_type_symbol
_atom_type_description
_atom_site_fract_x
_atom_site_fract_y
_atom_site_fract_z
_atom_type_partial_charge
C1    C     C_R   0.260710 0.500245 0.504333 1.041917
C2    C     C_R   0.738600 0.497378 0.493679 1.016041
C3    C     C_1   0.348910 0.503974 0.953555 0.264858
C4    C     C_1   0.365960 0.496593 0.023914 0.268996
C5    C     C_R   0.071035 0.373546 0.520032 0.368949
C6    C     C_R   0.929582 0.610705 0.475112 0.393556
C7    C     C_R   0.942399 0.366608 0.497283 0.340056
C8    C     C_R   0.056475 0.615862 0.505354 0.364130
C9    C     C_R   0.503502 0.504125 0.352634 0.948281
C10   C     C_R   0.493514 0.498017 0.648563 0.956874
C11   C     C_R   0.870658 0.489574 0.485006 -0.426580
C12   C     C_R   0.127817 0.496928 0.510164 -0.423828
C13   C     C_R   0.390669 0.631856 0.837290 0.322639
C14   C     C_R   0.500257 0.401152 0.144516 0.409376
C15   C     C_R   0.365138 0.601029 0.147716 0.359961
C16   C     C_R   0.345097 0.396808 0.831596 0.333884
C17   C     C_R   0.445566 0.626823 0.768068 0.010516
C18   C     C_R   0.543026 0.407635 0.226305 -0.043216
C19   C     C_R   0.432274 0.624015 0.221436 0.044598
C20   C     C_R   0.415815 0.383387 0.770201 0.061604
C21   C     C_R   0.457495 0.500641 0.731291 -0.182609
C22   C     C_R   0.498108 0.514345 0.266077 -0.180818
C23   C     C_R   0.586222 0.064642 0.553026 0.299053
C24   C     C_R   0.412442 0.935361 0.447259 0.241935
C25   C     C_R   0.414145 0.081178 0.446002 0.297899
C26   C     C_R   0.589468 0.919065 0.551769 0.246825
C27   C     C_R   0.349059 0.514478 0.870254 -0.183219
C28   C     C_R   0.403826 0.493483 0.107436 -0.218786
N1    N     N_R   0.500000 0.857200 0.500000 -0.232591
N2    N     N_R   0.500000 0.142800 0.500000 -0.218249
O1    O     O_R   0.316770 0.614620 0.500000 -0.535485
O2    O     O_R   0.683230 0.385380 0.500000 -0.531720
O3    O     O_R   0.683230 0.614620 0.500000 -0.502641
O4    O     O_R   0.316770 0.385380 0.500000 -0.516855
O5    O     O_R   0.500010 0.614710 0.389120 -0.577014
O6    O     O_R   0.499990 0.385290 0.610880 -0.566522
O7    O     O_R   0.499990 0.614710 0.610880 -0.577636
O8    O     O_R   0.500010 0.385290 0.389120 -0.570893
Zn1   Zn    Zn3+2 0.500000 0.653120 0.500000 1.123187
Zn2   Zn    Zn3+2 0.500000 0.346880 0.500000 1.142225
S1    S     S_3+6 0.374904 0.780822 0.889067 0.070709
O9    O     O_2   0.248987 0.781648 0.914683 -0.202125
O10   O     O_2   0.473776 0.773551 0.960822 -0.261563
O11   O     O_3   0.386388 0.927175 0.839153 -0.536178
H1    H     H_    0.299086 0.959125 0.819687 0.411095
S2    S     S_3+6 0.560584 0.279415 0.086382 0.029864
O12   O     O_2   0.458180 0.185084 0.062812 -0.215920
O13   O     O_2   0.593325 0.350169 0.014041 -0.321607
O14   O     O_3   0.688136 0.188252 0.129816 -0.557630
H2    H     H_    0.697457 0.115600 0.094461 0.404633
S3    S     S_3+6 0.234763 0.709573 0.107788 0.088629
O15   O     O_2   0.279614 0.836029 0.072588 -0.191360
O16   O     O_2   0.147340 0.643641 0.046414 -0.229947
O17   O     O_3   0.156734 0.748323 0.180326 -0.522564
H3    H     H_    0.092710 0.817524 0.156327 0.408933
S4    S     S_3+6 0.254167 0.265204 0.864326 0.077405
O18   O     O_2   0.337999 0.159778 0.913032 -0.163436
O19   O     O_2   0.162925 0.317819 0.913130 -0.249373
O20   O     O_3   0.172747 0.195185 0.787480 -0.527225
H4    H     H_    0.100986 0.258804 0.769038 0.404889
C29   C     C_3   0.509222 0.751723 0.744255 -0.280889
C30   C     C_3   0.421733 0.852824 0.689753 -0.577056
H5    H     H_    0.327846 0.859879 0.706742 0.275485
H6    H     H_    0.462072 0.953274 0.691555 0.223990
H7    H     H_    0.407532 0.825201 0.628490 0.265909
H8    H     H_    0.553591 0.801116 0.796734 0.253779
H9    H     H_    0.591449 0.724540 0.719532 0.240099
C31   C     C_3   0.650122 0.317605 0.268790 -0.229013
C32   C     C_3   0.613090 0.173196 0.283382 -0.549732
H10   H     H_    0.545932 0.139927 0.233750 0.274407
H11   H     H_    0.697593 0.105239 0.292371 0.265193
H12   H     H_    0.569956 0.163654 0.336908 0.253095
H13   H     H_    0.729505 0.322421 0.236011 0.277566
H14   H     H_    0.689100 0.356937 0.325636 0.222439
C33   C     C_3   0.468235 0.767376 0.236883 -0.277793
C34   C     C_3   0.564061 0.812439 0.186043 -0.738341
H15   H     H_    0.648295 0.744033 0.197733 0.284783
H16   H     H_    0.524159 0.813536 0.122912 0.305937
H17   H     H_    0.592853 0.914912 0.199625 0.256530
H18   H     H_    0.385434 0.836872 0.223952 0.292858
H19   H     H_    0.510770 0.781378 0.297846 0.253521
C35   C     C_3   0.467059 0.243226 0.762091 -0.331400
C36   C     C_3   0.575884 0.206039 0.828537 -0.596988
H20   H     H_    0.659155 0.262740 0.819075 0.255281
H21   H     H_    0.551875 0.228907 0.886160 0.293897
H22   H     H_    0.599134 0.097040 0.831042 0.295601
H23   H     H_    0.394195 0.168758 0.763234 0.276334
H24   H     H_    0.497725 0.229767 0.706288 0.267075
S5    S     S_3+6 0.699809 0.139433 0.625024 0.122455
O21   O     O_2   0.677062 0.088473 0.704098 -0.338755
O22   O     O_2   0.826167 0.089514 0.612967 -0.123682
O23   O     O_3   0.713684 0.303655 0.633474 -0.532940
H25   H     H_    0.785982 0.312601 0.675527 0.371068
S6    S     S_3+6 0.280856 0.858362 0.388480 0.125695
O24   O     O_2   0.175137 0.871523 0.433740 -0.198061
O25   O     O_2   0.241158 0.927983 0.309236 -0.207517
O26   O     O_3   0.290444 0.699193 0.365904 -0.538029
H26   H     H_    0.204942 0.676861 0.342214 0.403538
S7    S     S_3+6 0.302068 0.177959 0.370668 0.142676
O27   O     O_2   0.335439 0.146904 0.292587 -0.298877
O28   O     O_2   0.173384 0.130896 0.375645 -0.150667
O29   O     O_3   0.281494 0.344626 0.364575 -0.534706
H27   H     H_    0.219121 0.366538 0.316776 0.381140
S8    S     S_3+6 0.724507 0.822379 0.609851 0.129594
O30   O     O_2   0.828469 0.841043 0.563802 -0.138984
O31   O     O_2   0.767170 0.873430 0.688862 -0.242910
O32   O     O_3   0.719705 0.657516 0.632489 -0.558571
H28   H     H_    0.781048 0.636216 0.680782 0.375477
S9    S     S_3+6 0.152052 0.243860 0.584515 0.100817
O33   O     O_2   0.220307 0.148363 0.541075 -0.240572
O34   O     O_2   0.244322 0.306601 0.643773 -0.350200
O35   O     O_3   0.053645 0.158442 0.631754 -0.450469
H29   H     H_    0.101492 0.075824 0.654573 0.417959
S10   S     S_3+6 0.866287 0.715977 0.390873 0.050810
O36   O     O_2   0.778541 0.637662 0.336151 -0.367771
O37   O     O_2   0.795298 0.835348 0.412492 -0.264968
O38   O     O_3   0.980356 0.769040 0.343303 -0.510672
H30   H     H_    0.937611 0.829090 0.299034 0.399386
S11   S     S_3+6 0.895189 0.223679 0.443700 0.110116
O39   O     O_2   0.762824 0.187122 0.445034 -0.303820
O40   O     O_2   0.911563 0.256458 0.360379 -0.315487
O41   O     O_3   0.984863 0.086488 0.476257 -0.357902
H31   H     H_    0.965261 0.022529 0.434935 0.432941
S12   S     S_3+6 0.094335 0.709039 0.589223 0.086871
O42   O     O_2   0.225206 0.674204 0.629057 -0.356381
O43   O     O_2   0.080483 0.856643 0.568204 -0.176151
O44   O     O_3   0.999416 0.667119 0.653359 -0.533766
H32   H     H_    0.026872 0.719724 0.699323 0.402820

loop_
_geom_bond_atom_site_label_1
_geom_bond_atom_site_label_2
_ccdc_geom_bond_type
C20   C35   S    
O29   H27   S    
S1    O9    D    
C14   C18   A    
O5    Zn1   S    
C34   H17   S    
C13   S1    S    
S10   O36   D    
C14   S2    S    
C15   C19   A    
S2    O14   S    
O3    Zn1   S    
C10   O7    A    
O4    Zn2   S    
O23   H25   S    
C34   H16   S    
C32   H10   S    
S9    O34   D    
C9    C22   S    
C31   H14   S    
C35   H23   S    
C1    O1    A    
S4    O18   D    
C2    O2    A    
C23   C26   A    
C32   H11   S    
C24   N1    A    
O35   H29   S    
C30   H6    S    
C26   S8    S    
O17   H3    S    
C29   H8    S    
C25   S7    S    
C6    S10   S    
C36   H20   S    
O1    Zn1   S    
C31   C32   S    
S7    O29   S    
O32   H28   S    
C23   S5    S    
C15   S3    S    
S5    O22   D    
C33   H18   S    
C16   C20   A    
C17   C29   S    
C16   C27   A    
O20   H4    S    
S1    O10   D    
S6    O24   D    
C1    C12   S    
C2    C11   S    
S8    O31   D    
S8    O30   D    
C4    C28   S    
C1    O4    A    
O26   H26   S    
S11   O40   D    
C10   C21   S    
S2    O13   D    
S3    O15   D    
C23   N2    A    
C7    S11   S    
O6    Zn2   S    
C19   C22   A    
C24   C25   A    
C5    C12   A    
S9    O35   S    
C6    C11   A    
C5    C7    A    
C8    S12   S    
C6    C8    A    
S6    O26   S    
C31   H13   S    
C17   C21   A    
S3    O16   D    
C32   H12   S    
C7    C11   A    
C33   C34   S    
C16   S4    S    
C30   H5    S    
C24   S6    S    
C29   H9    S    
S7    O27   D    
C8    C12   A    
N1    Zn1   S    
N2    Zn2   S    
C34   H15   S    
S5    O23   S    
S6    O25   D    
S12   O44   S    
C2    O3    A    
C36   H21   S    
O14   H2    S    
S1    O11   S    
C3    C4    T    
O11   H1    S    
S12   O43   D    
S11   O41   S    
C25   N2    A    
S2    O12   D    
C30   H7    S    
S7    O28   D    
C18   C22   A    
C33   H19   S    
S10   O37   D    
S11   O39   D    
S4    O20   S    
C13   C17   A    
S3    O17   S    
C19   C33   S    
O41   H31   S    
O7    Zn1   S    
O38   H30   S    
O8    Zn2   S    
C15   C28   A    
C5    S9    S    
C35   H24   S    
C3    C27   S    
C9    O8    A    
S4    O19   D    
O2    Zn2   S    
C29   C30   S    
S10   O38   S    
C36   H22   S    
C20   C21   A    
C26   N1    A    
C35   C36   S    
C9    O5    A    
C13   C27   A    
C10   O6    A    
C14   C28   A    
S5    O21   D    
S9    O33   D    
C18   C31   S    
S8    O32   S    
O44   H32   S    
S12   O42   D    
