data_mof_unit_21930.cif
_audit_creation_date              2013-03-05T16:40:03-0500
_audit_creation_method            fapswitch 2.2
_symmetry_space_group_name_H-M    P1
_symmetry_Int_Tables_number       1
_space_group_crystal_system       triclinic
_cell_length_a                    8.954534
_cell_length_b                    17.800333
_cell_length_c                    16.684915
_cell_angle_alpha                 91.789409
_cell_angle_beta                  98.506535
_cell_angle_gamma                 97.220135
_cell_volume                      2605.99164311

loop_
_atom_site_label
_atom_site_type_symbol
_atom_site_description
_atom_site_fract_x
_atom_site_fract_y
_atom_site_fract_z
_atom_type_partial_charge
O1    O     O_R   0.499990 0.391240 0.567930 -0.553569
O2    O     O_R   0.500010 0.608760 0.432070 -0.535751
O3    O     O_R   0.500000 0.391270 0.432120 -0.558572
O4    O     O_R   0.500000 0.608730 0.567880 -0.552874
C1    C     C_R   0.510146 0.356145 0.499603 0.890991
C2    C     C_R   0.494314 0.644793 0.500112 0.823006
O5    O     O_R   0.274830 0.499990 0.552240 -0.512971
O6    O     O_R   0.725170 0.500010 0.447760 -0.552052
O7    O     O_R   0.274840 0.500020 0.416420 -0.514146
O8    O     O_R   0.725160 0.499980 0.583580 -0.526950
C3    C     C_R   0.203001 0.497058 0.480658 0.860291
C4    C     C_R   0.796593 0.502119 0.521472 0.906620
Cu1   Cu    Cu3+1 0.499990 0.499980 0.580420 1.144192
Cu2   Cu    Cu3+1 0.500010 0.500020 0.419580 1.108918
C5    C     C_2   0.037148 0.478259 0.478902 0.160382
C6    C     C_2   0.963806 0.510564 0.535323 0.027009
C7    C     C_R   0.518260 0.851593 0.577480 0.307453
C8    C     C_R   0.509317 0.148716 0.431815 0.312136
C9    C     C_R   0.478341 0.772065 0.570229 -0.197541
C10   C     C_R   0.508955 0.227684 0.427641 -0.154073
C11   C     C_R   0.499188 0.729712 0.500365 -0.198729
C12   C     C_R   0.539921 0.275198 0.499651 -0.102464
C13   C     C_R   0.530834 0.770259 0.431211 -0.061535
C14   C     C_R   0.611630 0.245890 0.571446 -0.023516
C15   C     C_R   0.568145 0.849539 0.437645 -0.118525
C16   C     C_R   0.625475 0.168178 0.574310 -0.111786
C17   C     C_R   0.562183 0.889937 0.510482 -0.048207
C18   C     C_R   0.569528 0.119292 0.505609 -0.040893
C19   C     C_1   0.577118 0.971652 0.511854 0.132077
C20   C     C_1   0.578117 0.039182 0.510194 0.127017
C21   C     C_R   0.520252 0.567255 0.835002 0.233055
C22   C     C_R   0.372309 0.475266 0.156069 0.127472
C23   C     C_R   0.550223 0.565476 0.752499 0.375539
C24   C     C_R   0.377895 0.464693 0.241642 0.361072
N1    N     N_R   0.499960 0.499970 0.701210 -0.293164
N2    N     N_R   0.500040 0.500030 0.298790 -0.322706
C25   C     C_R   0.450315 0.434552 0.739932 0.414250
C26   C     C_R   0.624598 0.539276 0.266898 0.379470
C27   C     C_R   0.487957 0.431493 0.825900 0.213359
C28   C     C_R   0.634878 0.532030 0.180743 0.241377
C29   C     C_R   0.504410 0.498666 0.874166 -0.224487
C30   C     C_R   0.505787 0.500896 0.125794 -0.243776
C31   C     C_1   0.506118 0.497119 0.962989 0.339399
C32   C     C_1   0.506547 0.497972 0.036648 0.311567
S1    S     S_3+6 0.956021 0.384437 0.440991 0.050700
O9    O     O_2   0.075520 0.332285 0.452535 -0.223432
O10   O     O_2   0.835485 0.353630 0.488967 -0.417366
O11   O     O_3   0.878076 0.381589 0.342761 -0.404190
H1    H     H_    0.775909 0.397437 0.342418 0.360072
S2    S     S_3+6 0.046862 0.567002 0.626927 0.072088
O12   O     O_2   0.207941 0.562222 0.663939 -0.253310
O13   O     O_2   0.033148 0.648295 0.609669 -0.274904
O14   O     O_3   0.945557 0.540401 0.700634 -0.388960
H2    H     H_    0.964187 0.487541 0.710605 0.365176
S3    S     S_3+6 0.518267 0.904960 0.670190 0.074332
O15   O     O_2   0.401488 0.958778 0.656432 -0.225605
O16   O     O_2   0.485319 0.856756 0.739416 -0.174838
O17   O     O_3   0.691039 0.955526 0.696413 -0.481292
H3    H     H_    0.763091 0.917403 0.701197 0.371904
S4    S     S_3+6 0.439062 0.087934 0.343228 0.063164
O18   O     O_2   0.368167 0.011836 0.365269 -0.244991
O19   O     O_2   0.320341 0.122065 0.287806 -0.214663
O20   O     O_3   0.585073 0.076008 0.293455 -0.458945
H4    H     H_    0.627073 0.127805 0.281120 0.365464
C33   C     C_1   0.393383 0.736513 0.628499 0.467923
N3    N     N_1   0.324614 0.709898 0.676159 -0.041076
C34   C     C_1   0.499949 0.259736 0.348626 0.400728
N4    N     N_1   0.495198 0.284754 0.285207 -0.184505
C35   C     C_1   0.509555 0.733237 0.350782 0.410454
N5    N     N_1   0.490776 0.704490 0.286245 -0.219918
C36   C     C_1   0.687849 0.296493 0.639396 0.396437
N6    N     N_1   0.749527 0.336829 0.693207 -0.206833
C37   C     C_1   0.613710 0.889452 0.368724 0.356546
N7    N     N_1   0.650704 0.920611 0.313621 -0.101583
C38   C     C_1   0.698937 0.139163 0.648261 0.367895
N8    N     N_1   0.758220 0.117068 0.707613 -0.106607
S5    S     S_3+6 0.518475 0.654496 0.891738 0.144534
O21   O     O_2   0.679509 0.689507 0.921697 -0.156982
O22   O     O_2   0.438237 0.708673 0.839425 -0.160613
O23   O     O_3   0.426407 0.641658 0.972013 -0.523760
H5    H     H_    0.450541 0.690370 0.004490 0.396697
S6    S     S_3+6 0.201059 0.457310 0.082130 0.135286
O24   O     O_2   0.204504 0.384522 0.034790 -0.142049
O25   O     O_2   0.056027 0.451408 0.117512 -0.121271
O26   O     O_3   0.195901 0.527517 0.017070 -0.460058
H6    H     H_    0.189527 0.573436 0.050830 0.363855
S7    S     S_3+6 0.695176 0.639716 0.733857 0.135363
O27   O     O_2   0.645734 0.716223 0.745266 -0.257207
O28   O     O_2   0.831459 0.635917 0.797337 -0.144010
O29   O     O_3   0.754193 0.636611 0.643649 -0.442773
H7    H     H_    0.773805 0.690139 0.629114 0.365934
S8    S     S_3+6 0.221394 0.403219 0.267601 0.150149
O30   O     O_2   0.096705 0.450441 0.275883 -0.140954
O31   O     O_2   0.165847 0.343068 0.200733 -0.197844
O32   O     O_3   0.256130 0.356758 0.351624 -0.485026
H8    H     H_    0.211044 0.303426 0.337276 0.390105
S9    S     S_3+6 0.301219 0.361593 0.694993 0.114189
O33   O     O_2   0.364582 0.296497 0.658998 -0.245631
O34   O     O_2   0.214643 0.331465 0.760401 -0.215065
O35   O     O_3   0.172770 0.391644 0.624537 -0.498667
H9    H     H_    0.079212 0.355036 0.622683 0.384426
S10   S     S_3+6 0.780219 0.602133 0.326510 0.078632
O36   O     O_2   0.915199 0.559395 0.339699 -0.256497
O37   O     O_2   0.818652 0.669984 0.278431 -0.221639
O38   O     O_3   0.762844 0.638930 0.417665 -0.540788
H10   H     H_    0.864328 0.666881 0.439296 0.363335
S11   S     S_3+6 0.513001 0.344805 0.873760 0.120167
O39   O     O_2   0.654585 0.357401 0.936005 -0.219417
O40   O     O_2   0.378767 0.320825 0.915793 -0.173156
O41   O     O_3   0.531522 0.275504 0.806642 -0.461651
H11   H     H_    0.545266 0.230632 0.839239 0.400621
S12   S     S_3+6 0.798397 0.570409 0.135270 0.135552
O42   O     O_2   0.813066 0.522070 0.062125 -0.224482
O43   O     O_2   0.771530 0.647864 0.107713 -0.216952
O44   O     O_3   0.967228 0.577874 0.196034 -0.390321
H12   H     H_    0.038654 0.610403 0.167707 0.369738

loop_
_geom_bond_atom_site_label_1
_geom_bond_atom_site_label_2
_geom_bond_distance
_ccdc_geom_bond_type
S3    O15   1.502810 D    
C17   C19   1.443009 S    
S10   O36   1.500328 D    
S11   O40   1.502659 D    
C37   N7    1.156889 T    
C13   C35   1.452234 S    
C10   C34   1.448166 S    
O32   H8    0.991145 S    
O7    Cu2   2.009169 S    
C25   S9    1.799573 S    
S9    O33   1.499301 D    
C27   C29   1.400153 A    
S5    O21   1.502996 D    
C27   S11   1.783260 S    
S4    O20   1.680530 S    
O1    C1    1.303329 A    
N1    C25   1.404575 A    
C6    S2    1.810632 S    
Cu1   N1    2.015416 S    
Cu2   N2    2.015416 S    
S1    O11   1.680291 S    
C5    C6    1.375589 D    
S10   O38   1.673270 S    
S4    O19   1.503656 D    
S1    O10   1.496906 D    
O4    Cu1   1.953536 S    
O41   H11   0.990434 S    
S8    O30   1.498868 D    
C23   N1    1.409364 A    
C3    C5    1.476504 S    
C1    C12   1.497934 S    
C4    C6    1.468617 S    
S2    O13   1.500720 D    
S11   O39   1.503558 D    
C21   C23   1.441053 A    
C7    S3    1.789791 S    
C8    C10   1.409935 A    
C28   C30   1.406274 A    
Cu1   Cu2   2.683652 S    
C29   C31   1.480977 S    
O2    C2    1.297202 A    
C30   C32   1.487739 S    
S12   O43   1.503463 D    
S12   O42   1.502440 D    
S9    O34   1.503976 D    
C21   S5    1.796340 S    
S5    O22   1.499759 D    
S2    O14   1.678672 S    
C34   N4    1.157868 T    
C7    C17   1.407274 A    
C8    C18   1.412752 A    
O4    C2    1.315166 A    
S2    O12   1.496562 D    
O17   H3    0.990631 S    
O26   H6    0.990521 S    
C2    C11   1.506578 S    
S8    O32   1.659570 S    
S4    O18   1.502381 D    
C22   C24   1.440306 A    
O5    C3    1.266202 A    
C38   N8    1.156910 T    
C19   C20   1.202189 T    
O6    C4    1.296700 A    
S8    O31   1.505298 D    
C16   C38   1.451537 S    
S10   O37   1.502788 D    
O7    C3    1.328286 A    
O3    Cu2   1.953536 S    
O8    C4    1.294946 A    
C8    S4    1.790242 S    
O11   H1    0.989952 S    
C10   C12   1.419433 A    
C33   N3    1.153722 T    
S6    O25   1.497520 D    
S3    O16   1.502160 D    
C31   C32   1.228043 T    
S11   O41   1.680301 S    
C12   C14   1.419547 A    
S3    O17   1.679341 S    
O1    Cu1   1.940312 S    
C5    S1    1.791657 S    
N2    C26   1.420609 A    
S9    O35   1.668808 S    
S5    O23   1.680547 S    
O6    Cu2   2.001447 S    
C21   C29   1.404073 A    
C9    C11   1.416646 A    
C14   C16   1.405925 A    
O23   H5    0.990502 S    
O3    C1    1.301890 A    
O8    Cu1   2.009170 S    
O14   H2    0.990898 S    
C15   C17   1.403960 A    
S6    O26   1.681263 S    
C22   S6    1.807790 S    
O38   H10   0.990811 S    
C16   C18   1.407262 A    
C11   C13   1.424745 A    
C23   S7    1.800514 S    
C36   N6    1.157592 T    
C26   S10   1.819769 S    
C26   C28   1.456721 A    
C28   S12   1.815468 S    
O29   H7    0.991197 S    
C18   C20   1.441457 S    
O35   H9    0.990598 S    
C7    C9    1.412698 A    
C24   N2    1.407905 A    
C9    C33   1.435505 S    
C15   C37   1.452785 S    
C13   C15   1.405721 A    
C35   N5    1.157578 T    
O2    Cu2   1.940312 S    
C24   S8    1.781182 S    
O20   H4    0.990701 S    
S1    O9    1.497933 D    
O5    Cu1   2.001446 S    
S7    O27   1.499063 D    
C25   C27   1.428440 A    
S6    O24   1.502302 D    
S7    O29   1.668866 S    
S7    O28   1.502822 D    
C22   C30   1.395638 A    
S12   O44   1.678902 S    
O44   H12   0.990540 S    
C14   C36   1.454406 S    
