data_mof_unit_47610.cif
_audit_creation_date              2013-03-05T16:04:38-0500
_audit_creation_method            fapswitch 2.2
_symmetry_space_group_name_H-M    P1
_symmetry_Int_Tables_number       1
_space_group_crystal_system       triclinic
_cell_length_a                    9.679219
_cell_length_b                    10.85678
_cell_length_c                    15.749353
_cell_angle_alpha                 90.131114
_cell_angle_beta                  71.429253
_cell_angle_gamma                 90.799898
_cell_volume                      1568.69101457

loop_
_atom_site_label
_atom_site_type_symbol
_atom_site_description
_atom_site_fract_x
_atom_site_fract_y
_atom_site_fract_z
_atom_type_partial_charge
O1    O     O_R   0.118740 0.319660 0.500000 -0.593738
O2    O     O_R   0.881260 0.680340 0.500000 -0.595939
O3    O     O_R   0.881170 0.319630 0.500010 -0.542963
O4    O     O_R   0.118830 0.680370 0.499990 -0.544915
C1    C     C_R   0.998616 0.262606 0.500119 0.816674
C2    C     C_R   0.001359 0.737382 0.499948 0.811379
O5    O     O_R   0.055570 0.500030 0.629830 -0.586853
O6    O     O_R   0.944430 0.499970 0.370170 -0.587323
O7    O     O_R   0.818000 0.500000 0.629840 -0.589569
O8    O     O_R   0.182000 0.500000 0.370160 -0.587599
C3    C     C_R   0.914947 0.502407 0.671435 0.786721
C4    C     C_R   0.085128 0.502465 0.328573 0.787644
Cu1   Cu    Cu3+1 0.140660 0.500020 0.500000 0.944366
Cu2   Cu    Cu3+1 0.859340 0.499980 0.500000 0.942396
C5    C     C_R   0.861920 0.514336 0.768845 -0.042683
C6    C     C_R   0.138564 0.514425 0.231153 -0.043274
C7    C     C_R   0.894724 0.488422 0.912439 -0.136365
C8    C     C_R   0.105164 0.488144 0.087612 -0.136472
C9    C     C_R   0.942449 0.469266 0.820574 -0.227198
C10   C     C_R   0.056833 0.468933 0.179533 -0.230640
C11   C     C_R   0.726841 0.568394 0.810724 -0.241218
C12   C     C_R   0.275249 0.568819 0.189157 -0.235765
C13   C     C_R   0.673731 0.581522 0.904697 0.048710
C14   C     C_R   0.328930 0.581691 0.095135 0.048794
C15   C     C_R   0.767889 0.554188 0.954186 0.114852
C16   C     C_R   0.233954 0.554220 0.045720 0.115861
C17   C     C_R   0.525689 0.605144 0.952204 0.025464
C18   C     C_R   0.477786 0.605145 0.047567 0.025748
C19   C     C_R   0.582758 0.611092 0.091371 -0.272006
C20   C     C_R   0.420883 0.611380 0.908407 -0.275258
C21   C     C_R   0.727195 0.585653 0.045361 0.214614
C22   C     C_R   0.275624 0.585837 0.954487 0.212195
H1    H     H_    0.337325 0.599596 0.231255 0.141192
H2    H     H_    0.665501 0.598691 0.768564 0.147046
H3    H     H_    0.955898 0.418465 0.210189 0.143821
H4    H     H_    0.041961 0.419122 0.790052 0.138205
H5    H     H_    0.954241 0.446233 0.950404 0.152233
H6    H     H_    0.044508 0.445675 0.049733 0.152045
H7    H     H_    0.555557 0.627198 0.162283 0.139541
H8    H     H_    0.448555 0.627988 0.837505 0.144509
C23   C     C_R   0.864864 0.059631 0.520505 0.263872
C24   C     C_R   0.135087 0.940316 0.479789 0.264233
C25   C     C_R   0.870053 0.932008 0.521600 -0.309890
C26   C     C_R   0.129882 0.067939 0.478711 -0.309109
H9    H     H_    0.768207 0.880319 0.538726 0.169634
H10   H     H_    0.231727 0.119625 0.461603 0.171184
C27   C     C_R   0.003485 0.871505 0.500677 -0.097729
C28   C     C_R   0.996463 0.128451 0.499552 -0.100458
C29   C     C_R   0.540697 0.434012 0.562011 -0.026416
C30   C     C_R   0.459295 0.566026 0.437992 -0.020511
H11   H     H_    0.568493 0.380366 0.611906 0.132409
H12   H     H_    0.431514 0.619673 0.388082 0.123032
C31   C     C_R   0.393078 0.433921 0.561931 -0.039400
C32   C     C_R   0.606921 0.566107 0.438069 -0.042169
H13   H     H_    0.312003 0.380182 0.611813 0.117126
H14   H     H_    0.687992 0.619839 0.388166 0.122763
N1    N     N_R   0.352080 0.500030 0.499980 -0.153745
N2    N     N_R   0.647920 0.499970 0.500020 -0.155747
N3    N     N_2   0.830102 0.592170 0.091988 -0.426490
H15   H     H_    0.799722 0.536866 0.148230 0.241183
C33   C     C_3   0.862694 0.716654 0.113815 -0.657861
H16   H     H_    0.958483 0.716553 0.138053 0.238200
H17   H     H_    0.768610 0.754881 0.167525 0.200929
H18   H     H_    0.887678 0.777200 0.053971 0.231206
N4    N     N_2   0.172776 0.593029 0.907995 -0.426949
H19   H     H_    0.201922 0.539329 0.851113 0.241431
C34   C     C_3   0.142637 0.717936 0.887685 -0.650231
H20   H     H_    0.047262 0.718021 0.863048 0.237342
H21   H     H_    0.237776 0.758207 0.834764 0.204296
H22   H     H_    0.118181 0.776588 0.948354 0.230083
N5    N     N_2   0.726649 0.117142 0.542686 -0.413449
H23   H     H_    0.651639 0.081026 0.599660 0.234980
C35   C     C_3   0.667836 0.123165 0.469050 -0.664641
H24   H     H_    0.643783 0.028905 0.449227 0.206454
H25   H     H_    0.746251 0.170544 0.410481 0.243438
H26   H     H_    0.564997 0.175984 0.489928 0.216602
N6    N     N_2   0.273344 0.882847 0.457528 -0.414704
H27   H     H_    0.348437 0.919349 0.400742 0.234545
C36   C     C_3   0.331926 0.876201 0.531243 -0.667636
H28   H     H_    0.353998 0.970254 0.552296 0.206880
H29   H     H_    0.435787 0.824978 0.509879 0.215416
H30   H     H_    0.254385 0.826994 0.589118 0.245665

loop_
_geom_bond_atom_site_label_1
_geom_bond_atom_site_label_2
_geom_bond_distance
_ccdc_geom_bond_type
C15   C21   1.405362 A    
C16   C22   1.405120 A    
C35   H25   1.112149 S    
C35   H24   1.112259 S    
C8    C16   1.399010 A    
N6    H27   1.031857 S    
O5    C3    1.309769 A    
C30   C32   1.429277 A    
O1    C1    1.309229 A    
C18   C19   1.398885 A    
C14   C16   1.409510 A    
C9    H4    1.083381 S    
Cu1   N1    2.046277 S    
C21   N3    1.414238 S    
O4    Cu1   1.972325 S    
C33   H17   1.111469 S    
C10   H3    1.083337 S    
C3    C5    1.460544 S    
C4    C6    1.460147 S    
C29   H11   1.081772 S    
C30   H12   1.081904 S    
C13   C17   1.416114 A    
C6    C10   1.388383 A    
C23   N5    1.423471 S    
N6    C36   1.447547 S    
N3    H15   1.031099 S    
Cu1   Cu2   2.722953 S    
C17   C20   1.399021 A    
C23   C25   1.387529 A    
O2    C2    1.309252 A    
C24   C26   1.387535 A    
C26   H10   1.084112 S    
C31   H13   1.081686 S    
Cu2   N2    2.046278 S    
C1    C28   1.456405 S    
C32   H14   1.081781 S    
N3    C33   1.448889 S    
C2    C27   1.456077 S    
C34   H20   1.109482 S    
O4    C2    1.302338 A    
C36   H29   1.110130 S    
C31   N1    1.371986 A    
C11   H2    1.076629 S    
O6    Cu2   1.945924 S    
N4    C34   1.448741 S    
C29   N2    1.371178 A    
C34   H21   1.111481 S    
C33   H18   1.109994 S    
C5    C9    1.388413 A    
O7    Cu2   1.954618 S    
O7    C3    1.304289 A    
C5    C11   1.399745 A    
O6    C4    1.309703 A    
C19   H7    1.077165 S    
C20   H8    1.077147 S    
C7    H5    1.061698 S    
C25   H9    1.084134 S    
O3    Cu2   1.972325 S    
O8    C4    1.304159 A    
C11   C13   1.411213 A    
C35   H26   1.111027 S    
C12   C14   1.411053 A    
O1    Cu1   1.966643 S    
N5    C35   1.447470 S    
C32   N2    1.372159 A    
C12   H1    1.076736 S    
C6    C12   1.399692 A    
C30   N1    1.371329 A    
C14   C18   1.416031 A    
O3    C1    1.302480 A    
O8    Cu1   1.954619 S    
C36   H30   1.111227 S    
C34   H22   1.109884 S    
C7    C15   1.399092 A    
C8    H6    1.061815 S    
N5    H23   1.031859 S    
C19   C21   1.385815 A    
C20   C22   1.385821 A    
C29   C31   1.429225 A    
C7    C9    1.387624 A    
C23   C28   1.412970 A    
C8    C10   1.387596 A    
C24   C27   1.412985 A    
C13   C15   1.409682 A    
C33   H16   1.109433 S    
O2    Cu2   1.966643 S    
C36   H28   1.111631 S    
O5    Cu1   1.945924 S    
C24   N6    1.423555 S    
N4    H19   1.031151 S    
C17   C18   1.423780 A    
C25   C27   1.399889 A    
C26   C28   1.399904 A    
C22   N4    1.414191 S    
