data_mof_unit_10189.cif
_audit_creation_date              2012-12-10T20:56:24-0500
_audit_creation_method            fapswitch 2.2
_symmetry_space_group_name_H-M    P1
_symmetry_Int_Tables_number       1
_space_group_crystal_system       triclinic
_cell_length_a                    13.069378
_cell_length_b                    15.096105
_cell_length_c                    15.845432
_cell_angle_alpha                 90.012358
_cell_angle_beta                  89.146738
_cell_angle_gamma                 68.915222
_cell_volume                      2916.57078144

loop_
_atom_site_label
_atom_site_type_symbol
_atom_type_description
_atom_site_fract_x
_atom_site_fract_y
_atom_site_fract_z
_atom_type_partial_charge
C1    C     C_R   0.499628 0.500112 0.661064 0.873045
C2    C     C_R   0.979897 0.462651 0.513606 0.055842
C3    C     C_R   0.885488 0.461336 0.472477 -0.070883
C4    C     C_R   0.023733 0.533167 0.490501 0.063510
C5    C     C_R   0.971238 0.602004 0.428710 -0.081252
C6    C     C_R   0.888412 0.589412 0.381236 -0.181334
C7    C     C_R   0.851290 0.515802 0.398222 0.372717
C8    C     C_R   0.121549 0.534135 0.523602 -0.219062
C9    C     C_R   0.120813 0.662263 0.430169 0.017423
C10   C     C_R   0.826228 0.408641 0.508556 -0.129274
C11   C     C_R   0.558486 0.406144 0.043406 0.268753
C12   C     C_R   0.705992 0.446677 0.501299 0.945773
C13   C     C_R   0.511284 0.493944 0.086686 -0.211440
C14   C     C_R   0.463658 0.579949 0.043525 0.442112
C15   C     C_R   0.461970 0.578252 0.956392 -0.301455
C16   C     C_R   0.500976 0.492208 0.913078 -0.122406
C17   C     C_R   0.544338 0.404581 0.955161 0.368551
C18   C     C_1   0.505815 0.496247 0.175885 0.230717
C19   C     C_1   0.499625 0.496770 0.824151 0.146862
C20   C     C_1   0.499396 0.499618 0.749367 -0.120840
C21   C     C_1   0.500820 0.498839 0.250676 0.003615
C22   C     C_R   0.582847 0.022256 0.529914 -0.217435
C23   C     C_R   0.497762 0.500529 0.338986 0.946231
C24   C     C_R   0.492305 0.097625 0.500266 -0.145970
C25   C     C_R   0.400261 0.078213 0.470844 0.388317
C26   C     C_R   0.404799 0.981687 0.466315 0.017395
C27   C     C_R   0.497024 0.906125 0.498146 0.019564
C28   C     C_R   0.585906 0.927941 0.530461 0.184687
C29   C     C_1   0.497127 0.193903 0.500113 0.215545
C30   C     C_1   0.499120 0.807279 0.499300 0.121871
C31   C     C_R   0.294366 0.553102 0.498184 0.886671
C32   C     C_R   0.011978 0.674675 0.407877 0.453390
C33   C     C_R   0.175652 0.588647 0.486963 -0.126454
C34   C     C_R   0.877362 0.334894 0.566974 0.146665
C35   C     C_R   0.981965 0.324875 0.597151 0.256547
C36   C     C_R   0.028071 0.392035 0.574605 -0.132995
H1    H     H_    0.428515 0.644106 0.921742 0.217073
H2    H     H_    0.652536 0.037119 0.553505 0.179062
H3    H     H_    0.860713 0.630056 0.324347 0.231456
H4    H     H_    0.165375 0.485192 0.571383 0.157090
H5    H     H_    0.102473 0.386177 0.605893 0.132383
N1    N     N_1   0.500030 0.729450 0.499980 -0.085363
N2    N     N_1   0.499970 0.270550 0.500020 -0.063937
O1    O     O_R   0.500000 0.426350 0.621980 -0.608321
O2    O     O_R   0.499950 0.573700 0.621980 -0.613747
O3    O     O_R   0.653660 0.389750 0.499980 -0.595352
O4    O     O_R   0.653610 0.537090 0.499980 -0.605294
O5    O     O_R   0.500050 0.426300 0.378020 -0.575610
O6    O     O_R   0.500000 0.573650 0.378020 -0.578859
O7    O     O_R   0.346390 0.462910 0.500020 -0.575623
O8    O     O_R   0.346340 0.610250 0.500020 -0.625533
Zn1   Zn    Zn3+2 0.500030 0.401620 0.500000 1.048521
Zn2   Zn    Zn3+2 0.499970 0.598380 0.500000 1.008194
C37   C     C_3   0.181833 0.719662 0.388756 -0.670117
H6    H     H_    0.259410 0.671283 0.359299 0.217363
H7    H     H_    0.136835 0.765132 0.336738 0.296221
H8    H     H_    0.200300 0.765295 0.436605 0.235472
S1    S     S_3+6 0.637515 0.301831 0.099794 0.126274
O9    O     O_2   0.688653 0.327191 0.175951 -0.219615
O10   O     O_2   0.563235 0.250926 0.128171 -0.232229
O11   O     O_3   0.739579 0.228994 0.038816 -0.442771
H9    H     H_    0.771491 0.170325 0.072310 0.402680
S2    S     S_3+6 0.407094 0.690427 0.097420 0.060391
O12   O     O_2   0.372322 0.771510 0.036172 -0.244389
O13   O     O_2   0.309177 0.691191 0.148860 -0.299714
O14   O     O_3   0.501686 0.703149 0.162266 -0.503822
H10   H     H_    0.460556 0.756670 0.200229 0.390726
C38   C     C_3   0.686299 0.853212 0.566577 -0.787516
H11   H     H_    0.686399 0.780090 0.560034 0.240988
H12   H     H_    0.761072 0.855523 0.533988 0.280988
H13   H     H_    0.691408 0.867942 0.634725 0.235834
S3    S     S_3+6 0.281197 0.174328 0.437387 0.049410
O15   O     O_2   0.290231 0.185379 0.343650 -0.195118
O16   O     O_2   0.177992 0.155481 0.456758 -0.291775
O17   O     O_3   0.269817 0.277371 0.484357 -0.526819
H14   H     H_    0.266870 0.265068 0.545573 0.327089
C39   C     C_3   0.311814 0.959431 0.426716 -0.697823
H15   H     H_    0.287509 0.998645 0.366619 0.289667
H16   H     H_    0.334231 0.883411 0.410043 0.206821
H17   H     H_    0.240707 0.978763 0.471198 0.258427
S4    S     S_3+6 0.927046 0.779551 0.355598 0.012483
O18   O     O_2   0.949392 0.864223 0.388358 -0.287058
O19   O     O_2   0.951843 0.768803 0.262425 -0.252839
O20   O     O_3   0.793420 0.798222 0.372454 -0.576665
H18   H     H_    0.753311 0.859622 0.344956 0.404683
C40   C     C_3   0.818309 0.271198 0.599379 -0.787508
H19   H     H_    0.867570 0.214153 0.641814 0.245917
H20   H     H_    0.743413 0.313995 0.635591 0.236838
H21   H     H_    0.795899 0.235360 0.545354 0.262597
C41   C     C_3   0.043332 0.247167 0.657602 -0.815132
H22   H     H_    0.995703 0.254794 0.717516 0.252005
H23   H     H_    0.057512 0.176704 0.628564 0.264727
H24   H     H_    0.124936 0.249306 0.673412 0.229576
S5    S     S_3+6 0.788961 0.480362 0.312525 0.072239
O21   O     O_2   0.758025 0.395905 0.332261 -0.248638
O22   O     O_2   0.689335 0.562659 0.286958 -0.302125
O23   O     O_3   0.878723 0.451248 0.230776 -0.454664
H25   H     H_    0.873476 0.512368 0.204784 0.369749
S6    S     S_3+6 0.575125 0.296439 0.896660 0.092016
O24   O     O_2   0.691103 0.266072 0.863519 -0.266876
O25   O     O_2   0.562412 0.219126 0.950633 -0.182418
O26   O     O_3   0.490070 0.312312 0.814685 -0.565698
H26   H     H_    0.523643 0.255444 0.778405 0.379002

loop_
_geom_bond_atom_site_label_1
_geom_bond_atom_site_label_2
_ccdc_geom_bond_type
S2    O13   D    
C18   C21   T    
C35   C36   A    
C4    C8    A    
O23   H25   S    
C39   H15   S    
C32   S4    S    
C26   C27   A    
C13   C18   S    
C28   C38   S    
C3    C7    A    
S3    O17   S    
N1    Zn2   S    
C5    C6    A    
C40   H20   S    
N2    Zn1   S    
C23   O6    A    
S1    O10   D    
C15   C16   A    
C22   H2    S    
O3    Zn1   S    
C34   C35   A    
C34   C40   S    
C24   C29   S    
C15   H1    S    
C9    C32   A    
C19   C20   T    
C38   H11   S    
O7    Zn1   S    
C31   C33   S    
C11   S1    S    
O4    Zn2   S    
C5    C32   A    
O1    Zn1   S    
S1    O11   S    
O14   H10   S    
S2    O14   S    
O2    Zn2   S    
C22   C28   A    
C13   C14   A    
C29   N2    T    
C27   C30   S    
C9    C33   A    
C36   H5    S    
O26   H26   S    
C12   O4    A    
S4    O19   D    
S4    O18   D    
C39   H16   S    
C16   C19   S    
C37   H7    S    
C26   C39   S    
C24   C25   A    
S3    O16   D    
C40   H19   S    
C16   C17   A    
S5    O23   S    
C25   C26   A    
O8    Zn2   S    
C2    C4    A    
O17   H14   S    
C1    O1    A    
C41   H23   S    
S6    O24   D    
S5    O21   D    
C10   C34   A    
C25   S3    S    
O20   H18   S    
S5    O22   D    
C4    C5    A    
C17   S6    S    
C10   C12   S    
C12   O3    A    
S6    O25   D    
C21   C23   S    
C22   C24   A    
C31   O7    A    
S4    O20   S    
C41   H24   S    
C39   H17   S    
C2    C36   A    
C7    S5    S    
C37   H6    S    
C11   C17   A    
C1    C20   S    
C23   O5    A    
C14   C15   A    
C31   O8    A    
S3    O15   D    
C40   H21   S    
C6    C7    A    
C2    C3    A    
S1    O9    D    
C3    C10   A    
C11   C13   A    
C1    O2    A    
C41   H22   S    
C38   H13   S    
O6    Zn2   S    
C14   S2    S    
C8    C33   A    
O11   H9    S    
S2    O12   D    
C35   C41   S    
O5    Zn1   S    
S6    O26   S    
C38   H12   S    
C27   C28   A    
C6    H3    S    
C30   N1    T    
C9    C37   S    
C8    H4    S    
C37   H8    S    
