data_mof_unit_28075.cif
_audit_creation_date              2012-10-26T17:13:07-0400
_audit_creation_method            fapswitch 2.2
_symmetry_space_group_name_H-M    P1
_symmetry_Int_Tables_number       1
_space_group_crystal_system       triclinic
_cell_length_a                    16.810038
_cell_length_b                    16.90847
_cell_length_c                    16.711161
_cell_angle_alpha                 67.577377
_cell_angle_beta                  67.744023
_cell_angle_gamma                 67.712098
_cell_volume                      3907.60190435

loop_
_atom_site_label
_atom_site_type_symbol
_atom_type_description
_atom_site_fract_x
_atom_site_fract_y
_atom_site_fract_z
_atom_type_partial_charge
C1    C     C_R   0.309802 0.005309 0.433022 0.001898
C2    C     C_R   0.322756 0.451862 0.955248 0.015232
C3    C     C_R   0.523617 0.406310 0.029590 0.028682
C4    C     C_R   0.038293 0.451064 0.575796 0.027189
C5    C     C_R   0.989457 0.542238 0.414023 0.026259
C6    C     C_3   0.282395 0.892732 0.287174 -0.762275
C7    C     C_3   0.722786 0.104725 0.722124 -0.749983
C8    C     C_3   0.892960 0.281398 0.285573 -0.777429
C9    C     C_3   0.105841 0.721064 0.720536 -0.767784
C10   C     C_3   0.284994 0.280301 0.894242 -0.776682
C11   C     C_3   0.715207 0.719790 0.105664 -0.774551
C12   C     C_R   0.040027 0.680331 0.547100 0.008334
C13   C     C_R   0.002015 0.310492 0.434229 0.002844
C14   C     C_R   0.449110 0.008036 0.445599 -0.036534
C15   C     C_R   0.540726 0.038218 0.537672 -0.037902
C16   C     C_R   0.000049 0.450317 0.448463 -0.035444
C17   C     C_R   0.028717 0.542750 0.540707 -0.036006
C18   C     C_R   0.449767 0.452504 0.993594 -0.035582
C19   C     C_R   0.549838 0.547093 0.007610 -0.035790
C20   C     C_R   0.029173 0.828184 0.564359 0.838070
C21   C     C_R   0.678236 0.049852 0.544618 0.007435
C22   C     C_R   0.980353 0.170185 0.431945 0.814105
C23   C     C_R   0.828110 0.563596 0.030470 0.807378
C24   C     C_R   0.171884 0.436344 0.969655 0.805621
C25   C     C_R   0.563356 0.032107 0.827578 0.814413
C26   C     C_R   0.436185 0.970403 0.172075 0.815694
C27   C     C_R   0.431404 0.169915 0.981750 0.818875
C28   C     C_R   0.568567 0.830030 0.018386 0.821978
C29   C     C_R   0.969826 0.436252 0.171982 0.809731
C30   C     C_R   0.031471 0.563540 0.827709 0.808867
C31   C     C_R   0.170224 0.980525 0.432012 0.817270
C32   C     C_R   0.959968 0.450902 0.321654 0.010945
C33   C     C_R   0.828038 0.031003 0.563647 0.836080
C34   C     C_R   0.403296 0.991936 0.400043 0.065144
C35   C     C_R   0.588082 0.048684 0.585619 0.067145
C36   C     C_R   0.986126 0.403933 0.402062 0.065019
C37   C     C_R   0.040558 0.589969 0.587824 0.065246
C38   C     C_R   0.401006 0.405122 0.984645 0.066617
C39   C     C_R   0.598710 0.594526 0.016321 0.066891
C40   C     C_R   0.266269 0.977681 0.393294 -0.119308
C41   C     C_R   0.728200 0.052659 0.595658 -0.134861
C42   C     C_R   0.953529 0.402633 0.271890 -0.131430
C43   C     C_R   0.053836 0.546007 0.674584 0.010821
C44   C     C_R   0.053286 0.596359 0.726628 -0.131972
C45   C     C_R   0.391470 0.266023 0.978960 -0.124131
C46   C     C_R   0.608445 0.733812 0.021438 -0.125019
C47   C     C_R   0.595977 0.055353 0.726435 -0.132339
C48   C     C_R   0.402793 0.955994 0.271622 -0.130192
C49   C     C_R   0.728530 0.597218 0.047195 -0.132139
C50   C     C_R   0.271422 0.402611 0.953200 -0.131661
C51   C     C_R   0.047745 0.728907 0.596735 -0.133433
C52   C     C_R   0.976304 0.266282 0.393487 -0.119743
C53   C     C_R   0.450597 0.074304 0.704157 -0.233298
C54   C     C_R   0.429719 0.311016 0.006543 -0.000674
C55   C     C_R   0.544744 0.951406 0.290425 -0.229044
C56   C     C_R   0.034847 0.717194 0.456445 -0.221925
C57   C     C_R   0.040528 0.265843 0.507763 -0.227004
C58   C     C_R   0.699293 0.453791 0.075497 -0.221928
C59   C     C_R   0.300517 0.545879 0.925388 -0.220946
C60   C     C_R   0.264407 0.043242 0.506549 -0.229449
C61   C     C_R   0.714075 0.050505 0.452514 -0.224048
C62   C     C_R   0.497345 0.266438 0.052401 -0.224928
C63   C     C_R   0.502324 0.733143 0.948554 -0.225047
C64   C     C_R   0.941698 0.544653 0.293292 -0.219134
C65   C     C_R   0.570045 0.688655 0.994246 -0.000267
C66   C     C_R   0.072033 0.452090 0.704221 -0.222102
C67   C     C_R   0.316380 0.945591 0.316648 0.079977
C68   C     C_R   0.683060 0.066576 0.682193 0.081510
C69   C     C_R   0.944539 0.315964 0.316214 0.090802
C70   C     C_R   0.064672 0.682864 0.682096 0.087775
C71   C     C_R   0.315026 0.315326 0.946062 0.095348
C72   C     C_R   0.684978 0.684574 0.054189 0.093848
C73   C     C_R   0.673151 0.025359 0.411472 0.101919
C74   C     C_R   0.310304 0.049045 0.557262 0.101489
C75   C     C_R   0.063424 0.405023 0.656255 0.104326
C76   C     C_R   0.544771 0.057995 0.673762 0.008613
C77   C     C_R   0.962234 0.589185 0.334795 0.104559
C78   C     C_R   0.453601 0.686627 0.940080 0.101386
C79   C     C_R   0.545920 0.312941 0.061206 0.101235
C80   C     C_R   0.588039 0.975862 0.330071 0.101639
C81   C     C_R   0.403303 0.066438 0.655683 0.103454
C82   C     C_R   0.351793 0.592805 0.929213 0.104986
C83   C     C_R   0.647814 0.406809 0.072019 0.105340
C84   C     C_R   0.046038 0.311914 0.558325 0.100497
C85   C     C_R   0.008372 0.676015 0.416979 0.095231
C86   C     C_R   0.718934 0.005121 0.328870 -0.202732
C87   C     C_R   0.450805 0.965861 0.319927 0.009100
C88   C     C_R   0.264518 0.070859 0.639021 -0.197863
C89   C     C_R   0.079340 0.312336 0.687623 -0.195448
C90   C     C_R   0.958362 0.679710 0.296822 -0.195801
C91   C     C_R   0.381672 0.732370 0.901585 -0.196359
C92   C     C_R   0.617715 0.267215 0.099928 -0.195443
C93   C     C_R   0.677755 0.976799 0.290326 -0.210338
C94   C     C_R   0.310543 0.079466 0.688053 -0.203411
C95   C     C_R   0.330818 0.685968 0.896883 -0.200774
C96   C     C_R   0.668622 0.313636 0.104576 -0.200825
C97   C     C_R   0.070644 0.266321 0.638932 -0.193388
C98   C     C_R   0.677077 0.547841 0.045514 0.015438
C99   C     C_R   0.984751 0.721970 0.335778 -0.196013
C100  C     C_R   0.540688 0.001342 0.409799 0.028416
C101  C     C_R   0.449318 0.044575 0.573815 0.028210
C102  C     C_R   0.027152 0.404553 0.528004 0.029051
C103  C     C_R   0.007536 0.587284 0.457990 0.029515
C104  C     C_R   0.425554 0.546133 0.965298 0.026114
C105  C     C_R   0.574015 0.453458 0.035985 0.026089
C106  C     C_R   0.585108 0.020690 0.453488 0.028604
C107  C     C_R   0.403028 0.033069 0.525947 0.028548
C108  C     C_R   0.475930 0.593269 0.971707 0.028643
Cu1   Cu    Cu3+1 0.995180 0.995180 0.424630 0.905125
Cu2   Cu    Cu3+1 0.004820 0.004820 0.575370 0.909929
Cu3   Cu    Cu3+1 0.995180 0.424630 0.995180 0.924307
Cu4   Cu    Cu3+1 0.004820 0.575370 0.004820 0.922742
Cu5   Cu    Cu3+1 0.424630 0.995180 0.995180 0.913492
Cu6   Cu    Cu3+1 0.575370 0.004820 0.004820 0.910855
H1    H     H_    0.273770 0.095492 0.751468 0.132077
H2    H     H_    0.363661 0.804302 0.876545 0.141866
H3    H     H_    0.938451 0.716766 0.235212 0.133910
H4    H     H_    0.097913 0.275519 0.749961 0.132417
H5    H     H_    0.411905 0.097967 0.762881 0.166247
H6    H     H_    0.586344 0.919102 0.238048 0.168389
H7    H     H_    0.056340 0.774777 0.410988 0.177648
H8    H     H_    0.070060 0.195379 0.526456 0.165022
H9    H     H_    0.753548 0.416480 0.106516 0.154453
H10   H     H_    0.246446 0.583240 0.894127 0.154337
H11   H     H_    0.193493 0.071747 0.525417 0.165935
H12   H     H_    0.714950 0.958664 0.228011 0.133292
H13   H     H_    0.771639 0.073670 0.408883 0.171767
H14   H     H_    0.512477 0.195626 0.083550 0.175323
H15   H     H_    0.487277 0.803901 0.917167 0.175180
H16   H     H_    0.909884 0.584761 0.239905 0.161016
H17   H     H_    0.098105 0.413544 0.761754 0.160793
H18   H     H_    0.338130 0.849743 0.247122 0.218030
H19   H     H_    0.249204 0.846251 0.346670 0.214346
H20   H     H_    0.235343 0.938153 0.246207 0.250994
H21   H     H_    0.669484 0.148260 0.763128 0.220463
H22   H     H_    0.765032 0.050464 0.764218 0.250924
H23   H     H_    0.984453 0.791148 0.303770 0.134019
H24   H     H_    0.762973 0.148915 0.668292 0.218864
H25   H     H_    0.846220 0.247910 0.344507 0.214552
H26   H     H_    0.849893 0.336508 0.244812 0.207791
H27   H     H_    0.939596 0.234790 0.244971 0.251744
H28   H     H_    0.150801 0.759915 0.665824 0.219161
H29   H     H_    0.052881 0.763896 0.762421 0.253148
H30   H     H_    0.149537 0.667324 0.761503 0.208385
H31   H     H_    0.343691 0.247524 0.846963 0.213663
H32   H     H_    0.245106 0.233102 0.941268 0.251357
H33   H     H_    0.244165 0.335027 0.850974 0.208532
H34   H     H_    0.079860 0.195496 0.665893 0.124815
H35   H     H_    0.756108 0.665154 0.148916 0.208846
H36   H     H_    0.755071 0.766943 0.058410 0.251698
H37   H     H_    0.656603 0.752672 0.152928 0.214522
H38   H     H_    0.724496 0.276543 0.133466 0.136593
H39   H     H_    0.274880 0.723057 0.868087 0.138391
H40   H     H_    0.193761 0.077483 0.666718 0.123986
H41   H     H_    0.787476 0.007989 0.295958 0.132798
H42   H     H_    0.635625 0.195283 0.125133 0.143778
O1    O     O_R   0.124540 0.978640 0.385460 -0.583075
O2    O     O_R   0.124540 0.385460 0.978640 -0.574910
O3    O     O_R   0.021360 0.875460 0.614540 -0.571446
O4    O     O_R   0.978640 0.124540 0.385460 -0.584329
O5    O     O_R   0.013780 0.867370 0.487190 -0.601023
O6    O     O_R   0.986220 0.132630 0.512810 -0.610303
O7    O     O_R   0.867370 0.487190 0.013780 -0.587615
O8    O     O_R   0.132630 0.512810 0.986220 -0.588307
O9    O     O_R   0.487190 0.013780 0.867370 -0.602359
O10   O     O_R   0.512810 0.986220 0.132630 -0.605819
O11   O     O_R   0.512810 0.132630 0.986220 -0.597967
O12   O     O_R   0.875460 0.021360 0.614540 -0.572265
O13   O     O_R   0.487190 0.867370 0.013780 -0.596676
O14   O     O_R   0.986220 0.512810 0.132630 -0.592545
O15   O     O_R   0.013780 0.487190 0.867370 -0.590267
O16   O     O_R   0.132630 0.986220 0.512810 -0.609594
O17   O     O_R   0.867370 0.013780 0.487190 -0.597787
O18   O     O_R   0.978640 0.385460 0.124540 -0.573816
O19   O     O_R   0.021360 0.614540 0.875460 -0.574749
O20   O     O_R   0.385460 0.124540 0.978640 -0.581815
O21   O     O_R   0.614540 0.875460 0.021360 -0.580307
O22   O     O_R   0.614540 0.021360 0.875460 -0.571952
O23   O     O_R   0.385460 0.978640 0.124540 -0.569535
O24   O     O_R   0.875460 0.614540 0.021360 -0.574133

loop_
_geom_bond_atom_site_label_1
_geom_bond_atom_site_label_2
_ccdc_geom_bond_type
C101  C107  A    
C63   C65   A    
C57   H8    S    
C29   C42   S    
C45   C71   A    
Cu3   O18   S    
C84   C102  A    
C64   C77   A    
C47   C68   A    
Cu3   Cu4   S    
C58   C98   A    
C59   C82   A    
C29   O18   A    
C50   C71   A    
Cu1   O1    S    
C5    C103  A    
Cu2   O6    S    
Cu6   O11   S    
C81   C101  A    
C26   O23   A    
C3    C105  A    
C28   C46   S    
C58   H9    S    
C8    H25   S    
C84   C97   A    
C32   C36   A    
C15   C106  A    
C78   C108  A    
C60   H11   S    
Cu3   O2    S    
C47   C76   A    
Cu5   Cu6   S    
C20   C51   S    
Cu5   O9    S    
C22   O6    A    
Cu1   O17   S    
C23   C49   S    
C13   C57   A    
C31   O16   A    
C20   O5    A    
C96   H38   S    
C92   C96   A    
C31   C40   S    
C3    C18   A    
C53   C81   A    
C12   C37   A    
C93   H12   S    
C5    C16   A    
C52   C69   A    
C2    C50   A    
C1    C40   A    
C49   C98   A    
Cu2   O12   S    
C11   H35   S    
Cu4   O14   S    
Cu6   O22   S    
C49   C72   A    
C4    C102  A    
C66   C75   A    
C44   C70   A    
C8    H27   S    
C51   C70   A    
C29   O14   A    
C33   O17   A    
C28   O21   A    
C25   C47   S    
C21   C61   A    
C85   C103  A    
C26   C48   S    
C10   H33   S    
Cu4   O24   S    
C19   C108  A    
C27   C45   S    
C7    C68   S    
C3    C79   A    
C80   C100  A    
C39   C65   A    
C30   C44   S    
C24   O8    A    
C4    C75   A    
C15   C35   A    
C9    H30   S    
C1    C34   A    
Cu6   O10   S    
C41   C68   A    
C23   O7    A    
C55   H6    S    
C24   C50   S    
Cu4   O8    S    
C88   C94   A    
C35   C76   A    
C48   C87   A    
C90   H3    S    
C62   C79   A    
Cu3   O7    S    
C9    C70   S    
C32   C64   A    
C13   C36   A    
C6    H18   S    
C91   H2    S    
C1    C60   A    
C9    H29   S    
C75   C89   A    
C25   O22   A    
C39   C98   A    
Cu5   O13   S    
C54   C62   A    
C25   O9    A    
C90   C99   A    
C18   C38   A    
C20   O3    A    
C42   C69   A    
C83   C105  A    
C89   C97   A    
C95   H39   S    
C88   H40   S    
C37   C43   A    
C86   H41   S    
C7    H21   S    
C85   C99   A    
C86   C93   A    
C13   C52   A    
C26   O10   A    
C2    C38   A    
C11   H36   S    
C38   C54   A    
C9    H28   S    
Cu6   O21   S    
C55   C80   A    
C8    C69   S    
C57   C84   A    
C61   H13   S    
C18   C104  A    
C15   C101  A    
C79   C92   A    
C31   O1    A    
C19   C39   A    
C10   H32   S    
Cu5   O20   S    
C21   C41   A    
C4    C17   A    
C74   C107  A    
C16   C102  A    
C6    C67   S    
Cu5   O23   S    
C64   H16   S    
C45   C54   A    
C43   C44   A    
C97   H34   S    
C53   C76   A    
C17   C37   A    
C5    C77   A    
C92   H42   S    
C19   C105  A    
C30   O19   A    
C104  C108  A    
C12   C51   A    
C40   C67   A    
C22   C52   S    
C66   H17   S    
C11   H37   S    
C59   H10   S    
C14   C107  A    
C82   C104  A    
C82   C95   A    
C11   C72   S    
C46   C72   A    
C27   O20   A    
C14   C34   A    
C7    H24   S    
C94   H1    S    
C53   H5    S    
C14   C100  A    
C21   C35   A    
C78   C91   A    
C6    H19   S    
C23   O24   A    
C100  C106  A    
C8    H26   S    
C61   C73   A    
C56   H7    S    
C17   C103  A    
C33   C41   S    
C7    H22   S    
C6    H20   S    
Cu1   O5    S    
Cu1   Cu2   S    
C10   C71   S    
C62   H14   S    
C81   C94   A    
C73   C106  A    
C2    C59   A    
C22   O4    A    
C43   C66   A    
C83   C96   A    
C60   C74   A    
C12   C56   A    
C24   O2    A    
C34   C87   A    
C63   H15   S    
C48   C67   A    
C55   C87   A    
C30   O15   A    
C46   C65   A    
C10   H31   S    
C91   C95   A    
C33   O12   A    
C28   O13   A    
Cu4   O19   S    
C89   H4    S    
C77   C90   A    
C32   C42   A    
C99   H23   S    
C73   C86   A    
C74   C88   A    
C80   C93   A    
C58   C83   A    
Cu1   O4    S    
C56   C85   A    
C63   C78   A    
C16   C36   A    
Cu2   O3    S    
C27   O11   A    
Cu3   O15   S    
Cu2   O16   S    
