data_mof_unit_21286.cif
_audit_creation_date              2012-12-10T16:58:29-0500
_audit_creation_method            fapswitch 2.2
_symmetry_space_group_name_H-M    P1
_symmetry_Int_Tables_number       1
_space_group_crystal_system       triclinic
_cell_length_a                    7.720665
_cell_length_b                    8.514592
_cell_length_c                    23.359169
_cell_angle_alpha                 90.627433
_cell_angle_beta                  85.948169
_cell_angle_gamma                 93.788463
_cell_volume                      1528.37655478

loop_
_atom_site_label
_atom_site_type_symbol
_atom_type_description
_atom_site_fract_x
_atom_site_fract_y
_atom_site_fract_z
_atom_type_partial_charge
Br1   Br    Br    0.367970 0.188184 0.809560 -0.484222
Br2   Br    Br    0.639799 0.799184 0.189153 -0.480824
C1    C     C_R   0.546052 0.793787 0.506369 0.943753
C2    C     C_R   0.425513 0.355804 0.301516 0.113422
C3    C     C_R   0.577221 0.641044 0.760184 0.169343
C4    C     C_R   0.423057 0.350055 0.241210 0.171745
C5    C     C_R   0.516228 0.504495 0.791014 0.164555
C6    C     C_R   0.487591 0.483496 0.209178 0.167620
C7    C     C_2   0.571928 0.955832 0.522527 -0.040537
C8    C     C_2   0.431938 0.045838 0.526969 -0.035083
C9    C     C_R   0.502582 0.500325 0.610356 0.902766
C10   C     C_R   0.497416 0.499604 0.389734 0.937577
C11   C     C_R   0.632550 0.431793 0.117169 0.571430
C12   C     C_R   0.455356 0.206658 0.509282 0.950116
C13   C     C_R   0.369803 0.552236 0.883081 0.572148
C14   C     C_R   0.348654 0.530834 0.122768 0.562699
C15   C     C_R   0.653751 0.453275 0.877435 0.563451
C16   C     C_R   0.350418 0.536350 0.063053 -0.025338
C17   C     C_R   0.651449 0.446553 0.937153 -0.026028
C18   C     C_R   0.498047 0.488286 0.030183 -0.011218
C19   C     C_R   0.503697 0.494339 0.970031 -0.011349
C20   C     C_R   0.640232 0.434604 0.057321 -0.025994
C21   C     C_R   0.361619 0.548272 0.942908 -0.026246
C22   C     C_R   0.209670 0.589927 0.035633 -0.151361
C23   C     C_R   0.453796 0.367415 0.763238 0.302995
C24   C     C_R   0.792018 0.392613 0.964577 -0.151697
C25   C     C_R   0.215292 0.595957 0.976020 -0.164552
C26   C     C_R   0.786383 0.386561 0.024200 -0.163847
C27   C     C_3   0.391895 0.216781 0.671489 -0.814441
C28   C     C_3   0.618048 0.781587 0.323500 -0.782934
C29   C     C_3   0.629480 0.784784 0.664267 -0.871368
C30   C     C_3   0.362173 0.214950 0.338652 -0.864615
C31   C     C_3   0.646657 0.786215 0.791451 -0.730914
C32   C     C_3   0.353131 0.203080 0.211115 -0.732602
C33   C     C_3   0.757749 0.016404 0.532178 -0.868135
C34   C     C_R   0.551964 0.621432 0.235857 0.297816
C35   C     C_3   0.247734 0.986015 0.547438 -0.878777
C36   C     C_R   0.452139 0.364197 0.703313 0.053131
C37   C     C_R   0.552636 0.629422 0.295599 0.040606
C38   C     C_R   0.509052 0.501546 0.672330 -0.119410
C39   C     C_R   0.490737 0.495692 0.327965 -0.124023
C40   C     C_R   0.571685 0.640218 0.699998 0.115436
H1    H     H_    0.095080 0.627544 0.060090 0.208932
H2    H     H_    0.606821 0.779190 0.371012 0.215620
H3    H     H_    0.757290 0.808161 0.309577 0.270546
H4    H     H_    0.541494 0.879443 0.310430 0.249181
H5    H     H_    0.520072 0.818946 0.639698 0.230993
H6    H     H_    0.671869 0.889452 0.689375 0.256902
H7    H     H_    0.740527 0.757328 0.633868 0.236860
H8    H     H_    0.469044 0.180137 0.364305 0.229179
H9    H     H_    0.250924 0.246579 0.368300 0.243605
H10   H     H_    0.317746 0.109409 0.314382 0.247146
H11   H     H_    0.564748 0.885574 0.784458 0.266708
H12   H     H_    0.906638 0.355072 0.940118 0.208626
H13   H     H_    0.647475 0.770718 0.838440 0.230570
H14   H     H_    0.783121 0.817653 0.775296 0.249967
H15   H     H_    0.356543 0.214408 0.163855 0.232327
H16   H     H_    0.432045 0.103051 0.220135 0.262614
H17   H     H_    0.215209 0.175099 0.226404 0.250242
H18   H     H_    0.830165 0.923359 0.550883 0.229422
H19   H     H_    0.828091 0.052952 0.490857 0.257740
H20   H     H_    0.760022 0.114840 0.563786 0.258618
H21   H     H_    0.175852 0.080628 0.569468 0.241133
H22   H     H_    0.173947 0.944412 0.510428 0.260145
H23   H     H_    0.104846 0.637948 0.956024 0.198549
H24   H     H_    0.249502 0.891477 0.579762 0.254771
H25   H     H_    0.896852 0.344631 0.044200 0.198554
H26   H     H_    0.014146 0.382051 0.457125 0.195514
H27   H     H_    0.985865 0.617922 0.542896 0.190248
H28   H     H_    0.274862 0.239930 0.648780 0.244539
H29   H     H_    0.497079 0.183208 0.639751 0.218954
H30   H     H_    0.358225 0.113445 0.699269 0.278257
N1    N     N_R   0.488850 0.480346 0.148203 -0.343402
N2    N     N_R   0.513915 0.504603 0.852023 -0.342685
N3    N     N_2   0.950330 0.457950 0.484560 -0.166812
N4    N     N_2   0.049670 0.542050 0.515440 -0.169393
O1    O     O_R   0.389250 0.738570 0.503790 -0.618567
O2    O     O_2   0.235179 0.602310 0.855914 -0.510070
O3    O     O_2   0.209153 0.576293 0.155365 -0.503930
O4    O     O_2   0.793533 0.408502 0.844822 -0.502711
O5    O     O_R   0.610750 0.261430 0.496210 -0.622443
O6    O     O_R   0.678390 0.711620 0.493890 -0.623941
O7    O     O_R   0.321610 0.288380 0.506110 -0.625906
O8    O     O_R   0.355400 0.513520 0.588790 -0.618282
O9    O     O_R   0.644600 0.486480 0.411210 -0.599132
O10   O     O_R   0.644550 0.486570 0.578900 -0.633332
O11   O     O_R   0.355450 0.513430 0.421100 -0.615350
O12   O     O_2   0.767347 0.382203 0.144364 -0.509441
Zn1   Zn    Zn3+2 0.306930 0.518000 0.506610 0.935501
Zn2   Zn    Zn3+2 0.693070 0.482000 0.493390 0.938342

loop_
_geom_bond_atom_site_label_1
_geom_bond_atom_site_label_2
_ccdc_geom_bond_type
C31   H13   S    
C3    C40   A    
C29   C40   S    
C28   H3    S    
C22   C25   A    
C37   C39   A    
H26   N3    S    
O1    Zn1   S    
C10   O9    A    
C8    C35   S    
C1    C7    S    
C17   C19   A    
C13   O2    S    
C2    C39   A    
C9    O10   A    
H27   N4    S    
C6    C34   A    
C17   C24   A    
C30   H10   S    
N3    Zn2   S    
C3    C31   S    
C27   C36   S    
C28   C37   S    
C32   H15   S    
C21   C25   A    
C7    C8    D    
N4    Zn1   S    
C27   H30   S    
C31   H14   S    
C13   C21   A    
C29   H5    S    
Br1   C23   S    
C28   H2    S    
C12   O7    A    
C29   H7    S    
C24   H12   S    
C35   H21   S    
C5    N2    S    
C31   H11   S    
O7    Zn1   S    
C14   N1    A    
C26   H25   S    
C2    C4    A    
O10   Zn2   S    
C3    C5    A    
C4    C6    A    
C15   O4    S    
C4    C32   S    
C33   H18   S    
N3    N4    D    
C30   H9    S    
C10   C39   S    
C25   H23   S    
C23   C36   A    
C35   H24   S    
C1    O6    A    
C33   H19   S    
C30   H8    S    
C2    C30   S    
O5    Zn2   S    
C11   N1    A    
C29   H6    S    
C19   C21   A    
C8    C12   S    
C32   H17   S    
C16   C22   A    
O8    Zn1   S    
C1    O1    A    
C35   H22   S    
C7    C33   S    
C27   H28   S    
Br2   C34   S    
C10   O11   A    
C28   H4    S    
C34   C37   A    
C18   C20   A    
C5    C23   A    
O9    Zn2   S    
C9    O8    A    
C24   C26   A    
O6    Zn2   S    
C14   O3    S    
O11   Zn1   S    
C36   C38   A    
C15   N2    A    
C11   O12   S    
C38   C40   A    
C6    N1    S    
C15   C17   A    
C11   C20   A    
C33   H20   S    
C16   C18   A    
C9    C38   S    
C13   N2    A    
C18   C19   A    
C14   C16   A    
C32   H16   S    
C22   H1    S    
C20   C26   A    
C12   O5    A    
C27   H29   S    
