data_mof_unit_65465.cif
_audit_creation_date              2012-12-10T20:40:29-0500
_audit_creation_method            fapswitch 2.2
_symmetry_space_group_name_H-M    P1
_symmetry_Int_Tables_number       1
_space_group_crystal_system       triclinic
_cell_length_a                    28.082473
_cell_length_b                    28.081475
_cell_length_c                    60.006804
_cell_angle_alpha                 89.996181
_cell_angle_beta                  90.003763
_cell_angle_gamma                 89.99572
_cell_volume                      47321.2010858

loop_
_atom_site_label
_atom_site_type_symbol
_atom_type_description
_atom_site_fract_x
_atom_site_fract_y
_atom_site_fract_z
_atom_type_partial_charge
C1    C     C_R   0.499999 0.999999 0.189637 0.817162
C2    C     C_R   0.499212 0.956855 0.653092 -0.192332
C3    C     C_R   0.499987 0.999908 0.976387 0.075676
C4    C     C_R   0.499998 0.000005 0.523615 0.075835
C5    C     C_R   0.500000 0.999998 0.476407 0.075790
C6    C     C_R   0.999984 0.499947 0.523593 0.075703
C7    C     C_R   0.000036 0.500073 0.476387 0.075751
C8    C     C_R   0.921169 0.464310 0.024520 -0.202965
C9    C     C_R   0.076837 0.540150 0.975502 -0.202773
C10   C     C_R   0.538170 0.922097 0.024458 -0.202707
C11   C     C_R   0.466291 0.079785 0.975523 -0.202893
C12   C     C_R   0.079140 0.535751 0.024414 -0.202739
C13   C     C_R   0.043199 0.500053 0.346905 -0.193946
C14   C     C_R   0.923192 0.459831 0.975608 -0.202968
C15   C     C_R   0.461800 0.077758 0.024436 -0.202800
C16   C     C_R   0.533684 0.920031 0.975545 -0.202742
C17   C     C_R   0.420217 0.966100 0.524467 -0.202515
C18   C     C_R   0.577747 0.038337 0.475555 -0.202511
C19   C     C_R   0.959865 0.423098 0.524394 -0.202626
C20   C     C_R   0.035754 0.579065 0.475586 -0.202613
C21   C     C_R   0.579779 0.033912 0.524469 -0.202479
C22   C     C_R   0.422254 0.961658 0.475553 -0.202481
C23   C     C_R   0.040094 0.576795 0.524499 -0.202627
C24   C     C_R   0.956844 0.501607 0.653095 -0.193870
C25   C     C_R   0.964327 0.421083 0.475481 -0.202644
C26   C     C_R   0.590870 0.909129 0.250001 0.955949
C27   C     C_R   0.409124 0.090873 0.749998 0.953903
C28   C     C_R   0.090872 0.590873 0.250000 0.955151
C29   C     C_R   0.909123 0.409133 0.750004 0.944778
C30   C     C_R   0.409134 0.090866 0.249998 0.956088
C31   C     C_R   0.590866 0.909137 0.750001 0.955632
C32   C     C_R   0.909099 0.409129 0.249988 0.936435
C33   C     C_R   0.090899 0.590870 0.750012 0.936265
C34   C     C_R   0.590869 0.090878 0.750003 0.945074
C35   C     C_R   0.500861 0.956846 0.346909 -0.192654
C36   C     C_R   0.409129 0.909128 0.250000 0.955959
C37   C     C_R   0.090875 0.409135 0.750001 0.963226
C38   C     C_R   0.909122 0.590864 0.249998 0.963748
C39   C     C_R   0.409138 0.909132 0.750000 0.955797
C40   C     C_R   0.590861 0.090868 0.249999 0.956205
C41   C     C_R   0.909142 0.590916 0.749979 0.950071
C42   C     C_R   0.090856 0.409089 0.250021 0.951953
C43   C     C_R   0.176746 0.685717 0.269924 -0.172914
C44   C     C_R   0.824154 0.313756 0.729794 -0.173132
C45   C     C_R   0.323343 0.185709 0.230022 -0.172798
C46   C     C_R   0.500786 0.043158 0.653091 -0.192271
C47   C     C_R   0.676712 0.814301 0.769924 -0.173041
C48   C     C_R   0.848579 0.288728 0.252862 -0.174146
C49   C     C_R   0.151382 0.711281 0.747086 -0.174085
C50   C     C_R   0.676677 0.814191 0.230117 -0.173140
C51   C     C_R   0.322883 0.185459 0.769863 -0.173092
C52   C     C_R   0.185828 0.323279 0.769829 -0.174697
C53   C     C_R   0.814112 0.676620 0.230127 -0.174410
C54   C     C_R   0.314297 0.823255 0.730119 -0.172957
C55   C     C_R   0.685690 0.176770 0.269865 -0.172897
C56   C     C_R   0.815845 0.678395 0.770037 -0.172267
C57   C     C_R   0.956886 0.500494 0.346920 -0.192207
C58   C     C_R   0.184446 0.321989 0.229923 -0.172377
C59   C     C_R   0.686131 0.175967 0.729780 -0.173153
C60   C     C_R   0.314232 0.823312 0.269919 -0.172814
C61   C     C_R   0.677065 0.185814 0.769569 -0.169407
C62   C     C_R   0.323303 0.814231 0.230090 -0.173272
C63   C     C_R   0.821858 0.684495 0.729963 -0.172776
C64   C     C_R   0.177965 0.315289 0.269961 -0.172369
C65   C     C_R   0.323535 0.814097 0.769939 -0.173649
C66   C     C_R   0.676412 0.185936 0.230048 -0.173615
C67   C     C_R   0.176632 0.314269 0.730002 -0.172970
C68   C     C_R   0.043073 0.497872 0.653085 -0.193099
C69   C     C_R   0.823320 0.685746 0.269946 -0.172812
C70   C     C_R   0.685749 0.823311 0.269945 -0.173404
C71   C     C_R   0.314524 0.176935 0.729973 -0.173803
C72   C     C_R   0.788483 0.349019 0.246937 -0.169360
C73   C     C_R   0.211487 0.651028 0.753078 -0.169311
C74   C     C_R   0.314144 0.176623 0.269846 -0.173038
C75   C     C_R   0.685885 0.823477 0.730102 -0.173144
C76   C     C_R   0.185709 0.676764 0.230084 -0.173150
C77   C     C_R   0.814077 0.323049 0.769559 -0.169158
C78   C     C_R   0.140840 0.650968 0.270233 -0.062172
C79   C     C_R   0.997880 0.543087 0.846914 -0.195521
C80   C     C_R   0.859949 0.348627 0.729629 -0.060590
C81   C     C_R   0.359288 0.151002 0.229741 -0.062381
C82   C     C_R   0.640756 0.848994 0.770227 -0.061962
C83   C     C_R   0.884434 0.323513 0.253245 -0.059728
C84   C     C_R   0.115541 0.676482 0.746707 -0.059707
C85   C     C_R   0.640782 0.848956 0.229794 -0.062384
C86   C     C_R   0.358781 0.150703 0.770213 -0.062276
C87   C     C_R   0.151075 0.359180 0.770174 -0.060138
C88   C     C_R   0.848881 0.640732 0.229801 -0.060590
C89   C     C_R   0.348987 0.859211 0.729799 -0.062467
C90   C     C_R   0.000541 0.456874 0.153083 -0.193455
C91   C     C_R   0.651016 0.140798 0.270190 -0.062711
C92   C     C_R   0.850515 0.642426 0.770341 -0.057649
C93   C     C_R   0.149769 0.357957 0.229649 -0.057738
C94   C     C_R   0.651259 0.140174 0.729613 -0.060235
C95   C     C_R   0.348981 0.859218 0.270227 -0.062486
C96   C     C_R   0.641054 0.151245 0.770028 -0.058899
C97   C     C_R   0.359209 0.848980 0.229778 -0.060717
C98   C     C_R   0.857665 0.649649 0.729607 -0.062060
C99   C     C_R   0.142152 0.350128 0.270342 -0.062777
C100  C     C_R   0.359383 0.848900 0.770238 -0.061019
C101  C     C_R   0.543146 0.998989 0.846912 -0.189746
C102  C     C_R   0.640580 0.151118 0.229753 -0.060799
C103  C     C_R   0.140721 0.349017 0.729728 -0.061567
C104  C     C_R   0.859246 0.651012 0.270240 -0.061837
C105  C     C_R   0.651012 0.859233 0.270242 -0.060697
C106  C     C_R   0.349270 0.141022 0.729696 -0.060490
C107  C     C_R   0.823364 0.384736 0.246532 -0.064600
C108  C     C_R   0.176618 0.615299 0.753488 -0.064587
C109  C     C_R   0.348932 0.140756 0.270186 -0.060896
C110  C     C_R   0.651087 0.859332 0.729785 -0.061192
C111  C     C_R   0.150959 0.640858 0.229771 -0.062093
C112  C     C_R   0.500001 0.999979 0.810363 0.829312
C113  C     C_R   0.456846 0.999186 0.153092 -0.192611
C114  C     C_R   0.848651 0.359058 0.770018 -0.059903
C115  C     C_R   0.127939 0.627948 0.250001 -0.170531
C116  C     C_R   0.872215 0.371885 0.749890 -0.173088
C117  C     C_R   0.372080 0.127936 0.249978 -0.170804
C118  C     C_R   0.627941 0.872094 0.750002 -0.170637
C119  C     C_R   0.871928 0.372096 0.249939 -0.174768
C120  C     C_R   0.128058 0.627914 0.750052 -0.174441
C121  C     C_R   0.627941 0.872061 0.250011 -0.170867
C122  C     C_R   0.372011 0.127914 0.749970 -0.170917
C123  C     C_R   0.127929 0.372053 0.749970 -0.171439
C124  C     C_R   0.001682 0.456856 0.846910 -0.190751
C125  C     C_R   0.872044 0.627927 0.250011 -0.171539
C126  C     C_R   0.372111 0.872041 0.750014 -0.170445
C127  C     C_R   0.627878 0.127967 0.249979 -0.170624
C128  C     C_R   0.872064 0.628035 0.749970 -0.174610
C129  C     C_R   0.127966 0.372015 0.250011 -0.174456
C130  C     C_R   0.628115 0.127791 0.749888 -0.173446
C131  C     C_R   0.372058 0.872060 0.250002 -0.170876
C132  C     C_R   0.198703 0.698713 0.250005 0.095811
C133  C     C_R   0.801699 0.300883 0.749606 0.092375
C134  C     C_R   0.301249 0.198609 0.249919 0.095838
C135  C     C_R   0.000123 0.543191 0.153092 -0.192646
C136  C     C_R   0.698796 0.801451 0.750017 0.095831
C137  C     C_R   0.801035 0.301437 0.249917 0.092469
C138  C     C_R   0.198924 0.698598 0.750064 0.092484
C139  C     C_R   0.698678 0.801269 0.250038 0.095805
C140  C     C_R   0.301243 0.198681 0.749900 0.095860
C141  C     C_R   0.198700 0.301300 0.749899 0.095408
C142  C     C_R   0.801238 0.698653 0.250044 0.095454
C143  C     C_R   0.301476 0.801178 0.750034 0.094992
C144  C     C_R   0.698482 0.198860 0.249950 0.095013
C145  C     C_R   0.801426 0.698954 0.750010 0.096364
C146  C     C_R   0.456851 0.000829 0.846908 -0.193837
C147  C     C_R   0.198627 0.301124 0.249919 0.096398
C148  C     C_R   0.699120 0.198306 0.749605 0.092322
C149  C     C_R   0.301293 0.801297 0.250005 0.095688
C150  C     C_1   0.234851 0.734860 0.250007 -0.011898
C151  C     C_1   0.765616 0.264679 0.749488 -0.011871
C152  C     C_1   0.265073 0.234712 0.249892 -0.011607
C153  C     C_1   0.734980 0.765359 0.750023 -0.011764
C154  C     C_1   0.764857 0.265338 0.249924 -0.012722
C155  C     C_1   0.235093 0.734707 0.750055 -0.012693
C156  C     C_1   0.734810 0.765107 0.250050 -0.012246
C157  C     C_R   0.543142 0.000789 0.153092 -0.192711
C158  C     C_1   0.265111 0.234838 0.749872 -0.012385
C159  C     C_1   0.234831 0.265142 0.749872 -0.012449
C160  C     C_1   0.765095 0.734804 0.250053 -0.012316
C161  C     C_1   0.265374 0.765003 0.750046 -0.012196
C162  C     C_1   0.734576 0.235043 0.249934 -0.012212
C163  C     C_1   0.765291 0.735094 0.750022 -0.011493
C164  C     C_1   0.234765 0.264983 0.249889 -0.011382
C165  C     C_1   0.735325 0.234388 0.749487 -0.011811
C166  C     C_1   0.265145 0.765151 0.250007 -0.011879
C167  C     C_R   0.461941 0.981267 0.417264 0.514178
C168  C     C_R   0.500001 0.999992 0.381990 0.293054
C169  C     C_R   0.539099 0.016452 0.582758 0.514342
C170  C     C_R   0.982760 0.461516 0.417221 0.513795
C171  C     C_R   0.019524 0.537407 0.582759 0.513660
C172  C     C_R   0.538064 0.018714 0.417265 0.514097
C173  C     C_R   0.460894 0.983572 0.582756 0.514229
C174  C     C_R   0.017414 0.538953 0.417270 0.514086
C175  C     C_R   0.980337 0.462162 0.582710 0.513933
C176  C     C_R   0.962232 0.480341 0.917292 0.513678
C177  C     C_R   0.039042 0.517390 0.082730 0.513970
C178  C     C_R   0.516326 0.960736 0.917250 0.513925
C179  C     C_R   0.499997 0.000010 0.618017 0.294306
C180  C     C_R   0.481335 0.038054 0.082731 0.513948
C181  C     C_R   0.037450 0.519576 0.917242 0.513385
C182  C     C_R   0.961608 0.482734 0.082779 0.513817
C183  C     C_R   0.483656 0.039036 0.917240 0.512956
C184  C     C_R   0.518639 0.961853 0.082741 0.514078
C185  C     C_R   0.499118 0.043100 0.370198 -0.086844
C186  C     C_R   0.499191 0.956900 0.629802 -0.087257
C187  C     C_R   0.043179 0.500131 0.370196 -0.087201
C188  C     C_R   0.956867 0.501575 0.629804 -0.086725
C189  C     C_R   0.500882 0.956885 0.370199 -0.086689
C190  C     C_R   0.000074 0.500335 0.381986 0.296079
C191  C     C_R   0.500806 0.043119 0.629801 -0.087035
C192  C     C_R   0.956950 0.500537 0.370210 -0.091028
C193  C     C_R   0.043014 0.497792 0.629795 -0.090328
C194  C     C_R   0.997811 0.543034 0.870204 -0.089765
C195  C     C_R   0.000607 0.456931 0.129793 -0.090880
C196  C     C_R   0.543101 0.998943 0.870203 -0.093542
C197  C     C_R   0.456885 0.999156 0.129802 -0.086660
C198  C     C_R   0.001660 0.456887 0.870201 -0.092680
C199  C     C_R   0.000223 0.543164 0.129801 -0.087338
C200  C     C_R   0.456890 0.000823 0.870198 -0.086563
C201  C     C_R   0.999933 0.499684 0.618008 0.294693
C202  C     C_R   0.543099 0.000798 0.129802 -0.087043
C203  C     C_2   0.116508 0.641046 0.291805 0.928236
C204  C     C_2   0.884816 0.358455 0.708179 0.928915
C205  C     C_2   0.383764 0.141161 0.208196 0.927993
C206  C     C_2   0.616301 0.858791 0.791782 0.926947
C207  C     C_2   0.934106 0.307847 0.257942 0.926727
C208  C     C_2   0.065870 0.692111 0.741975 0.926807
C209  C     C_2   0.616403 0.858806 0.208224 0.927959
C210  C     C_2   0.382742 0.140534 0.791850 0.926545
C211  C     C_2   0.141279 0.383528 0.791752 0.925332
C212  C     C_R   0.999739 0.499957 0.881993 0.296637
C213  C     C_2   0.858676 0.616324 0.208238 0.926329
C214  C     C_2   0.358753 0.883652 0.708236 0.927500
C215  C     C_2   0.641284 0.116340 0.291752 0.927865
C216  C     C_2   0.861781 0.619510 0.792098 0.927464
C217  C     C_2   0.138767 0.381243 0.207946 0.928920
C218  C     C_2   0.641312 0.115432 0.708144 0.928521
C219  C     C_2   0.358847 0.883608 0.291791 0.928257
C220  C     C_2   0.616956 0.142103 0.791728 0.923142
C221  C     C_2   0.383590 0.858846 0.208211 0.926393
C222  C     C_2   0.880240 0.638159 0.707792 0.924183
C223  C     C_R   0.000065 0.500005 0.189636 0.817905
C224  C     C_R   0.000423 0.500054 0.118014 0.296044
C225  C     C_2   0.119381 0.361357 0.292144 0.924011
C226  C     C_2   0.383836 0.858753 0.791789 0.926359
C227  C     C_2   0.616120 0.141253 0.208205 0.925960
C228  C     C_2   0.116278 0.358930 0.708180 0.925286
C229  C     C_2   0.883698 0.641165 0.291792 0.925520
C230  C     C_2   0.641148 0.883649 0.291800 0.926400
C231  C     C_2   0.359456 0.116879 0.708106 0.927334
C232  C     C_2   0.807554 0.434294 0.241671 0.927758
C233  C     C_2   0.192436 0.565757 0.758381 0.927738
C234  C     C_2   0.358761 0.116387 0.291761 0.926526
C235  C     C_R   0.499994 0.999877 0.881985 0.295887
C236  C     C_2   0.641245 0.883755 0.708225 0.926917
C237  C     C_2   0.141034 0.616543 0.208195 0.927747
C238  C     C_2   0.857684 0.383264 0.791704 0.923679
C239  C     C_R   0.499990 0.999971 0.118010 0.293080
C240  C     C_R   0.500001 0.999995 0.452639 -0.047281
C241  C     C_R   0.499997 0.000009 0.547384 -0.047219
C242  C     C_R   0.000060 0.500138 0.452618 -0.047268
C243  C     C_R   0.999959 0.499882 0.547362 -0.047336
C244  C     C_R   0.999946 0.499978 0.952639 -0.047469
C245  C     C_R   0.000223 0.500043 0.047382 -0.047293
C246  C     C_R   0.499989 0.999899 0.952618 -0.047303
C247  C     C_R   0.999958 0.499995 0.810364 0.830136
C248  C     C_R   0.499986 0.999938 0.047363 -0.047336
C249  C     C_R   0.461301 0.980842 0.440717 -0.026703
C250  C     C_R   0.539758 0.016856 0.559305 -0.026916
C251  C     C_R   0.982324 0.460801 0.440672 -0.026289
C252  C     C_R   0.019983 0.538101 0.559308 -0.026040
C253  C     C_R   0.538702 0.019144 0.440718 -0.026569
C254  C     C_R   0.460236 0.983164 0.559304 -0.026758
C255  C     C_R   0.017819 0.539538 0.440723 -0.026928
C256  C     C_R   0.979912 0.461599 0.559257 -0.026758
C257  C     C_R   0.961673 0.479911 0.940745 -0.026096
C258  C     C_R   0.999994 0.499945 0.689636 0.818702
C259  C     C_R   0.039623 0.517801 0.059277 -0.026903
C260  C     C_R   0.516730 0.960085 0.940702 -0.027006
C261  C     C_R   0.480910 0.038684 0.059278 -0.026656
C262  C     C_R   0.038149 0.520029 0.940693 -0.026096
C263  C     C_R   0.960890 0.482302 0.059329 -0.026257
C264  C     C_R   0.483249 0.039704 0.940692 -0.026762
C265  C     C_R   0.519063 0.961201 0.059289 -0.026736
C266  C     C_R   0.422836 0.961649 0.452392 -0.122914
C267  C     C_R   0.579413 0.033453 0.547631 -0.122948
C268  C     C_R   0.964821 0.421500 0.452320 -0.124200
C269  C     C_R   0.000006 0.500056 0.310364 0.818580
C270  C     C_R   0.040065 0.576150 0.547660 -0.124190
C271  C     C_R   0.577167 0.038339 0.452393 -0.123173
C272  C     C_R   0.420582 0.966566 0.547629 -0.123214
C273  C     C_R   0.035306 0.578773 0.452424 -0.123019
C274  C     C_R   0.959848 0.423617 0.547556 -0.122980
C275  C     C_R   0.923706 0.459820 0.952447 -0.124388
C276  C     C_R   0.078854 0.535293 0.047575 -0.123170
C277  C     C_R   0.533221 0.920387 0.952383 -0.123555
C278  C     C_R   0.461789 0.077185 0.047598 -0.123252
C279  C     C_R   0.076186 0.540131 0.952341 -0.124274
C280  C     C_R   0.500000 0.000001 0.689637 0.817335
C281  C     C_R   0.921589 0.464800 0.047681 -0.124382
C282  C     C_R   0.466757 0.079411 0.952362 -0.123880
C283  C     C_R   0.538182 0.922690 0.047619 -0.123121
C284  C     C_R   0.500000 0.999996 0.335013 -0.049571
C285  C     C_R   0.500000 0.000005 0.664987 -0.049838
C286  C     C_R   0.000030 0.500201 0.335016 -0.043258
C287  C     C_R   0.999971 0.499808 0.664985 -0.043324
C288  C     C_R   0.999841 0.499980 0.835017 -0.036097
C289  C     C_R   0.000241 0.500023 0.164984 -0.043088
C290  C     C_R   0.500000 0.999932 0.835014 -0.042952
C291  C     C_R   0.500000 0.999998 0.310363 0.817247
C292  C     C_R   0.499995 0.999993 0.164987 -0.049662
C293  C     C_R   0.960314 0.481261 0.011912 0.044219
C294  C     C_R   0.039360 0.519778 0.988110 0.044233
C295  C     C_R   0.518753 0.960117 0.011870 0.044068
C296  C     C_R   0.482249 0.040187 0.988110 0.044118
C297  C     C_R   0.039925 0.518778 0.011858 0.044016
C298  C     C_R   0.960741 0.480225 0.988164 0.044244
C299  C     C_R   0.481219 0.039727 0.011859 0.044082
C300  C     C_R   0.517724 0.959638 0.988121 0.044058
C301  C     C_R   0.459771 0.982168 0.511885 0.044197
C302  C     C_R   0.499138 0.043143 0.346908 -0.192708
C303  C     C_R   0.539760 0.018853 0.488137 0.044236
C304  C     C_R   0.980237 0.460659 0.511838 0.044113
C305  C     C_R   0.018773 0.539853 0.488142 0.044076
C306  C     C_R   0.540226 0.017840 0.511886 0.044134
C307  C     C_R   0.460239 0.981147 0.488136 0.044171
C308  C     C_R   0.019755 0.539298 0.511891 0.044326
C309  C     C_R   0.981274 0.460231 0.488089 0.044276
C310  C     C_R   0.000153 0.500027 0.023614 0.075692
C311  C     C_R   0.000016 0.499994 0.976408 0.075592
C312  C     C_R   0.499986 0.999927 0.023594 0.075710
H1    H     H_    0.186935 0.703659 0.285204 0.177706
H2    H     H_    0.796063 0.686742 0.214864 0.177646
H3    H     H_    0.555895 0.877281 0.807881 0.347232
H4    H     H_    0.997907 0.322333 0.271862 0.367413
H5    H     H_    0.002096 0.677536 0.728044 0.367258
H6    H     H_    0.556059 0.877357 0.192085 0.348089
H7    H     H_    0.442802 0.121886 0.808187 0.355260
H8    H     H_    0.122770 0.443842 0.807912 0.348771
H9    H     H_    0.877205 0.555971 0.192116 0.349722
H10   H     H_    0.377225 0.944045 0.692118 0.348037
H11   H     H_    0.622858 0.055928 0.307866 0.348092
H12   H     H_    0.880370 0.559996 0.808879 0.352757
H13   H     H_    0.296265 0.813117 0.714855 0.178255
H14   H     H_    0.120270 0.441024 0.191343 0.346316
H15   H     H_    0.622541 0.054859 0.692255 0.347543
H16   H     H_    0.377389 0.943966 0.307916 0.348122
H17   H     H_    0.621733 0.142418 0.825295 0.355432
H18   H     H_    0.443936 0.877398 0.192080 0.346602
H19   H     H_    0.939272 0.618687 0.690865 0.349923
H20   H     H_    0.060258 0.380830 0.309003 0.350461
H21   H     H_    0.444219 0.877354 0.807879 0.346377
H22   H     H_    0.555741 0.122611 0.192122 0.346438
H23   H     H_    0.055879 0.377503 0.692091 0.346065
H24   H     H_    0.703733 0.186909 0.285126 0.178245
H25   H     H_    0.944102 0.622640 0.307888 0.346743
H26   H     H_    0.622601 0.944025 0.307910 0.346518
H27   H     H_    0.378042 0.056645 0.691890 0.346737
H28   H     H_    0.754789 0.482969 0.243413 0.358460
H29   H     H_    0.245233 0.517107 0.756700 0.358441
H30   H     H_    0.377340 0.056062 0.307910 0.346637
H31   H     H_    0.622654 0.944121 0.692112 0.346797
H32   H     H_    0.122465 0.556237 0.192034 0.348478
H33   H     H_    0.857079 0.378692 0.825276 0.358819
H34   H     H_    0.799029 0.689677 0.785429 0.176669
H35   H     H_    0.201451 0.310949 0.214539 0.176796
H36   H     H_    0.704157 0.185780 0.714468 0.177959
H37   H     H_    0.296244 0.813167 0.285193 0.177738
H38   H     H_    0.687285 0.204081 0.784757 0.184016
H39   H     H_    0.313152 0.796242 0.214817 0.177477
H40   H     H_    0.810539 0.701361 0.714587 0.177187
H41   H     H_    0.814429 0.295642 0.714493 0.177986
H42   H     H_    0.189120 0.298204 0.285310 0.177300
H43   H     H_    0.313470 0.796058 0.785211 0.177868
H44   H     H_    0.686459 0.203983 0.214775 0.177840
H45   H     H_    0.186737 0.296306 0.714716 0.177382
H46   H     H_    0.813214 0.703747 0.285222 0.177394
H47   H     H_    0.703733 0.813174 0.285223 0.177385
H48   H     H_    0.296801 0.187285 0.714660 0.177275
H49   H     H_    0.751344 0.358056 0.244350 0.184328
H50   H     H_    0.248623 0.642012 0.755688 0.184327
H51   H     H_    0.296094 0.186757 0.285106 0.177451
H52   H     H_    0.313226 0.203690 0.214740 0.177593
H53   H     H_    0.703933 0.813385 0.714836 0.177449
H54   H     H_    0.203654 0.686959 0.214806 0.177530
H55   H     H_    0.795721 0.312913 0.784736 0.184178
H56   H     H_    0.501591 0.923043 0.338232 0.181947
H57   H     H_    0.501384 0.076964 0.661769 0.181952
H58   H     H_    0.923067 0.500700 0.338250 0.178316
H59   H     H_    0.076855 0.496338 0.661758 0.178639
H60   H     H_    0.498408 0.076948 0.338230 0.181850
H61   H     H_    0.498614 0.923047 0.661769 0.181786
H62   H     H_    0.077002 0.499815 0.338222 0.182047
H63   H     H_    0.686847 0.796290 0.785196 0.177539
H64   H     H_    0.923075 0.503172 0.661777 0.182002
H65   H     H_    0.003267 0.423084 0.838231 0.178989
H66   H     H_    0.999890 0.576997 0.161773 0.181600
H67   H     H_    0.423047 0.001545 0.838229 0.181540
H68   H     H_    0.576947 0.001475 0.161770 0.181881
H69   H     H_    0.996311 0.576866 0.838238 0.178941
H70   H     H_    0.000734 0.423056 0.161755 0.178976
H71   H     H_    0.576951 0.998290 0.838237 0.179305
H72   H     H_    0.423043 0.998508 0.161769 0.182009
H73   H     H_    0.501753 0.923365 0.379110 0.157405
H74   H     H_    0.857536 0.251551 0.255412 0.178004
H75   H     H_    0.501276 0.076639 0.620884 0.156578
H76   H     H_    0.923439 0.500873 0.379133 0.154734
H77   H     H_    0.076495 0.496117 0.620881 0.155738
H78   H     H_    0.498248 0.076618 0.379108 0.157292
H79   H     H_    0.498719 0.923382 0.620885 0.156452
H80   H     H_    0.076707 0.499824 0.379108 0.156725
H81   H     H_    0.923373 0.503225 0.620897 0.157503
H82   H     H_    0.003337 0.423396 0.879110 0.156015
H83   H     H_    0.999932 0.576690 0.120887 0.156558
H84   H     H_    0.423373 0.001391 0.879113 0.156438
H85   H     H_    0.142417 0.748447 0.744509 0.178008
H86   H     H_    0.576616 0.001616 0.120891 0.157189
H87   H     H_    0.996112 0.576519 0.879116 0.155953
H88   H     H_    0.000943 0.423416 0.120872 0.154981
H89   H     H_    0.576616 0.998362 0.879122 0.155061
H90   H     H_    0.423365 0.998329 0.120891 0.157416
H91   H     H_    0.392762 0.946328 0.443644 0.195934
H92   H     H_    0.610649 0.046237 0.556380 0.195948
H93   H     H_    0.951341 0.390583 0.443552 0.195161
H94   H     H_    0.056063 0.605842 0.556428 0.195093
H95   H     H_    0.607242 0.053658 0.443645 0.195754
H96   H     H_    0.686822 0.796179 0.214849 0.177531
H97   H     H_    0.389344 0.953784 0.556376 0.195771
H98   H     H_    0.048806 0.609735 0.443696 0.195928
H99   H     H_    0.943830 0.393879 0.556283 0.195921
H100  H     H_    0.893979 0.443784 0.943719 0.194994
H101  H     H_    0.109818 0.548789 0.056303 0.195888
H102  H     H_    0.545918 0.889109 0.943639 0.195815
H103  H     H_    0.446524 0.107294 0.056341 0.195871
H104  H     H_    0.105864 0.556153 0.943572 0.195083
H105  H     H_    0.890675 0.451318 0.056450 0.195070
H106  H     H_    0.454061 0.110683 0.943610 0.195721
H107  H     H_    0.312456 0.203234 0.785150 0.177378
H108  H     H_    0.553447 0.892588 0.056371 0.195911
H109  H     H_    0.889065 0.450754 0.017085 0.147513
H110  H     H_    0.107314 0.557049 0.982936 0.147612
H111  H     H_    0.554283 0.891215 0.017005 0.147842
H112  H     H_    0.453557 0.112206 0.982976 0.147810
H113  H     H_    0.111198 0.549303 0.016935 0.147812
H114  H     H_    0.892762 0.442937 0.983086 0.147408
H115  H     H_    0.445686 0.108633 0.016975 0.147819
H116  H     H_    0.546418 0.887616 0.983006 0.147891
H117  H     H_    0.387838 0.953273 0.517011 0.147828
H118  H     H_    0.203866 0.313106 0.785087 0.177570
H119  H     H_    0.608595 0.054505 0.483010 0.147740
H120  H     H_    0.942996 0.392653 0.516917 0.147709
H121  H     H_    0.049307 0.611125 0.483063 0.147804
H122  H     H_    0.612159 0.046737 0.517014 0.147873
H123  H     H_    0.391406 0.945492 0.483009 0.147789
H124  H     H_    0.056973 0.607284 0.517065 0.147571
H125  H     H_    0.950765 0.388981 0.482916 0.147674
H126  H     H_    0.056187 0.622492 0.307956 0.347865
H127  H     H_    0.945459 0.377204 0.692343 0.347704
H128  H     H_    0.444189 0.122652 0.192118 0.347957
N1    N     N_R   0.500002 0.999990 0.406006 -0.354764
N2    N     N_R   0.499996 0.000013 0.594009 -0.355049
N3    N     N_R   0.000088 0.500268 0.405994 -0.354868
N4    N     N_R   0.999928 0.499750 0.593993 -0.354590
N5    N     N_R   0.999806 0.499957 0.906009 -0.354272
N6    N     N_R   0.000360 0.500062 0.094006 -0.354841
N7    N     N_R   0.499991 0.999882 0.905993 -0.354974
N8    N     N_R   0.499988 0.999959 0.093995 -0.354766
O1    O     O_3   0.500000 0.000000 0.250000 -0.496970
O2    O     O_R   0.460640 1.000000 0.799590 -0.633390
O3    O     O_R   0.371761 0.931716 0.292240 -0.803628
O4    O     O_2   0.575245 0.129654 0.792357 -0.628603
O5    O     O_R   0.641834 0.149348 0.811638 -0.791139
O6    O     O_2   0.361789 0.854355 0.190685 -0.605679
O7    O     O_R   0.431695 0.871766 0.207757 -0.803860
O8    O     O_2   0.856907 0.641078 0.690628 -0.604322
O9    O     O_R   0.928354 0.625510 0.706651 -0.816660
O10   O     O_2   0.142505 0.358039 0.309354 -0.603532
O11   O     O_R   0.071319 0.374229 0.293218 -0.817059
O12   O     O_2   0.362113 0.854187 0.809331 -0.606194
O13   O     O_R   0.000000 0.539360 0.200410 -0.631576
O14   O     O_R   0.431922 0.871746 0.792210 -0.804170
O15   O     O_2   0.637830 0.145835 0.190661 -0.606723
O16   O     O_R   0.568041 0.128230 0.207790 -0.803780
O17   O     O_2   0.138036 0.354498 0.690640 -0.606423
O18   O     O_R   0.068164 0.371830 0.707758 -0.804771
O19   O     O_2   0.861949 0.645658 0.309331 -0.605815
O20   O     O_R   0.931810 0.628259 0.292218 -0.804978
O21   O     O_2   0.645634 0.861872 0.309333 -0.605987
O22   O     O_R   0.628233 0.931759 0.292238 -0.803771
O23   O     O_2   0.355412 0.138928 0.690624 -0.605752
O24   O     O_R   0.000000 0.460640 0.799590 -0.628431
O25   O     O_R   0.372155 0.068715 0.707576 -0.803318
O26   O     O_2   0.833699 0.462043 0.231820 -0.612915
O27   O     O_R   0.761697 0.448761 0.247754 -0.789381
O28   O     O_2   0.166270 0.538010 0.768220 -0.613332
O29   O     O_R   0.238323 0.551303 0.752341 -0.789384
O30   O     O_2   0.354186 0.138184 0.309282 -0.605854
O31   O     O_R   0.371743 0.068295 0.292228 -0.803697
O32   O     O_2   0.645819 0.862005 0.690691 -0.605433
O33   O     O_R   0.628254 0.931845 0.707786 -0.803338
O34   O     O_2   0.145449 0.638405 0.190681 -0.601946
O35   O     O_R   0.960640 0.500000 0.700410 -0.630169
O36   O     O_R   0.128146 0.568429 0.207716 -0.804016
O37   O     O_2   0.870248 0.424943 0.792301 -0.627768
O38   O     O_R   0.850208 0.358526 0.811633 -0.789338
O39   O     O_R   0.039360 0.500000 0.299590 -0.630513
O40   O     O_R   0.500000 0.960640 0.700410 -0.630971
O41   O     O_R   0.500000 0.039360 0.299590 -0.631018
O42   O     O_R   0.039360 0.500000 0.700410 -0.636528
O43   O     O_R   0.960640 0.500000 0.299590 -0.636722
O44   O     O_R   0.500000 0.039360 0.700410 -0.630658
O45   O     O_3   0.500000 1.000000 0.750000 -0.498065
O46   O     O_R   0.500000 0.960640 0.299590 -0.630999
O47   O     O_R   0.594320 0.944960 0.237250 -0.619232
O48   O     O_R   0.405680 0.055040 0.762750 -0.619079
O49   O     O_R   0.055040 0.594320 0.237250 -0.619429
O50   O     O_R   0.944960 0.405680 0.762750 -0.617392
O51   O     O_R   0.405680 0.055040 0.237250 -0.619320
O52   O     O_R   0.594320 0.944960 0.762750 -0.620456
O53   O     O_R   0.944960 0.405680 0.237250 -0.622398
O54   O     O_R   0.055040 0.594320 0.762750 -0.622750
O55   O     O_R   0.594320 0.055040 0.762750 -0.617453
O56   O     O_3   0.000000 0.500000 0.250000 -0.497670
O57   O     O_R   0.405680 0.944960 0.237250 -0.619423
O58   O     O_R   0.055040 0.405680 0.762750 -0.623235
O59   O     O_R   0.944960 0.594320 0.237250 -0.622141
O60   O     O_R   0.405680 0.944960 0.762750 -0.619812
O61   O     O_R   0.594320 0.055040 0.237250 -0.619479
O62   O     O_R   0.944960 0.594320 0.762750 -0.616207
O63   O     O_R   0.055040 0.405680 0.237250 -0.616461
O64   O     O_R   0.094320 0.444960 0.737250 -0.611761
O65   O     O_R   0.905680 0.555040 0.262750 -0.611546
O66   O     O_R   0.555040 0.094320 0.737250 -0.622251
O67   O     O_3   0.000000 0.500000 0.750000 -0.498855
O68   O     O_R   0.444960 0.905680 0.262750 -0.619380
O69   O     O_R   0.905680 0.555040 0.737250 -0.617660
O70   O     O_R   0.094320 0.444960 0.262750 -0.616423
O71   O     O_R   0.444960 0.905680 0.737250 -0.619587
O72   O     O_R   0.555040 0.094320 0.262750 -0.619410
O73   O     O_R   0.094320 0.555040 0.262750 -0.619679
O74   O     O_R   0.905680 0.444960 0.737250 -0.622302
O75   O     O_R   0.555040 0.905680 0.262750 -0.619618
O76   O     O_R   0.444960 0.094320 0.737250 -0.620644
O77   O     O_R   0.905680 0.444960 0.262750 -0.618966
O78   O     O_R   0.460640 1.000000 0.200410 -0.630964
O79   O     O_R   0.094320 0.555040 0.737250 -0.618838
O80   O     O_R   0.444960 0.094320 0.262750 -0.619529
O81   O     O_R   0.555040 0.905680 0.737250 -0.619564
O82   O     O_2   0.424590 0.963500 0.405813 -0.543658
O83   O     O_2   0.577413 0.032004 0.594218 -0.543222
O84   O     O_2   0.966351 0.423594 0.405737 -0.546511
O85   O     O_2   0.038132 0.574311 0.594235 -0.547081
O86   O     O_2   0.575415 0.036479 0.405814 -0.544040
O87   O     O_2   0.422579 0.968023 0.594215 -0.543713
O88   O     O_2   0.033845 0.576933 0.405834 -0.543338
O89   O     O_R   0.539360 1.000000 0.799590 -0.627900
O90   O     O_2   0.961705 0.425200 0.594138 -0.543566
O91   O     O_2   0.925281 0.461688 0.905865 -0.547627
O92   O     O_2   0.077022 0.533820 0.094165 -0.543583
O93   O     O_2   0.531774 0.922372 0.905795 -0.543867
O94   O     O_2   0.463639 0.075446 0.094177 -0.543941
O95   O     O_2   0.074339 0.538211 0.905765 -0.547326
O96   O     O_2   0.923689 0.466322 0.094264 -0.546552
O97   O     O_2   0.468211 0.077393 0.905776 -0.544046
O98   O     O_2   0.536337 0.924471 0.094198 -0.543804
O99   O     O_2   0.138359 0.645455 0.309322 -0.601661
O100  O     O_R   0.000000 0.460640 0.200410 -0.636308
O101  O     O_R   0.068393 0.628168 0.292277 -0.803827
O102  O     O_2   0.863480 0.353704 0.690542 -0.601643
O103  O     O_R   0.932857 0.371639 0.707963 -0.802727
O104  O     O_2   0.362032 0.145650 0.190650 -0.601572
O105  O     O_R   0.431879 0.128265 0.207784 -0.803781
O106  O     O_2   0.638047 0.854259 0.809321 -0.602879
O107  O     O_R   0.568189 0.871697 0.792210 -0.804468
O108  O     O_2   0.947376 0.268369 0.251959 -0.602062
O109  O     O_R   0.965341 0.337268 0.269777 -0.799631
O110  O     O_2   0.052577 0.731612 0.747912 -0.602050
O111  O     O_R   0.000000 0.539360 0.799590 -0.638704
O112  O     O_R   0.034666 0.662625 0.730157 -0.799723
O113  O     O_2   0.638201 0.854285 0.190700 -0.601729
O114  O     O_R   0.568301 0.871744 0.207764 -0.803784
O115  O     O_2   0.360557 0.144631 0.809291 -0.601888
O116  O     O_R   0.430881 0.127779 0.792477 -0.799674
O117  O     O_2   0.145838 0.361706 0.809269 -0.607918
O118  O     O_R   0.128347 0.431628 0.792227 -0.788691
O119  O     O_2   0.854090 0.638090 0.190707 -0.606643
O120  O     O_R   0.871637 0.568231 0.207793 -0.787899
O121  O     O_2   0.354193 0.861896 0.690702 -0.602913
O122  O     O_R   0.539360 1.000000 0.200410 -0.630970
O123  O     O_R   0.371663 0.931762 0.707794 -0.803723
O124  O     O_2   0.645859 0.138086 0.309287 -0.602339
O125  O     O_R   0.628391 0.068225 0.292190 -0.803693
O126  O     O_2   0.859400 0.642759 0.809303 -0.605531
O127  O     O_R   0.873561 0.571153 0.793127 -0.798768
O128  O     O_2   0.141490 0.358323 0.190656 -0.605439
O129  O     O_R   0.126846 0.429582 0.207073 -0.803256
O130  O     O_2   0.645888 0.136893 0.690532 -0.602605
O131  O     O_R   0.628214 0.067367 0.707883 -0.802473
O132  O     O_2   0.354359 0.861814 0.309319 -0.601455
Zn1   Zn    Zn3+2 0.500000 0.944100 0.269050 1.070765
Zn2   Zn    Zn3+2 0.000000 0.555900 0.230950 1.070792
Zn3   Zn    Zn3+2 0.555900 0.000000 0.769050 1.077439
Zn4   Zn    Zn3+2 0.444100 1.000000 0.230950 1.070980
Zn5   Zn    Zn3+2 0.000000 0.555900 0.769050 1.067808
Zn6   Zn    Zn3+2 0.000000 0.444100 0.230950 1.066700
Zn7   Zn    Zn3+2 0.444100 0.000000 0.769050 1.071813
Zn8   Zn    Zn3+2 0.555900 1.000000 0.230950 1.070870
Zn9   Zn    Zn3+2 0.500000 0.055900 0.730950 1.069511
Zn10  Zn    Zn3+2 0.055900 0.500000 0.269050 1.071047
Zn11  Zn    Zn3+2 0.944100 0.500000 0.730950 1.069949
Zn12  Zn    Zn3+2 0.500000 0.055900 0.269050 1.070788
Zn13  Zn    Zn3+2 0.500000 0.944100 0.730950 1.070344
Zn14  Zn    Zn3+2 0.944100 0.500000 0.269050 1.074296
Zn15  Zn    Zn3+2 0.055900 0.500000 0.730950 1.074030
Zn16  Zn    Zn3+2 0.000000 0.444100 0.769050 1.077431

loop_
_geom_bond_atom_site_label_1
_geom_bond_atom_site_label_2
_ccdc_geom_bond_type
C207  O108  D    
C20   C305  A    
C242  C255  A    
C47   C136  A    
O1    Zn4   S    
C132  C150  S    
C108  C120  A    
C78   C115  A    
C133  C151  S    
C37   O64   A    
O67   Zn11  S    
C110  C118  A    
H16   O3    S    
C36   O57   A    
H19   O9    S    
H20   O11   S    
C239  N8    S    
C203  O101  S    
C197  H90   S    
C54   H13   S    
C112  O2    A    
C111  C237  S    
C79   C194  A    
C91   C127  A    
C195  H88   S    
C237  O36   S    
C250  C267  A    
C63   C98   A    
C147  C164  S    
C135  C199  A    
C11   H112  S    
C176  C257  A    
C28   O49   A    
C81   C117  A    
C193  C201  A    
C35   C284  A    
C83   C119  A    
C280  C285  S    
C18   C271  A    
C91   C215  S    
C177  N6    A    
C46   H57   S    
H26   O22   S    
C258  O42   A    
C90   C195  A    
C80   C116  A    
O44   Zn9   S    
H31   O33   S    
H17   O5    S    
C210  O115  D    
C95   C219  S    
C85   C121  A    
C68   C193  A    
C291  O41   A    
C238  O37   D    
C32   O53   A    
C233  O28   D    
C51   C140  A    
C54   C143  A    
C24   C287  A    
C208  O110  D    
C240  C249  A    
C39   O71   A    
C275  H100  S    
C256  C274  A    
C23   C308  A    
O1    Zn8   S    
C273  H98   S    
C101  C290  A    
C258  O35   A    
C59   H36   S    
C181  O95   S    
H7    O116  S    
C68   H59   S    
C157  H68   S    
C231  O23   D    
O45   Zn7   S    
C97   C131  A    
C57   C192  A    
C76   H54   S    
C75   C136  A    
C55   C144  A    
C73   C108  A    
C69   C142  A    
C96   C220  S    
O77   Zn14  S    
C282  H106  S    
C172  O86   S    
C85   C209  S    
C43   C78   A    
C216  O127  S    
C174  O88   S    
C223  O13   A    
C269  O39   A    
C248  C312  A    
C22   C266  A    
C1    C292  S    
C279  H104  S    
O75   Zn1   S    
C259  C276  A    
C113  H72   S    
C69   H46   S    
C72   H49   S    
C135  C289  A    
C234  O30   D    
O100  Zn6   S    
C171  N4    A    
C293  C310  A    
C228  O18   S    
C169  N2    A    
C213  O120  S    
C222  O8    D    
O64   Zn15  S    
O67   Zn15  S    
C158  C159  T    
O54   Zn5   S    
C82   C118  A    
C37   O58   A    
C67   C141  A    
C202  C239  A    
C265  C283  A    
C204  O103  S    
C203  O99   D    
C235  N7    S    
H12   O127  S    
C15   C278  A    
C45   C81   A    
C196  H89   S    
C10   H111  S    
C280  O40   A    
C70   C105  A    
C49   H85   S    
C3    C296  A    
C29   O50   A    
C184  N8    A    
C196  C235  A    
C225  O10   D    
C215  O125  S    
C18   H119  S    
C64   H42   S    
O66   Zn9   S    
H21   O14   S    
C105  C230  S    
C136  C153  S    
C197  C239  A    
C48   H74   S    
C32   O77   A    
C262  C279  A    
C74   C134  A    
C167  O82   S    
C4    C301  A    
C25   H125  S    
O73   Zn10  S    
C146  C200  A    
C173  N2    A    
C75   H53   S    
C236  O33   S    
C194  C212  A    
C60   C95   A    
C179  C191  A    
C208  O112  S    
C180  N8    A    
C71   C106  A    
H5    O112  S    
O52   Zn3   S    
C19   C304  A    
C187  H80   S    
C199  C224  A    
C11   C282  A    
C223  O100  A    
C143  C161  S    
C28   O73   A    
C192  H76   S    
C4    C306  A    
C89   C214  S    
H6    O114  S    
H11   O125  S    
C23   C270  A    
C12   C297  A    
C260  C277  A    
C5    C240  A    
C184  O98   S    
C44   H41   S    
C16   H116  S    
C46   C191  A    
H8    O118  S    
C103  C123  A    
C271  H95   S    
C104  C229  S    
C61   C96   A    
O122  Zn8   S    
C175  C256  A    
C179  C186  A    
C80   C204  S    
C225  O11   S    
C23   H124  S    
C94   C130  A    
C153  C163  T    
C100  C126  A    
C40   O61   A    
C49   C84   A    
C21   H122  S    
C61   C148  A    
C26   C121  S    
C283  H108  S    
O70   Zn10  S    
C278  H103  S    
C301  C307  A    
C90   C289  A    
O50   Zn16  S    
C31   O81   A    
C206  O106  D    
C211  O117  D    
C93   C217  S    
C53   C142  A    
C293  C298  A    
C94   C218  S    
C83   C207  S    
C140  C158  S    
C37   C123  S    
C141  C159  S    
C64   C99   A    
C294  C311  A    
C183  N7    A    
C199  H83   S    
O49   Zn2   S    
C72   C107  A    
C124  H65   S    
C3    C246  A    
C198  C212  A    
O51   Zn4   S    
C101  C196  A    
C266  H91   S    
C114  C238  S    
O56   Zn10  S    
C209  O113  D    
C184  C265  A    
C291  O46   A    
C231  O25   S    
O45   Zn13  S    
O62   Zn5   S    
C297  C310  A    
C185  H78   S    
C88   C213  S    
C261  C278  A    
C220  O5    S    
C269  C286  S    
C156  C160  T    
C78   C203  S    
C58   C147  A    
C248  C265  A    
C145  C163  S    
C151  C165  T    
C258  C287  S    
O47   Zn8   S    
C216  O126  D    
C31   C118  S    
C88   C125  A    
H28   O27   S    
H128  O105  S    
C62   C97   A    
C84   C208  S    
C295  C312  A    
C169  O83   S    
C227  O16   S    
C18   C303  A    
C106  C122  A    
C221  O6    D    
O1    Zn12  S    
C100  C226  S    
C5    C303  A    
C65   H43   S    
C12   H113  S    
C6    C304  A    
C2    C285  A    
O55   Zn3   S    
C25   C309  A    
O45   Zn3   S    
C244  C262  A    
C32   C119  S    
C245  C263  A    
C82   C206  S    
C246  C264  A    
C19   H120  S    
C75   C110  A    
C87   C211  S    
C26   O47   A    
C154  C162  T    
C247  C288  S    
C114  C116  A    
C204  O102  D    
C71   C140  A    
C58   H35   S    
C16   C300  A    
C52   C141  A    
C45   H52   S    
C14   C298  A    
C60   H37   S    
C47   H63   S    
C87   C123  A    
C180  C261  A    
C76   C132  A    
C76   C111  A    
C182  C263  A    
C98   C222  S    
C226  O12   D    
C21   C306  A    
C2    H61   S    
C17   H117  S    
C27   O48   A    
C42   C129  S    
O56   Zn14  S    
O67   Zn5   S    
C24   H64   S    
C274  H99   S    
C15   C299  A    
C299  C312  A    
C214  O123  S    
C30   O80   A    
C7    C305  A    
C33   C120  S    
C205  O105  S    
C224  N6    S    
C272  H97   S    
C39   C126  S    
C61   H38   S    
C238  O38   S    
C41   O62   A    
C63   C145  A    
O35   Zn11  S    
C138  C155  S    
H23   O18   S    
O61   Zn8   S    
C148  C165  S    
C264  C282  A    
C27   O76   A    
C200  C235  A    
C217  O129  S    
C202  H86   S    
C109  C117  A    
C33   O54   A    
H10   O123  S    
C155  C161  T    
C205  O104  D    
H4    O109  S    
C13   C187  A    
C58   C93   A    
C30   O51   A    
C229  O20   S    
C195  C224  A    
C65   C143  A    
C19   C274  A    
C66   C144  A    
C183  C264  A    
C38   O65   A    
C124  C198  A    
C79   C288  A    
C106  C231  S    
C26   O75   A    
C20   C273  A    
O68   Zn1   S    
C187  C190  A    
C55   C91   A    
C168  N1    S    
C50   C85   A    
C247  O111  A    
C104  C125  A    
C86   C122  A    
C53   H2    S    
C232  O27   S    
C57   H58   S    
C243  C252  A    
C59   C94   A    
C189  H73   S    
C188  H81   S    
C230  O21   D    
C234  O31   S    
C98   C128  A    
C70   C139  A    
C35   C189  A    
C222  O9    S    
C107  C232  S    
C95   C131  A    
C178  N7    A    
C40   O72   A    
C157  C292  A    
C73   H50   S    
C181  N5    A    
O40   Zn13  S    
C93   C129  A    
C51   C86   A    
C107  C119  A    
C27   C122  S    
C110  C236  S    
C198  H82   S    
C303  C306  A    
C89   C126  A    
C180  O94   S    
C304  C309  A    
C172  C253  A    
C257  C275  A    
C39   O60   A    
C67   C103  A    
C185  C302  A    
C44   C80   A    
O111  Zn5   S    
C294  C297  A    
C99   C129  A    
C245  C310  A    
O79   Zn15  S    
C182  N6    A    
C103  C228  S    
C40   C127  S    
C182  O96   S    
C171  C252  A    
C168  C189  A    
C22   C307  A    
O80   Zn12  S    
C169  C250  A    
C71   H48   S    
C8    C293  A    
C16   C277  A    
C28   C115  S    
C50   H96   S    
C298  C311  A    
O56   Zn6   S    
C218  O130  D    
C236  O32   D    
C146  H67   S    
C14   H114  S    
C134  C152  S    
C45   C134  A    
O45   Zn9   S    
C99   C225  S    
H14   O129  S    
C233  O29   S    
C124  C288  A    
C9    H110  S    
C176  O91   S    
C17   C301  A    
O1    Zn1   S    
C77   C114  A    
C167  N1    A    
C200  H84   S    
C25   C268  A    
O41   Zn12  S    
C96   C130  A    
C248  C261  A    
C190  C192  A    
C175  N4    A    
C50   C139  A    
C46   C285  A    
C193  H77   S    
C241  C250  A    
C86   C210  S    
C65   C100  A    
C263  C281  A    
C170  N3    A    
O74   Zn11  S    
C48   C83   A    
C295  C300  A    
C175  O90   S    
C251  C268  A    
O13   Zn2   S    
H15   O131  S    
C171  O85   S    
C24   C188  A    
O65   Zn14  S    
C62   H39   S    
C29   O74   A    
C252  C270  A    
H32   O36   S    
C253  C271  A    
C7    C242  A    
C254  C272  A    
C206  O107  S    
C137  C154  S    
C92   C216  S    
O81   Zn13  S    
C56   H34   S    
C178  O93   S    
C245  C259  A    
C3    C300  A    
C246  C260  A    
C243  C256  A    
O60   Zn7   S    
C228  O17   D    
C183  O97   S    
C214  O121  D    
O67   Zn16  S    
C9    C279  A    
C1    O78   A    
C173  O87   S    
C63   H40   S    
C33   O79   A    
C150  C166  T    
C10   C283  A    
C62   C149  A    
C191  H75   S    
C174  N3    A    
C112  C290  S    
C277  H102  S    
C66   C102  A    
C177  O92   S    
H127  O103  S    
C172  N1    A    
C12   C276  A    
C74   C109  A    
C90   H70   S    
C247  O24   A    
C113  C292  A    
C284  C302  A    
C240  C253  A    
C15   H115  S    
C48   C137  A    
C255  C273  A    
O2    Zn7   S    
C43   C132  A    
C38   O59   A    
H27   O25   S    
C267  H92   S    
C73   C138  A    
C7    C309  A    
C52   H118  S    
C188  C201  A    
C56   C145  A    
C67   H45   S    
O42   Zn15  S    
C47   C82   A    
C194  H87   S    
C218  O131  S    
C14   C275  A    
C284  C291  S    
C281  H105  S    
C22   H123  S    
C1    O122  A    
C20   H121  S    
O89   Zn3   S    
H33   O38   S    
O69   Zn11  S    
C219  O3    S    
C173  C254  A    
C42   O70   A    
C269  O43   A    
C59   C148  A    
C41   O69   A    
C212  N5    S    
C84   C120  A    
C181  C262  A    
O46   Zn1   S    
C55   H24   S    
C41   C128  S    
C232  O26   D    
C176  N5    A    
C77   C133  A    
C42   O63   A    
C17   C272  A    
C92   C128  A    
C219  O132  D    
C9    C294  A    
C101  H71   S    
C217  O128  D    
C112  O89   A    
C36   O68   A    
C13   C286  A    
C11   C296  A    
O63   Zn6   S    
C8    H109  S    
C43   H1    S    
C31   O52   A    
C201  N4    S    
C54   C89   A    
C102  C127  A    
C36   C131  S    
C227  O15   D    
C34   O55   A    
O43   Zn14  S    
C5    C307  A    
C296  C299  A    
C6    C308  A    
C35   H56   S    
C211  O118  S    
C249  C266  A    
C213  O119  D    
C68   C287  A    
C237  O34   D    
C2    C186  A    
O57   Zn4   S    
C280  O44   A    
C186  H79   S    
C207  O109  S    
O59   Zn2   S    
C220  O4    D    
O39   Zn10  S    
C242  C251  A    
C305  C308  A    
C170  O84   S    
O76   Zn9   S    
C270  H94   S    
C13   H62   S    
C105  C121  A    
C179  N2    S    
C177  C259  A    
C152  C164  T    
C178  C260  A    
H3    O107  S    
C72   C137  A    
O71   Zn13  S    
C29   C116  S    
C215  O124  D    
C209  O114  S    
C244  C257  A    
C276  H101  S    
C223  C289  S    
C64   C147  A    
O58   Zn16  S    
C6    C243  A    
H30   O31   S    
H126  O101  S    
C210  O116  S    
C244  C311  A    
C4    C241  A    
C38   C125  S    
C34   O66   A    
C81   C205  S    
C69   C104  A    
C66   H44   S    
C44   C133  A    
C77   H55   S    
C108  C233  S    
C226  O14   S    
C168  C185  A    
C144  C162  S    
C74   H51   S    
C70   H47   S    
O78   Zn4   S    
C268  H93   S    
C52   C87   A    
C149  C166  S    
C142  C160  S    
C190  N3    S    
H9    O120  S    
C109  C234  S    
O56   Zn2   S    
C57   C286  A    
C51   H107  S    
C157  C202  A    
C30   C117  S    
C167  C249  A    
C302  H60   S    
C79   H69   S    
C229  O19   D    
C8    C281  A    
C146  C290  A    
C139  C156  S    
C102  C227  S    
C221  O7    S    
C97   C221  S    
C170  C251  A    
C53   C88   A    
C60   C149  A    
H22   O16   S    
C21   C267  A    
C135  H66   S    
C174  C255  A    
C56   C92   A    
H25   O20   S    
H18   O7    S    
C34   C130  S    
O24   Zn16  S    
O72   Zn12  S    
C113  C197  A    
C111  C115  A    
C241  C254  A    
O48   Zn7   S    
C49   C138  A    
H29   O29   S    
C230  O22   S    
O53   Zn6   S    
C10   C295  A    
