data_mof_unit_36123.cif
_audit_creation_date              2012-12-10T17:49:41-0500
_audit_creation_method            fapswitch 2.2
_symmetry_space_group_name_H-M    P1
_symmetry_Int_Tables_number       1
_space_group_crystal_system       triclinic
_cell_length_a                    10.543623
_cell_length_b                    10.598742
_cell_length_c                    10.054131
_cell_angle_alpha                 90.983387
_cell_angle_beta                  89.376565
_cell_angle_gamma                 94.255787
_cell_volume                      1120.22551963

loop_
_atom_site_label
_atom_site_type_symbol
_atom_type_description
_atom_site_fract_x
_atom_site_fract_y
_atom_site_fract_z
_atom_type_partial_charge
C1    C     C_R   0.524088 0.264819 0.499711 0.945123
C2    C     C_R   0.561624 0.073653 0.625031 0.006751
C3    C     C_R   0.568001 0.136896 0.504096 -0.192238
C4    C     C_R   0.258772 0.505427 0.500988 0.952252
C5    C     C_R   0.599250 0.069437 0.389876 -0.152192
C6    C     C_R   0.582058 0.937790 0.391791 0.438356
C7    C     C_R   0.522767 0.878038 0.504624 -0.174947
C8    C     C_R   0.298332 0.363614 0.136349 0.571915
C9    C     C_R   0.182162 0.344239 0.071947 -0.351040
C10   C     C_R   0.180205 0.345703 0.935816 -0.332665
C11   C     C_R   0.295300 0.364612 0.865074 0.581048
C12   C     C_3   0.961101 0.473964 0.378325 0.555771
C13   C     C_R   0.401069 0.433486 0.928104 -0.006632
C14   C     C_R   0.401950 0.433111 0.072019 0.026039
C15   C     C_R   0.590175 0.566661 0.072237 -0.120158
C16   C     C_R   0.501024 0.741326 0.501404 0.899662
C17   C     C_R   0.590486 0.568753 0.930024 -0.051086
C18   C     C_R   0.742009 0.501848 0.499168 0.872923
C19   C     C_3   0.039541 0.544794 0.621354 0.066522
C20   C     C_3   0.950976 0.425479 0.591219 -0.211088
C21   C     C_3   0.876975 0.505088 0.497345 -0.070083
C22   C     C_3   0.962936 0.625356 0.529754 -0.381208
C23   C     C_3   0.035814 0.394185 0.471241 -0.059009
C24   C     C_3   0.049594 0.592618 0.410385 -0.121679
C25   C     C_3   0.437790 0.827440 0.026026 -0.199185
C26   C     C_3   0.752373 0.841747 0.308884 -0.351213
C27   C     C_3   0.306955 0.169531 0.229325 -0.254615
C28   C     C_3   0.250850 0.183047 0.735182 -0.328455
C29   C     C_2   0.688500 0.652769 0.862704 0.409474
C30   C     C_2   0.082743 0.592373 0.755378 0.478151
C31   C     C_2   0.102019 0.695749 0.319995 0.382767
C32   C     C_3   0.911663 0.514835 0.159963 -0.188096
C33   C     C_2   0.075273 0.263862 0.441866 0.444204
C34   C     C_3   0.124373 0.512092 0.502931 -0.226876
C35   C     C_2   0.671816 0.131476 0.280283 0.499629
C36   C     C_3   0.663260 0.252263 0.985891 -0.336515
C37   C     C_R   0.597283 0.134956 0.744101 -0.282364
C38   C     C_R   0.548330 0.090130 0.866337 0.518095
C39   C     C_R   0.470786 0.976291 0.865314 0.452523
C40   C     C_R   0.454979 0.904386 0.745788 -0.352717
C41   C     C_R   0.511987 0.948949 0.625438 -0.042780
H1    H     H_    0.908449 0.357036 0.664576 0.157397
H2    H     H_    0.399778 0.814566 0.128528 0.250990
H3    H     H_    0.794042 0.806564 0.214973 0.201361
H4    H     H_    0.755507 0.766870 0.384433 0.156349
H5    H     H_    0.813476 0.926935 0.340698 0.185111
H6    H     H_    0.380273 0.144613 0.155383 0.237630
H7    H     H_    0.211048 0.131089 0.197077 0.182108
H8    H     H_    0.327140 0.121910 0.323314 0.167811
H9    H     H_    0.147392 0.182330 0.715561 0.149708
H10   H     H_    0.267819 0.129674 0.826897 0.188705
H11   H     H_    0.293928 0.132503 0.650597 0.185318
H12   H     H_    0.391712 0.819563 0.747167 0.193564
H13   H     H_    0.678285 0.678563 0.760576 0.138854
H14   H     H_    0.165294 0.659376 0.764066 0.046740
H15   H     H_    0.037378 0.750353 0.265679 0.060286
H16   H     H_    0.855932 0.474875 0.074232 0.216642
H17   H     H_    0.009057 0.542620 0.122906 0.196525
H18   H     H_    0.864685 0.598463 0.198433 0.121665
H19   H     H_    0.169563 0.239399 0.468142 0.077614
H20   H     H_    0.680740 0.082706 0.185517 0.139723
H21   H     H_    0.665835 0.302101 0.083061 0.245598
H22   H     H_    0.650506 0.327664 0.914140 0.178041
H23   H     H_    0.661334 0.623474 0.127222 0.186878
H24   H     H_    0.755227 0.209103 0.969245 0.173230
H25   H     H_    0.098430 0.306366 0.125159 0.239194
H26   H     H_    0.093141 0.312277 0.886336 0.197122
H27   H     H_    0.928658 0.719496 0.555069 0.160251
H28   H     H_    0.657674 0.221311 0.736813 0.167615
H29   H     H_    0.543088 0.825936 0.031254 0.187394
H30   H     H_    0.396102 0.747261 0.964260 0.139451
N1    N     N_R   0.498800 0.498800 0.142780 -0.110356
N2    N     N_R   0.498760 0.498720 0.857170 -0.153773
O1    O     O_R   0.500000 0.316780 0.614690 -0.564630
O2    O     O_3   0.625561 0.868790 0.284606 -0.620354
O3    O     O_3   0.311566 0.301836 0.253681 -0.590852
O4    O     O_3   0.306550 0.308792 0.740961 -0.554258
O5    O     O_2   0.781941 0.697689 0.922438 -0.598252
O6    O     O_2   0.023203 0.558946 0.854881 -0.585915
O7    O     O_2   0.216281 0.721264 0.309156 -0.574118
O8    O     O_3   0.915339 0.421161 0.256473 -0.570442
O9    O     O_2   0.999949 0.183338 0.393609 -0.554351
O10   O     O_2   0.731098 0.233315 0.298502 -0.521207
O11   O     O_3   0.559998 0.159187 0.985537 -0.635615
O12   O     O_R   0.499990 0.316750 0.385360 -0.538549
O13   O     O_R   0.313960 0.499980 0.614650 -0.604506
O14   O     O_R   0.313940 0.499960 0.385310 -0.539918
O15   O     O_R   0.500010 0.683250 0.614640 -0.684311
O16   O     O_R   0.500000 0.683220 0.385310 -0.545642
O17   O     O_R   0.686060 0.500040 0.614690 -0.665855
O18   O     O_R   0.686040 0.500020 0.385350 -0.592975
O19   O     O_3   0.401584 0.943658 0.979024 -0.625927
Zn1   Zn    Zn3+2 0.500010 0.500020 0.653130 0.945920
Zn2   Zn    Zn3+2 0.499990 0.499980 0.346870 1.042645

loop_
_geom_bond_atom_site_label_1
_geom_bond_atom_site_label_2
_ccdc_geom_bond_type
C27   H7    S    
C37   H28   S    
C18   C21   S    
C17   C29   S    
C19   C20   S    
C32   H17   S    
C25   H2    S    
C26   H3    S    
C6    O2    S    
C4    O14   A    
C10   H26   S    
C32   O8    S    
C12   C23   S    
C1    O1    A    
C38   C39   A    
C28   H10   S    
C4    O13   A    
C29   H13   S    
C2    C41   A    
O14   Zn2   S    
C8    O3    S    
O16   Zn2   S    
C9    H25   S    
C11   O4    S    
C26   H4    S    
C28   H9    S    
C29   O5    D    
C8    C9    A    
C23   C33   S    
C15   H23   S    
C25   H30   S    
N2    Zn1   S    
C31   H15   S    
C36   H22   S    
C33   O9    D    
N1    Zn2   S    
C16   O16   A    
C21   C22   S    
C17   N2    A    
O1    Zn1   S    
C32   H16   S    
C36   H21   S    
C1    O12   A    
C4    C34   S    
C18   O17   A    
C31   O7    D    
C19   C22   S    
C39   C40   A    
C35   O10   D    
C36   H24   S    
C12   C21   S    
C24   C34   S    
C1    C3    S    
C37   C38   A    
C15   N1    A    
O13   Zn1   S    
O12   Zn2   S    
C20   C23   S    
C23   C34   S    
C26   O2    S    
C35   H20   S    
C28   O4    S    
C22   H27   S    
C30   O6    D    
C40   C41   A    
C13   N2    A    
C33   H19   S    
C22   C24   S    
C18   O18   A    
C27   O3    S    
C39   O19   S    
O17   Zn1   S    
C9    C10   A    
C27   H6    S    
C15   C17   A    
O15   Zn1   S    
C7    C16   S    
C25   O19   S    
C8    C14   A    
C38   O11   S    
C14   N1    A    
C3    C5    A    
C19   C34   S    
C20   H1    S    
C6    C7    A    
C28   H11   S    
C30   H14   S    
C12   C24   S    
C2    C3    A    
C24   C31   S    
O18   Zn2   S    
C11   C13   A    
C2    C37   A    
C5    C6    A    
C36   O11   S    
C5    C35   S    
C12   O8    S    
C7    C41   A    
C10   C11   A    
C26   H5    S    
C20   C21   S    
C40   H12   S    
C16   O15   A    
C25   H29   S    
C32   H18   S    
C13   C14   A    
C19   C30   S    
C27   H8    S    
