data_mof_unit_52482.cif
_audit_creation_date              2012-12-11T17:37:53-0500
_audit_creation_method            fapswitch 2.2
_symmetry_space_group_name_H-M    P1
_symmetry_Int_Tables_number       1
_space_group_crystal_system       triclinic
_cell_length_a                    12.979093
_cell_length_b                    13.045415
_cell_length_c                    15.316593
_cell_angle_alpha                 116.036774
_cell_angle_beta                  64.205945
_cell_angle_gamma                 96.722021
_cell_volume                      2089.22171705

loop_
_atom_site_label
_atom_site_type_symbol
_atom_type_description
_atom_site_fract_x
_atom_site_fract_y
_atom_site_fract_z
_atom_type_partial_charge
C1    C     C_R   0.022143 0.833889 0.030996 -0.100839
C2    C     C_R   0.707716 0.432204 0.303723 -0.043644
C3    C     C_R   0.637360 0.558026 0.017619 0.045527
C4    C     C_R   0.998257 0.823467 0.320672 -0.125158
C5    C     C_R   0.322443 0.578441 0.009384 -0.053488
C6    C     C_R   0.905135 0.201074 0.791346 -0.102698
C7    C     C_R   0.216720 0.447932 0.685670 -0.105846
C8    C     C_R   0.095719 0.251321 0.046848 -0.128160
C9    C     C_R   0.996865 0.167558 0.950180 -0.124856
C10   C     C_R   0.319704 0.538443 0.780481 -0.126790
C11   C     C_R   0.244913 0.480210 0.106786 -0.135023
C12   C     C_R   0.704184 0.402541 0.207549 -0.044441
C13   C     C_R   0.985746 0.302400 0.697630 -0.160513
C14   C     C_R   0.336967 0.540806 0.073834 0.116197
C15   C     C_R   0.927898 0.208571 0.698213 0.065894
C16   C     C_R   0.325183 0.473464 0.678752 0.053585
C17   C     C_R   0.081393 0.145631 0.974528 0.132041
C18   C     C_R   0.312162 0.748673 0.352002 -0.413215
C19   C     C_R   0.201817 0.796224 0.388771 -0.194162
C20   C     C_R   0.186947 0.898449 0.384462 0.061182
C21   C     C_R   0.283947 0.950324 0.339469 -0.456806
C22   C     C_R   0.394361 0.901427 0.300924 0.684619
C23   C     C_R   0.739710 0.577671 0.946721 -0.203624
C24   C     C_R   0.408403 0.801710 0.308931 0.683546
C25   C     C_R   0.050067 0.058516 0.536912 -0.246520
C26   C     C_R   0.939581 0.114057 0.601831 0.039750
C27   C     C_R   0.846735 0.076084 0.575576 0.116321
C28   C     C_R   0.868854 0.977887 0.480644 -0.201312
C29   C     C_R   0.979953 0.922017 0.416513 0.108728
C30   C     C_R   0.071505 0.961101 0.443885 0.104102
C31   C     C_R   0.632907 0.074044 0.670416 -0.316668
C32   C     C_R   0.522113 0.130461 0.735916 0.785016
C33   C     C_R   0.505842 0.249349 0.776179 -0.430081
C34   C     C_R   0.968780 0.717628 0.314848 0.725714
C35   C     C_R   0.600226 0.311943 0.750604 0.724631
C36   C     C_R   0.710933 0.255803 0.684862 -0.311052
C37   C     C_R   0.728756 0.136272 0.644718 -0.026617
C38   C     C_R   0.917251 0.259678 0.369074 -0.097728
C39   C     C_R   0.811827 0.286914 0.376251 -0.137395
C40   C     C_R   0.738921 0.382069 0.465590 0.058844
C41   C     C_R   0.773092 0.449654 0.547802 -0.049213
C42   C     C_R   0.878779 0.422648 0.540045 -0.073245
C43   C     C_R   0.950506 0.327295 0.451041 -0.145829
C44   C     C_R   0.528482 0.423802 0.566954 -0.221938
C45   C     C_R   0.661837 0.477769 0.042853 0.722964
C46   C     C_R   0.422408 0.459050 0.581633 0.055297
C47   C     C_R   0.410595 0.482498 0.504874 0.031498
C48   C     C_R   0.505729 0.461046 0.410099 -0.195673
C49   C     C_R   0.612899 0.427445 0.395095 0.086453
C50   C     C_R   0.626233 0.410616 0.474618 0.033978
C51   C     C_R   0.253964 0.488067 0.451952 -0.285479
C52   C     C_R   0.153266 0.540214 0.471127 -0.316889
C53   C     C_R   0.101922 0.643117 0.562538 0.814845
C54   C     C_R   0.152761 0.695532 0.633566 -0.282245
C55   C     C_R   0.254174 0.644415 0.614060 -0.186648
C56   C     C_R   0.055235 0.816895 0.218723 -0.241434
C57   C     C_R   0.304438 0.538928 0.524172 0.135183
C58   C     C_2   0.431860 0.563261 0.101830 -0.187914
C59   C     C_2   0.525559 0.598133 0.042538 -0.038921
C60   C     C_2   0.892803 0.963893 0.025491 -0.170588
C61   C     C_2   0.876239 0.054380 0.118021 -0.117101
C62   C     C_R   0.801601 0.491845 0.304773 -0.048510
C63   C     C_R   0.926862 0.748576 0.930300 -0.110973
C64   C     C_R   0.948723 0.853977 0.994591 0.124498
H1    H     H_    0.191464 0.401728 0.620915 0.108542
H2    H     H_    0.155653 0.266636 0.081911 0.114736
H3    H     H_    0.965281 0.104854 0.895142 0.106018
H4    H     H_    0.388769 0.576537 0.802029 0.135577
H5    H     H_    0.011181 0.335709 0.638506 0.096246
H6    H     H_    0.323031 0.671526 0.358231 0.197080
H7    H     H_    0.649288 0.343271 0.177121 0.176323
H8    H     H_    0.273743 0.030331 0.337359 0.187272
H9    H     H_    0.119106 0.089332 0.561454 0.159108
H10   H     H_    0.800508 0.945231 0.455745 0.151066
H11   H     H_    0.420137 0.292949 0.827077 0.188880
H12   H     H_    0.782552 0.305679 0.665050 0.163077
H13   H     H_    0.031899 0.305893 0.445524 0.113618
H14   H     H_    0.748066 0.625869 0.902590 0.147574
H15   H     H_    0.973299 0.186153 0.300202 0.103788
H16   H     H_    0.786046 0.233959 0.313109 0.135151
H17   H     H_    0.718232 0.523622 0.617510 0.147865
H18   H     H_    0.904556 0.475021 0.603571 0.126867
H19   H     H_    0.534904 0.407761 0.628223 0.174683
H20   H     H_    0.291824 0.407490 0.381625 0.164893
H21   H     H_    0.114837 0.500556 0.415249 0.173121
H22   H     H_    0.113556 0.775719 0.703906 0.157791
H23   H     H_    0.292770 0.686221 0.669650 0.158678
H24   H     H_    0.431437 0.531389 0.156298 0.210619
H25   H     H_    0.524147 0.636926 0.993397 0.140546
H26   H     H_    0.855689 0.969248 0.976217 0.142903
H27   H     H_    0.906986 0.051664 0.172461 0.118479
H28   H     H_    0.099813 0.882915 0.196314 0.139715
H29   H     H_    0.366457 0.642431 0.983290 0.091068
N1    N     N_R   0.037320 0.720000 0.995830 -0.042585
N2    N     N_R   0.946240 0.290870 0.848020 -0.047756
N3    N     N_R   0.146160 0.501170 0.788610 -0.044771
N4    N     N_R   0.025750 0.332680 0.063570 -0.051263
N5    N     N_R   0.962680 0.280000 0.004170 -0.050489
N6    N     N_R   0.209230 0.553860 0.848010 -0.046400
N7    N     N_R   0.175100 0.482030 0.063570 -0.051636
N8    N     N_R   0.996810 0.351820 0.788610 -0.037865
N9    N     N_R   0.790770 0.446140 0.151990 -0.050537
N10   N     N_R   0.824900 0.517970 0.936430 -0.080645
N11   N     N_R   0.003190 0.648180 0.211390 -0.111482
N12   N     N_R   0.774330 0.457010 0.995830 -0.112621
N13   N     N_R   0.053760 0.709130 0.151980 -0.069176
N14   N     N_R   0.853840 0.498830 0.211390 -0.056430
N15   N     N_R   0.974250 0.667320 0.936430 -0.042834
N16   N     N_R   0.225670 0.542990 0.004170 -0.052408
Ni1   Ni    Ni4+2 0.130310 0.630310 0.000000 0.214405
Ni2   Ni    Ni4+2 0.869690 0.369690 0.000000 0.247597
Ni3   Ni    Ni4+2 0.985660 0.509480 0.863750 0.215989
Ni4   Ni    Ni4+2 0.014340 0.490520 0.136250 0.236842
H30   H     H_    0.062787 0.897729 0.076192 0.090384
H31   H     H_    0.855680 0.139504 0.818469 0.114075
H32   H     H_    0.223333 0.451434 0.168543 0.108194
F1    F     F_    0.515246 0.756607 0.275448 -0.678209
H33   H     H_    0.128017 0.756445 0.425066 0.229168
F2    F     F_    0.487606 0.952804 0.258901 -0.665388
H34   H     H_    0.644058 0.982038 0.640848 0.182998
F3    F     F_    0.430392 0.069762 0.760749 -0.687809
F4    F     F_    0.584493 0.427209 0.789354 -0.740926
H35   H     H_    0.497711 0.481415 0.351660 0.164517
F5    F     F_    0.003020 0.692306 0.582110 -0.693675
F6    F     F_    0.930059 0.685802 0.396016 -0.710150
F7    F     F_    0.588669 0.414027 0.088415 -0.758367
H36   H     H_    0.834735 0.517645 0.364062 0.188508
H37   H     H_    0.882683 0.734134 0.881039 0.108287

loop_
_geom_bond_atom_site_label_1
_geom_bond_atom_site_label_2
_ccdc_geom_bond_type
C18   H6    S    
C8    H2    S    
C9    N5    A    
C41   C42   A    
C3    C23   A    
C19   C20   A    
C42   H18   S    
C44   H19   S    
C28   H10   S    
C48   H35   S    
N11   N13   A    
N4    N5    A    
C20   C30   S    
C53   C54   A    
N8    Ni3   S    
C7    N3    A    
N3    Ni3   S    
N1    N15   A    
C26   C27   A    
C13   H5    S    
C18   C24   A    
C28   C29   A    
C38   C39   A    
C11   C14   A    
C47   C57   S    
C38   H15   S    
N3    N6    A    
C18   C19   A    
C59   H25   S    
N14   Ni4   S    
C36   H12   S    
C6    C15   A    
C54   C55   A    
C33   H11   S    
C23   N10   A    
C35   C36   A    
C19   H33   S    
C45   N12   A    
C1    N1    A    
C31   H34   S    
C51   C57   A    
C4    C29   S    
N12   Ni2   S    
C2    C12   A    
N7    N16   A    
C21   C22   A    
C4    C56   A    
N9    Ni2   S    
C44   C46   A    
C22   F2    S    
C14   C58   S    
C4    C34   A    
C21   H8    S    
C51   C52   A    
C47   C48   A    
C16   C46   S    
C39   C40   A    
C54   H22   S    
C15   C26   S    
C62   N14   A    
C58   C59   D    
N6    Ni1   S    
C3    C45   A    
C34   N11   A    
C31   C37   A    
C60   C61   D    
C8    N4    A    
C9    H3    S    
C12   N9    A    
C29   C30   A    
C2    C49   S    
C7    H1    S    
C31   C32   A    
C45   F7    S    
C41   H17   S    
C24   F1    S    
N9    N14   A    
N10   N12   A    
C11   H32   S    
C56   N13   A    
C5    C14   A    
C9    C17   A    
C40   C41   A    
C12   H7    S    
C52   H21   S    
C6    N2    A    
C60   H26   S    
C13   C15   A    
C22   C24   A    
C42   C43   A    
N4    Ni4   S    
C1    C64   A    
C52   C53   A    
N13   Ni1   S    
C44   C50   A    
C25   C30   A    
C46   C47   A    
C48   C49   A    
N5    Ni2   S    
C32   F3    S    
C35   F4    S    
C7    C16   A    
N7    Ni4   S    
C63   H37   S    
C53   F5    S    
C58   H24   S    
C5    H29   S    
C10   H4    S    
C43   H13   S    
N2    N8    A    
C8    C17   A    
C60   C64   S    
C32   C33   A    
C55   C57   A    
C25   C26   A    
C38   C43   A    
N2    Ni2   S    
N16   Ni1   S    
C39   H16   S    
C62   H36   S    
C5    N16   A    
C27   C37   S    
C34   F6    S    
C40   C50   S    
N11   Ni4   S    
C33   C35   A    
N1    Ni1   S    
C25   H9    S    
C23   H14   S    
C55   H23   S    
C10   N6    A    
C6    H31   S    
N10   Ni3   S    
C63   C64   A    
N15   Ni3   S    
C56   H28   S    
C20   C21   A    
C36   C37   A    
C49   C50   A    
C1    H30   S    
C27   C28   A    
C2    C62   A    
C11   N7    A    
C10   C16   A    
C63   N15   A    
C13   N8    A    
C51   H20   S    
C61   H27   S    
C3    C59   S    
