data_mof_unit_29010.cif
_audit_creation_date              2012-12-10T18:31:48-0500
_audit_creation_method            fapswitch 2.2
_symmetry_space_group_name_H-M    P1
_symmetry_Int_Tables_number       1
_space_group_crystal_system       triclinic
_cell_length_a                    10.67264
_cell_length_b                    14.823481
_cell_length_c                    15.309584
_cell_angle_alpha                 81.909071
_cell_angle_beta                  89.718949
_cell_angle_gamma                 102.71649
_cell_volume                      2337.51940251

loop_
_atom_site_label
_atom_site_type_symbol
_atom_type_description
_atom_site_fract_x
_atom_site_fract_y
_atom_site_fract_z
_atom_type_partial_charge
C1    C     C_R   0.484341 0.441590 0.662777 0.890690
C2    C     C_3   0.121604 0.500586 0.497689 -0.221321
C3    C     C_3   0.100623 0.589536 0.437552 0.198853
C4    C     C_3   0.067042 0.494954 0.593841 0.181490
C5    C     C_R   0.496499 0.406102 0.755673 -0.097841
C6    C     C_R   0.559301 0.591758 0.244004 -0.042343
C7    C     C_R   0.484354 0.279261 0.875823 -0.124761
C8    C     C_R   0.465806 0.310294 0.787595 -0.099541
C9    C     C_R   0.548677 0.470009 0.811817 -0.169334
C10   C     C_R   0.575740 0.440324 0.898728 0.118732
C11   C     C_R   0.534987 0.343940 0.932284 0.134241
C12   C     C_R   0.741781 0.499761 0.498378 0.978736
C13   C     C_R   0.625421 0.505668 0.956052 -0.023657
C14   C     C_R   0.598449 0.477231 0.047345 0.026092
C15   C     C_R   0.564497 0.380478 0.079976 -0.141466
C16   C     C_R   0.537945 0.314520 0.022593 -0.171622
C17   C     C_R   0.696478 0.598467 0.926905 0.361330
C18   C     C_R   0.714956 0.664749 0.984772 -0.201843
C19   C     C_R   0.664200 0.640778 0.071213 0.077954
C20   C     C_R   0.605066 0.546593 0.102675 0.099976
C21   C     C_R   0.673097 0.709152 0.127275 -0.096132
C22   C     C_R   0.622216 0.684495 0.213855 -0.096035
C23   C     C_R   0.521736 0.558311 0.337098 0.936199
C24   C     C_R   0.547199 0.524942 0.187062 -0.163386
C25   C     C_R   0.702710 0.840287 0.634593 -0.138958
C26   C     C_R   0.673826 0.753529 0.605860 0.051613
C27   C     C_R   0.498890 0.792629 0.526206 0.085841
C28   C     C_R   0.518230 0.879702 0.557669 0.000325
C29   C     C_R   0.625524 0.904801 0.610520 -0.035415
C30   C     C_R   0.439026 0.944218 0.533703 -0.110166
C31   C     C_R   0.482563 0.038323 0.547228 -0.088386
C32   C     C_R   0.576477 0.057436 0.611879 0.359211
C33   C     C_R   0.650340 0.992129 0.640746 0.373535
C34   C     C_R   0.258101 0.500156 0.499941 0.976972
C35   C     C_R   0.313423 0.917338 0.503270 0.303320
C36   C     C_R   0.252484 0.984440 0.458951 0.404503
C37   C     C_R   0.315591 0.080238 0.447605 -0.116201
C38   C     C_R   0.427141 0.107621 0.497296 -0.066200
C39   C     C_R   0.269487 0.150896 0.392567 0.378095
C40   C     C_R   0.324209 0.244402 0.396652 -0.066723
C41   C     C_R   0.483019 0.203787 0.491475 0.071364
C42   C     C_3   0.902974 0.407055 0.462773 0.704979
C43   C     C_3   0.047775 0.413220 0.458653 -0.458982
C44   C     C_3   0.955275 0.589256 0.437490 0.196730
C45   C     C_3   0.925325 0.501257 0.591355 -0.517801
C46   C     C_3   0.877864 0.498409 0.495850 -0.229524
H1    H     H_    0.943849 0.650503 0.468922 0.161078
H2    H     H_    0.150978 0.651691 0.465890 0.202033
H3    H     H_    0.510028 0.240996 0.049446 0.170709
H4    H     H_    0.634236 0.737151 0.257378 0.175767
H5    H     H_    0.768192 0.735403 0.961780 0.201414
H6    H     H_    0.424469 0.259882 0.745114 0.208106
H7    H     H_    0.559756 0.354331 0.149732 0.170836
H8    H     H_    0.283830 0.298887 0.360663 0.175235
H9    H     H_    0.784294 0.855349 0.675990 0.225939
H10   H     H_    0.730900 0.702912 0.626417 0.179542
H11   H     H_    0.426069 0.772823 0.479526 0.167162
H12   H     H_    0.082991 0.415883 0.389620 0.258186
H13   H     H_    0.913064 0.566925 0.614356 0.256597
H14   H     H_    0.866641 0.443263 0.638608 0.237063
H15   H     H_    0.072681 0.426100 0.631549 0.171125
N1    N     N_R   0.573860 0.731700 0.552730 -0.126524
N2    N     N_R   0.426060 0.268290 0.447230 -0.142531
O1    O     O_R   0.462770 0.383110 0.605620 -0.605042
O2    O     O_R   0.510160 0.531900 0.639510 -0.602175
O3    O     O_R   0.661510 0.425600 0.483070 -0.554031
O4    O     O_R   0.708900 0.574390 0.516960 -0.641164
O5    O     O_R   0.489840 0.468100 0.360490 -0.613317
O6    O     O_R   0.537230 0.616890 0.394380 -0.611234
O7    O     O_R   0.291100 0.425610 0.483040 -0.640405
O8    O     O_R   0.338490 0.574400 0.516930 -0.565931
Zn1   Zn    Zn3+2 0.468350 0.400660 0.477370 1.018327
Zn2   Zn    Zn3+2 0.531650 0.599340 0.522630 1.022847
Cl1   Cl    Cl    0.840075 0.389612 0.355931 -0.466840
Cl2   Cl    Cl    0.154763 0.581516 0.655325 -0.487251
H16   H     H_    0.490897 0.455471 0.209380 0.157367
H17   H     H_    0.455104 0.205280 0.900566 0.173822
H18   H     H_    0.561228 0.543699 0.788566 0.207682
Cl3   Cl    Cl    0.830250 0.302656 0.537046 -0.553501
Cl4   Cl    Cl    0.784781 0.631582 0.825124 -0.596921
H19   H     H_    0.720588 0.781211 0.104489 0.164821
Cl5   Cl    Cl    0.773541 0.020982 0.715959 -0.462174
H20   H     H_    0.570843 0.229560 0.522311 0.230976
Cl6   Cl    Cl    0.090836 0.945759 0.430260 -0.414224
H21   H     H_    0.069334 0.348407 0.495521 0.224853
Cl7   Cl    Cl    0.579991 0.148490 0.676010 -0.543938
Cl8   Cl    Cl    0.217505 0.805830 0.543764 -0.520924
Cl9   Cl    Cl    0.152100 0.130800 0.312612 -0.472193
Cl10  Cl    Cl    0.891829 0.611410 0.329645 -0.461921
Cl11  Cl    Cl    0.174834 0.602807 0.328919 -0.512391

loop_
_geom_bond_atom_site_label_1
_geom_bond_atom_site_label_2
_ccdc_geom_bond_type
C45   H14   S    
C23   O6    A    
C19   C20   A    
C7    C8    A    
C45   C46   S    
C7    C11   A    
C40   N2    A    
C30   C35   A    
C3    Cl11  S    
C1    C5    S    
C15   H7    S    
C36   C37   A    
C19   C21   A    
C30   C31   A    
C15   C16   A    
C6    C22   A    
C29   C33   A    
C3    H2    S    
O2    Zn2   S    
C18   C19   A    
C42   C46   S    
C4    Cl2   S    
C43   H12   S    
C35   Cl8   S    
O3    Zn1   S    
C20   C24   A    
C1    O2    A    
N1    Zn2   S    
O6    Zn2   S    
O4    Zn2   S    
C33   Cl5   S    
C34   O7    A    
C44   H1    S    
C22   H4    S    
C2    C34   S    
C6    C24   A    
C42   Cl3   S    
C21   C22   A    
C39   Cl9   S    
C44   C46   S    
C18   H5    S    
C4    C45   S    
C25   C29   A    
C12   O4    A    
C3    C44   S    
C42   Cl1   S    
C43   H21   S    
C14   C20   A    
C16   H3    S    
C38   C41   A    
C12   C46   S    
C27   H11   S    
C39   C40   A    
O8    Zn2   S    
C24   H16   S    
C25   C26   A    
C12   O3    A    
C4    H15   S    
C17   Cl4   S    
C35   C36   A    
C23   O5    A    
C2    C4    S    
C5    C9    A    
C37   C38   A    
C27   N1    A    
C11   C16   A    
C31   C32   A    
C2    C43   S    
O5    Zn1   S    
C32   Cl7   S    
C17   C18   A    
C21   H19   S    
C40   H8    S    
C42   C43   S    
C41   N2    A    
C1    O1    A    
C9    C10   A    
C8    H6    S    
C28   C29   A    
C25   H9    S    
C10   C13   A    
C26   H10   S    
C5    C8    A    
C13   C17   A    
C31   C38   A    
C7    H17   S    
C32   C33   A    
C28   C30   A    
C2    C3    S    
C26   N1    A    
C37   C39   A    
C36   Cl6   S    
C6    C23   S    
C9    H18   S    
O1    Zn1   S    
C10   C11   A    
N2    Zn1   S    
C45   H13   S    
C27   C28   A    
C14   C15   A    
O7    Zn1   S    
C13   C14   A    
C34   O8    A    
C44   Cl10  S    
C41   H20   S    
