data_mof_unit_19872.cif
_audit_creation_date              2012-12-10T18:53:01-0500
_audit_creation_method            fapswitch 2.2
_symmetry_space_group_name_H-M    P1
_symmetry_Int_Tables_number       1
_space_group_crystal_system       triclinic
_cell_length_a                    9.820131
_cell_length_b                    10.720872
_cell_length_c                    16.738712
_cell_angle_alpha                 90.117334
_cell_angle_beta                  85.187343
_cell_angle_gamma                 90.00416
_cell_volume                      1756.04095541

loop_
_atom_site_label
_atom_site_type_symbol
_atom_type_description
_atom_site_fract_x
_atom_site_fract_y
_atom_site_fract_z
_atom_type_partial_charge
C1    C     C_R   0.500045 0.740196 0.500090 0.868391
C2    C     C_R   0.499951 0.259801 0.499964 0.872894
C3    C     C_R   0.623888 0.936072 0.485768 -0.196235
C4    C     C_R   0.376126 0.063897 0.514461 -0.197352
C5    C     C_R   0.623844 0.063850 0.485655 -0.195669
C6    C     C_R   0.376173 0.936115 0.514583 -0.193530
C7    C     C_R   0.499961 0.127382 0.500000 -0.015276
C8    C     C_R   0.500045 0.872593 0.500183 -0.011047
C9    C     C_R   0.935038 0.421393 0.450733 -0.080387
C10   C     C_R   0.064965 0.578636 0.549255 -0.078741
C11   C     C_R   0.079074 0.421418 0.450758 -0.078363
C12   C     C_R   0.920925 0.578629 0.549219 -0.074312
C13   C     C_R   0.481254 0.507670 0.653122 0.880064
C14   C     C_R   0.518950 0.502112 0.346496 0.880622
C15   C     C_R   0.471261 0.551227 0.735820 -0.062122
C16   C     C_R   0.530762 0.523599 0.260354 -0.066712
C17   C     C_R   0.584864 0.610449 0.764388 -0.205774
C18   C     C_R   0.412360 0.542169 0.221024 -0.210376
C19   C     C_R   0.576094 0.661589 0.840358 -0.221108
C20   C     C_R   0.422005 0.577595 0.141481 -0.214679
C21   C     C_R   0.455136 0.650488 0.890309 0.167512
C22   C     C_R   0.550512 0.595642 0.099626 0.171631
C23   C     C_R   0.337722 0.597661 0.860874 0.245855
C24   C     C_R   0.670641 0.574409 0.138285 0.240837
C25   C     C_R   0.346323 0.549280 0.782917 -0.277933
C26   C     C_R   0.659625 0.537986 0.218605 -0.275276
C27   C     C_2   0.459459 0.672797 0.976106 -0.237105
C28   C     C_2   0.559886 0.618954 0.013264 -0.232052
H1    H     H_    0.680837 0.618454 0.727824 0.158198
H2    H     H_    0.311680 0.530789 0.251885 0.164214
H3    H     H_    0.751907 0.523984 0.248693 0.156367
H4    H     H_    0.256737 0.507632 0.760126 0.155386
H5    H     H_    0.646589 0.577588 0.978167 0.185122
H6    H     H_    0.370449 0.712745 0.009500 0.174879
H7    H     H_    0.327995 0.587069 0.112755 0.149059
H8    H     H_    0.666094 0.704626 0.861762 0.148681
H9    H     H_    0.720246 0.887408 0.474112 0.156383
H10   H     H_    0.279767 0.112562 0.526107 0.156575
H11   H     H_    0.885933 0.358627 0.411394 0.121033
H12   H     H_    0.114075 0.641409 0.588592 0.121572
H13   H     H_    0.139446 0.358657 0.411433 0.125560
H14   H     H_    0.860556 0.641439 0.588513 0.119012
N1    N     N_R   0.142790 0.500030 0.500020 -0.077073
N2    N     N_R   0.857210 0.499970 0.499980 -0.076376
O1    O     O_R   0.385380 0.683250 0.500010 -0.625951
O2    O     O_R   0.614620 0.316750 0.499990 -0.623481
O3    O     O_R   0.614710 0.683220 0.500000 -0.629020
O4    O     O_R   0.385290 0.316780 0.500000 -0.625623
O5    O     O_R   0.371780 0.500040 0.615800 -0.618539
O6    O     O_R   0.628220 0.499960 0.384200 -0.620314
O7    O     O_R   0.601110 0.500010 0.615800 -0.618752
O8    O     O_R   0.398890 0.499990 0.384200 -0.620340
Zn1   Zn    Zn3+2 0.346870 0.500020 0.500000 0.943673
Zn2   Zn    Zn3+2 0.653130 0.499980 0.500000 0.943178
N3    N     N_2   0.212988 0.588595 0.910279 -0.326510
H15   H     H_    0.128070 0.606963 0.879890 0.222496
C29   C     C_3   0.197826 0.473849 0.955462 -0.813116
H16   H     H_    0.189774 0.393277 0.914222 0.242567
H17   H     H_    0.103488 0.478534 0.996865 0.241831
H18   H     H_    0.286201 0.459401 0.991659 0.256213
N4    N     N_2   0.802406 0.587346 0.096512 -0.328096
H19   H     H_    0.876221 0.531155 0.118179 0.219218
C30   C     C_3   0.848357 0.714898 0.085932 -0.810137
H20   H     H_    0.860665 0.758679 0.145151 0.242692
H21   H     H_    0.774576 0.770126 0.053722 0.255363
H22   H     H_    0.948519 0.716243 0.049805 0.244592
H23   H     H_    0.720176 0.112472 0.473914 0.152927
H24   H     H_    0.279847 0.887483 0.526329 0.152781

loop_
_geom_bond_atom_site_label_1
_geom_bond_atom_site_label_2
_ccdc_geom_bond_type
C6    C8    A    
N3    H15   S    
C30   H21   S    
C11   N1    A    
C24   N4    S    
C18   H2    S    
C1    C8    S    
C17   H1    S    
C2    C7    S    
C13   C15   S    
C5    H23   S    
O7    Zn2   S    
O2    Zn2   S    
C25   H4    S    
C6    H24   S    
C21   C27   S    
C30   H22   S    
O1    Zn1   S    
C26   H3    S    
C12   N2    A    
C22   C28   S    
C2    O2    A    
C23   N3    S    
C9    C11   A    
C1    O1    A    
C29   H16   S    
O6    Zn2   S    
C10   C12   A    
C4    C7    A    
C13   O5    A    
C13   O7    A    
C22   C24   A    
C16   C18   A    
C17   C19   A    
C4    H10   S    
C28   H5    S    
C11   H13   S    
C18   C20   A    
C19   H8    S    
N3    C29   S    
C27   H6    S    
C16   C26   A    
O4    Zn1   S    
C14   C16   S    
C15   C25   A    
O5    Zn1   S    
C29   H17   S    
N4    H19   S    
C14   O6    A    
C10   H12   S    
C30   H20   S    
N2    Zn2   S    
C9    H11   S    
C23   C25   A    
O8    Zn1   S    
C3    H9    S    
C4    C6    A    
C3    C8    A    
C27   C28   D    
C15   C17   A    
C5    C7    A    
C1    O3    A    
C29   H18   S    
C12   H14   S    
C3    C5    A    
C2    O4    A    
C10   N1    A    
C19   C21   A    
C20   H7    S    
C21   C23   A    
N1    Zn1   S    
N4    C30   S    
C14   O8    A    
C24   C26   A    
O3    Zn2   S    
C20   C22   A    
C9    N2    A    
