data_mof_unit_35768.cif
_audit_creation_date              2012-12-10T17:50:41-0500
_audit_creation_method            fapswitch 2.2
_symmetry_space_group_name_H-M    P1
_symmetry_Int_Tables_number       1
_space_group_crystal_system       triclinic
_cell_length_a                    14.727188
_cell_length_b                    14.68435
_cell_length_c                    15.867892
_cell_angle_alpha                 76.812961
_cell_angle_beta                  102.933513
_cell_angle_gamma                 115.034098
_cell_volume                      2995.53642632

loop_
_atom_site_label
_atom_site_type_symbol
_atom_type_description
_atom_site_fract_x
_atom_site_fract_y
_atom_site_fract_z
_atom_type_partial_charge
C1    C     C_R   0.880297 0.312182 0.513537 0.868380
C2    C     C_R   0.119676 0.687820 0.487350 0.815680
C3    C     C_R   0.781012 0.027225 0.583247 0.453549
C4    C     C_R   0.218527 0.972419 0.417092 0.445283
C5    C     C_R   0.846960 0.130280 0.573610 -0.386153
C6    C     C_R   0.152306 0.869615 0.428905 -0.348457
C7    C     C_R   0.711623 0.174960 0.482837 0.453771
C8    C     C_R   0.289821 0.825777 0.516907 0.452363
C9    C     C_R   0.640118 0.076903 0.509615 -0.092933
C10   C     C_R   0.360158 0.922495 0.487192 -0.014783
C11   C     C_R   0.677221 0.000541 0.550485 0.008398
C12   C     C_R   0.322783 0.998909 0.447395 -0.017821
C13   C     C_R   0.533704 0.051841 0.494628 -0.051254
C14   C     C_R   0.466494 0.947557 0.502221 0.005881
C15   C     C_R   0.507739 0.872068 0.520841 0.462837
C16   C     C_R   0.492397 0.127250 0.476640 0.397311
C17   C     C_R   0.610924 0.898637 0.552911 -0.262797
C18   C     C_R   0.389180 0.100778 0.444810 -0.257580
C19   C     C_R   0.710178 0.659265 0.347870 -0.274184
C20   C     C_R   0.289801 0.340720 0.652136 -0.273074
C21   C     C_R   0.795087 0.635626 0.375282 0.076932
C22   C     C_R   0.204914 0.364395 0.624737 0.075567
C23   C     C_R   0.999789 0.500046 0.659995 0.805105
C24   C     C_R   0.000230 0.499984 0.340002 0.826921
C25   C     C_R   0.715493 0.510125 0.488901 0.144987
C26   C     C_R   0.284489 0.489829 0.511074 0.141262
C27   C     C_R   0.629571 0.536215 0.468820 -0.011139
C28   C     C_R   0.370387 0.463701 0.531145 -0.009043
C29   C     C_R   0.626364 0.607963 0.392993 0.093874
C30   C     C_R   0.373594 0.391967 0.606983 0.093719
C31   C     C_R   0.545643 0.491126 0.517864 -0.048772
C32   C     C_R   0.454301 0.508749 0.482087 -0.048216
C33   C     C_R   0.449736 0.568816 0.398068 0.405255
C34   C     C_R   0.550199 0.431040 0.601876 0.406565
C35   C     C_R   0.537674 0.623447 0.358905 -0.273267
C36   C     C_R   0.462266 0.376443 0.641052 -0.269841
C37   C     C_3   0.942519 0.405157 0.035882 -0.275121
C38   C     C_3   0.057573 0.594965 0.964107 -0.277084
C39   C     C_3   0.907169 0.473190 0.958498 0.484286
C40   C     C_3   0.092923 0.526932 0.041492 0.483635
C41   C     C_1   0.999667 0.500393 0.749560 -0.145597
C42   C     C_1   0.000384 0.499680 0.250433 -0.142710
C43   C     C_3   0.038874 0.433334 0.993919 -0.274506
C44   C     C_3   0.961217 0.566788 0.006071 -0.274130
C45   C     C_3   0.001190 0.500689 0.916955 0.090892
C46   C     C_3   0.998901 0.499432 0.083035 0.090734
C47   C     C_1   0.000167 0.500592 0.825144 0.024176
C48   C     C_1   0.999908 0.499511 0.174847 0.025554
C49   C     C_R   0.812463 0.204103 0.523321 -0.148658
C50   C     C_R   0.187327 0.796071 0.479057 -0.226669
Cu1   Cu    Cu3+1 0.081740 0.475690 0.522610 0.970771
Cu2   Cu    Cu3+1 0.918260 0.524310 0.477390 0.987745
H1    H     H_    0.280987 0.553269 0.462911 0.209815
H2    H     H_    0.719000 0.446674 0.537045 0.208316
H3    H     H_    0.893814 0.328204 0.065278 0.162531
H4    H     H_    0.106277 0.671918 0.934709 0.161804
H5    H     H_    0.640130 0.839394 0.574685 0.196001
H6    H     H_    0.359957 0.160041 0.423661 0.199042
H7    H     H_    0.534719 0.673554 0.297386 0.143868
H8    H     H_    0.465217 0.326338 0.702574 0.144373
N1    N     N_R   0.795440 0.560790 0.443380 -0.204661
N2    N     N_R   0.204560 0.439210 0.556620 -0.205566
O1    O     O_R   0.977900 0.338120 0.529810 -0.603094
O2    O     O_R   0.022100 0.661880 0.470190 -0.589128
O3    O     O_R   0.839850 0.379180 0.491620 -0.527500
O4    O     O_R   0.160150 0.620820 0.508380 -0.561551
O5    O     O_R   0.069010 0.479460 0.640020 -0.592577
O6    O     O_R   0.930990 0.520540 0.359980 -0.581519
O7    O     O_R   0.930960 0.520530 0.601820 -0.563634
O8    O     O_R   0.069040 0.479470 0.398180 -0.561454
O9    O     O_3   0.809184 0.444865 0.912079 -0.708937
H9    H     H_    0.764597 0.431782 0.955668 0.317357
O10   O     O_3   0.190908 0.555257 0.087912 -0.709585
H10   H     H_    0.235494 0.568339 0.044323 0.317258
H11   H     H_    0.140249 0.325331 0.659575 0.127208
H12   H     H_    0.859765 0.674727 0.340462 0.126180
H13   H     H_    0.709208 0.715800 0.290618 0.143294
H14   H     H_    0.290771 0.284198 0.709398 0.143519
O11   O     O_3   0.358162 0.567966 0.351466 -0.737831
H15   H     H_    0.368648 0.612494 0.294182 0.345729
O12   O     O_3   0.641764 0.431859 0.648474 -0.737903
H16   H     H_    0.631275 0.387333 0.705758 0.346256
H17   H     H_    0.927509 0.619640 0.011526 0.162678
H18   H     H_    0.072583 0.380482 0.988464 0.162436
O13   O     O_3   0.320779 0.767328 0.589446 -0.676589
H19   H     H_    0.262551 0.724605 0.621522 0.317270
O14   O     O_3   0.688438 0.239329 0.411112 -0.683017
H20   H     H_    0.629926 0.197935 0.372205 0.325082
H21   H     H_    0.073249 0.847545 0.400767 0.169739
H22   H     H_    0.925564 0.152369 0.603176 0.169458
O15   O     O_3   0.815593 0.952355 0.626358 -0.727049
H23   H     H_    0.889751 0.984151 0.644700 0.326229
O16   O     O_3   0.183641 0.047214 0.374462 -0.727666
H24   H     H_    0.109133 0.015573 0.358027 0.325360
O17   O     O_3   0.448151 0.774739 0.502260 -0.686290
H25   H     H_    0.489302 0.732943 0.517481 0.317182
O18   O     O_3   0.552253 0.224675 0.494825 -0.690931
H26   H     H_    0.511115 0.266462 0.480030 0.320854

loop_
_geom_bond_atom_site_label_1
_geom_bond_atom_site_label_2
_ccdc_geom_bond_type
O14   H20   S    
O16   H24   S    
C27   C29   A    
C24   C42   S    
O10   H10   S    
C23   O7    A    
O17   H25   S    
C44   H17   S    
O12   H16   S    
C24   O8    A    
C20   C30   A    
O13   H19   S    
C40   C46   S    
C21   H12   S    
C3    O15   S    
C19   C21   A    
Cu2   N1    S    
C15   O17   S    
C16   O18   S    
C40   O10   S    
C35   H7    S    
C8    O13   S    
C23   O5    A    
C19   H13   S    
C9    C13   A    
C38   C45   S    
Cu2   O7    S    
C2    C50   S    
C18   H6    S    
C40   C43   S    
C7    O14   S    
C44   C46   S    
C1    O3    A    
C34   O12   S    
C4    C12   A    
C21   N1    A    
C5    H22   S    
Cu2   O6    S    
C39   C45   S    
C13   C14   A    
C43   H18   S    
C5    C49   A    
Cu1   N2    S    
C22   H11   S    
C1    O1    A    
C2    O2    A    
O18   H26   S    
C45   C47   S    
C46   C48   S    
C27   C31   A    
Cu1   Cu2   S    
C28   C32   A    
Cu1   O1    S    
C25   H2    S    
C7    C49   A    
C4    C6    A    
Cu2   O2    S    
O15   H23   S    
C33   O11   S    
C25   N1    A    
C2    O4    A    
C4    O16   S    
Cu1   O4    S    
C37   C43   S    
C38   C44   S    
C22   N2    A    
C9    C11   A    
C31   C32   A    
C41   C47   T    
C31   C34   A    
C42   C48   T    
C6    C50   A    
C43   C45   S    
C10   C12   A    
C16   C18   A    
Cu1   O8    S    
C20   C22   A    
C10   C14   A    
C19   C29   A    
C26   H1    S    
C8    C50   A    
C15   C17   A    
C11   C17   A    
C39   O9    S    
C3    C5    A    
C39   C44   S    
C20   H14   S    
C25   C27   A    
C6    H21   S    
C29   C35   A    
C26   C28   A    
C23   C41   S    
C30   C36   A    
C32   C33   A    
C28   C30   A    
C26   N2    A    
O9    H9    S    
C37   C39   S    
C38   C40   S    
Cu1   O5    S    
C33   C35   A    
C34   C36   A    
C3    C11   A    
C24   O6    A    
O11   H15   S    
C37   H3    S    
C7    C9    A    
C38   H4    S    
C8    C10   A    
C13   C16   A    
C12   C18   A    
C36   H8    S    
C14   C15   A    
C37   C46   S    
C1    C49   S    
Cu2   O3    S    
C17   H5    S    
