data_mof_unit_68212.cif
_audit_creation_date              2012-12-11T16:32:34-0500
_audit_creation_method            fapswitch 2.2
_symmetry_space_group_name_H-M    P1
_symmetry_Int_Tables_number       1
_space_group_crystal_system       triclinic
_cell_length_a                    7.003456
_cell_length_b                    14.005621
_cell_length_c                    16.50866
_cell_angle_alpha                 89.916701
_cell_angle_beta                  91.220216
_cell_angle_gamma                 90.265284
_cell_volume                      1618.91127674

loop_
_atom_site_label
_atom_site_type_symbol
_atom_type_description
_atom_site_fract_x
_atom_site_fract_y
_atom_site_fract_z
_atom_type_partial_charge
O1    O     O_R   0.361630 0.167340 0.164570 -0.502734
O2    O     O_R   0.638370 0.832660 0.835430 -0.502734
O3    O     O_R   0.690860 0.157560 0.338690 -0.530497
O4    O     O_R   0.309140 0.842440 0.661310 -0.530495
O5    O     O_R   0.861260 0.336420 0.339380 -0.511219
O6    O     O_R   0.138740 0.663580 0.660620 -0.511219
C1    C     C_R   0.522934 0.133933 0.366828 0.775220
C2    C     C_R   0.477066 0.866068 0.633173 0.775238
O7    O     O_R   0.691330 0.156310 0.165190 -0.517023
O8    O     O_R   0.308670 0.843690 0.834810 -0.517026
O9    O     O_R   0.861730 0.335160 0.164640 -0.483913
O10   O     O_R   0.138270 0.664840 0.835360 -0.483915
C3    C     C_R   0.520149 0.130986 0.138644 0.866509
C4    C     C_R   0.479850 0.869014 0.861355 0.866522
O11   O     O_R   0.361150 0.168600 0.339320 -0.548249
O12   O     O_R   0.638850 0.831400 0.660680 -0.548247
O13   O     O_3   0.527950 0.310560 0.252000 -0.324054
O14   O     O_3   0.472050 0.689440 0.748000 -0.324053
V1    V     V_3+5 0.802770 0.240990 0.251980 1.727289
V2    V     V_3+5 0.197230 0.759010 0.748020 1.727292
O15   O     O_R   0.191450 0.346190 0.165260 -0.510965
O16   O     O_R   0.808550 0.653810 0.834740 -0.510961
C5    C     C_R   0.020132 0.372965 0.140112 0.868447
C6    C     C_R   0.979868 0.627035 0.859888 0.868452
O17   O     O_R   0.190980 0.347440 0.338770 -0.516760
O18   O     O_R   0.809020 0.652560 0.661230 -0.516761
C7    C     C_R   0.024001 0.369123 0.367623 0.874581
C8    C     C_R   0.976000 0.630876 0.632377 0.874574
V3    V     V_3+5 0.302780 0.262760 0.251980 1.732514
V4    V     V_3+5 0.697220 0.737240 0.748020 1.732521
O19   O     O_3   0.027730 0.193200 0.251960 -0.381597
O20   O     O_3   0.972270 0.806800 0.748040 -0.381597
C9    C     C_3   0.825824 0.469268 0.476949 0.385452
C10   C     C_3   0.174179 0.530729 0.523053 0.385453
C11   C     C_3   0.917122 0.455010 0.562431 0.351766
C12   C     C_3   0.082883 0.544988 0.437571 0.351774
C13   C     C_3   0.984476 0.560741 0.562825 -0.305042
C14   C     C_3   0.015527 0.439257 0.437177 -0.305042
C15   C     C_3   0.894759 0.574037 0.477649 0.022007
C16   C     C_3   0.105245 0.425961 0.522352 0.022009
C17   C     C_R   0.960536 0.703198 0.026160 0.272417
C18   C     C_R   0.039472 0.296802 0.973841 0.272437
C19   C     C_R   0.928259 0.737696 0.104287 0.052301
C20   C     C_R   0.071779 0.262306 0.895714 0.052302
C21   C     C_R   0.895688 0.674845 0.166849 0.416526
C22   C     C_R   0.104369 0.325158 0.833155 0.416500
C23   C     C_R   0.900821 0.576230 0.154658 0.218304
C24   C     C_R   0.099215 0.423773 0.845345 0.218278
C25   C     C_R   0.958101 0.537057 0.078551 -0.122819
C26   C     C_R   0.041911 0.462944 0.921449 -0.122792
C27   C     C_R   0.972578 0.601429 0.010999 -0.008288
C28   C     C_R   0.027428 0.398572 0.989001 -0.008259
C29   C     C_R   0.999960 0.437188 0.068232 -0.007748
C30   C     C_R   0.000041 0.562812 0.931769 -0.007738
C31   C     C_3   0.327875 0.015476 0.468388 0.100320
C32   C     C_3   0.672129 0.984525 0.531614 0.100322
C33   C     C_3   0.425925 0.917561 0.475588 0.055581
C34   C     C_3   0.574078 0.082440 0.524414 0.055579
C35   C     C_3   0.486699 0.939063 0.564163 -0.189637
C36   C     C_3   0.513304 0.060938 0.435838 -0.189633
C37   C     C_3   0.387584 0.038359 0.557042 0.341027
C38   C     C_3   0.612420 0.961642 0.442960 0.341013
C39   C     C_R   0.542234 0.202447 0.970588 0.322792
C40   C     C_R   0.457786 0.797550 0.029413 0.322778
C41   C     C_R   0.575981 0.235526 0.892413 0.178281
C42   C     C_R   0.424079 0.764471 0.107587 0.178281
C43   C     C_R   0.604162 0.171723 0.829906 0.147764
C44   C     C_R   0.395878 0.828274 0.170094 0.147754
C45   C     C_R   0.589210 0.072680 0.843045 0.116419
C46   C     C_R   0.410800 0.927316 0.156953 0.116430
C47   C     C_R   0.537874 0.035533 0.920614 -0.026852
C48   C     C_R   0.462126 0.964466 0.079385 -0.026864
C49   C     C_R   0.528481 0.101224 0.987437 -0.110449
C50   C     C_R   0.471522 0.898774 0.012562 -0.110442
C51   C     C_R   0.498317 0.935401 0.932557 -0.032757
C52   C     C_R   0.501680 0.064598 0.067443 -0.032757
Cl1   Cl    Cl    0.798867 0.396677 0.643155 -0.513849
Cl2   Cl    Cl    0.201156 0.603314 0.356848 -0.513830
Cl3   Cl    Cl    0.245298 0.089613 0.632869 -0.671135
Cl4   Cl    Cl    0.754712 0.910385 0.367136 -0.671163
N1    N     N_3   0.345844 0.790448 0.247382 -0.582277
H1    H     H_    0.450339 0.810964 0.289792 0.302441
H2    H     H_    0.213647 0.817987 0.263303 0.284420
N2    N     N_3   0.654209 0.209545 0.752618 -0.582279
H3    H     H_    0.549710 0.189038 0.710209 0.302449
H4    H     H_    0.786391 0.181995 0.736696 0.284393
Cl5   Cl    Cl    0.508314 0.296642 0.040648 -0.582168
Cl6   Cl    Cl    0.491662 0.703357 0.959350 -0.582159
N3    N     N_3   0.586544 0.336501 0.877018 -0.554529
H5    H     H_    0.488067 0.353652 0.831126 0.308909
H6    H     H_    0.721329 0.352766 0.855212 0.252432
N4    N     N_3   0.413560 0.663497 0.122984 -0.554488
H7    H     H_    0.511952 0.646363 0.168926 0.308941
H8    H     H_    0.278723 0.647202 0.144724 0.252383
N5    N     N_3   0.643724 0.010506 0.778897 -0.684304
H9    H     H_    0.788088 0.021814 0.767144 0.246628
H10   H     H_    0.562311 0.025954 0.727014 0.235600
N6    N     N_3   0.356314 0.989491 0.221111 -0.684300
H11   H     H_    0.211963 0.978178 0.232904 0.246621
H12   H     H_    0.437818 0.974059 0.272976 0.235620
Cl7   Cl    Cl    0.597103 0.425611 0.444265 -0.476517
Cl8   Cl    Cl    0.402900 0.574386 0.555736 -0.476515
N7    N     N_3   0.775245 0.654937 0.455262 -0.533021
H13   H     H_    0.704607 0.637982 0.400835 0.345954
H14   H     H_    0.865360 0.713058 0.444622 0.299251
N8    N     N_3   0.224759 0.345059 0.544736 -0.533022
H15   H     H_    0.295413 0.362016 0.599160 0.345958
H16   H     H_    0.134640 0.286941 0.555384 0.299251
Cl9   Cl    Cl    0.160715 0.277060 0.738255 -0.532583
Cl10  Cl    Cl    0.839392 0.722944 0.261754 -0.532602
Cl11  Cl    Cl    0.993639 0.795567 0.953995 -0.654157
Cl12  Cl    Cl    0.006338 0.204433 0.046005 -0.654152
N9    N     N_3   0.922107 0.838340 0.121234 -0.570069
H17   H     H_    0.050491 0.869913 0.104582 0.262038
H18   H     H_    0.813211 0.869204 0.086362 0.266665
N10   N     N_3   0.077936 0.161663 0.878767 -0.570069
H19   H     H_    0.949541 0.130090 0.895408 0.262027
H20   H     H_    0.186816 0.130797 0.913647 0.266663
Cl13  Cl    Cl    0.800667 0.509669 0.234097 -0.568982
Cl14  Cl    Cl    0.199351 0.490338 0.765906 -0.568963
N11   N     N_3   0.338414 0.826880 0.452277 -0.594187
H21   H     H_    0.255052 0.838118 0.400201 0.263498
H22   H     H_    0.447600 0.779704 0.437908 0.307227
N12   N     N_3   0.661590 0.173122 0.547723 -0.594189
H23   H     H_    0.744967 0.161883 0.599795 0.263494
H24   H     H_    0.552405 0.220295 0.562098 0.307231
N13   N     N_3   0.139922 0.029157 0.431590 -0.597436
H25   H     H_    0.063437 0.967809 0.445402 0.304006
H26   H     H_    0.154077 0.026592 0.368898 0.241192
N14   N     N_3   0.860080 0.970844 0.568412 -0.597423
H27   H     H_    0.936572 0.032188 0.554594 0.304000
H28   H     H_    0.845926 0.973418 0.631105 0.241190

loop_
_geom_bond_atom_site_label_1
_geom_bond_atom_site_label_2
_ccdc_geom_bond_type
C42   C44   A    
C39   C41   A    
C10   C13   S    
O13   V3    S    
N5    H9    S    
C48   C52   A    
V1    O19   S    
N1    H1    S    
C33   C38   S    
C23   C25   A    
C41   N3    S    
O9    V1    S    
C9    C15   S    
C9    Cl7   S    
C44   N1    S    
C38   Cl4   S    
C11   C13   S    
N2    H4    S    
O3    C1    A    
C23   Cl13  S    
C2    C35   S    
C33   C35   S    
N8    H15   S    
C7    C14   S    
C6    C30   S    
N10   H19   S    
C36   C38   S    
C45   C47   A    
O7    C3    A    
C18   Cl12  S    
C9    C11   S    
O5    C7    A    
O7    V1    S    
O6    C8    A    
O8    V2    S    
C41   C43   A    
C26   C28   A    
O3    V1    S    
O14   V4    S    
N3    H6    S    
C10   C12   S    
O4    C2    A    
C32   C38   S    
C34   C37   S    
C24   C26   A    
C43   N2    S    
C2    O12   A    
C14   C16   S    
C31   C36   S    
C17   C19   A    
C18   C20   A    
O1    V3    S    
N1    H2    S    
C20   C22   A    
O11   V3    S    
C16   N8    S    
C21   C23   A    
O17   V3    S    
C22   C24   A    
C47   C51   A    
C35   C37   S    
C50   C51   A    
N2    H3    S    
C48   C50   A    
O8    C4    A    
C47   C49   A    
C21   Cl10  S    
C42   N4    S    
C1    O11   A    
C39   C49   A    
C25   C27   A    
O15   V3    S    
C11   Cl1   S    
C43   C45   A    
C40   C42   A    
N14   H28   S    
N13   H26   S    
C3    C52   S    
O10   V2    S    
N4    H8    S    
N7    H14   S    
C10   Cl8   S    
C19   C21   A    
N11   H21   S    
N10   H20   S    
C44   C46   A    
C31   N13   S    
O18   V4    S    
N6    H12   S    
C31   C33   S    
C49   C52   A    
O16   C6    A    
O1    C3    A    
O12   V4    S    
N13   H25   S    
C1    C36   S    
C26   C30   A    
C28   C29   A    
C24   Cl14  S    
N12   H24   S    
N9    H17   S    
V2    O20   S    
C40   Cl6   S    
O16   V4    S    
C39   Cl5   S    
O18   C8    A    
C12   C15   S    
C45   N5    S    
N5    H10   S    
C15   N7    S    
O5    V1    S    
O17   C7    A    
O6    V2    S    
O10   C6    A    
C34   N12   S    
C9    C14   S    
C32   C35   S    
O2    V4    S    
C27   C30   A    
C4    C51   S    
O15   C5    A    
C11   C16   S    
V3    O19   S    
C12   Cl2   S    
C19   N9    S    
C12   C14   S    
V4    O20   S    
N8    H16   S    
C8    C13   S    
C37   Cl3   S    
C25   C29   A    
C31   C37   S    
C5    C29   S    
O9    C5    A    
N4    H7    S    
O13   V1    S    
C32   C34   S    
N14   H27   S    
O14   V2    S    
O2    C4    A    
N11   H22   S    
C33   N11   S    
O4    V2    S    
C20   N10   S    
C13   C15   S    
N6    H11   S    
C17   Cl11  S    
C22   Cl9   S    
N7    H13   S    
C40   C50   A    
C10   C16   S    
C46   C48   A    
N3    H5    S    
C34   C36   S    
C17   C27   A    
C32   N14   S    
C46   N6    S    
C18   C28   A    
N12   H23   S    
N9    H18   S    
