data_mof_unit_21410.cif
_audit_creation_date              2012-12-10T17:44:33-0500
_audit_creation_method            fapswitch 2.2
_symmetry_space_group_name_H-M    P1
_symmetry_Int_Tables_number       1
_space_group_crystal_system       triclinic
_cell_length_a                    9.979421
_cell_length_b                    10.705616
_cell_length_c                    15.599652
_cell_angle_alpha                 94.417689
_cell_angle_beta                  68.95732
_cell_angle_gamma                 89.154288
_cell_volume                      1549.22842955

loop_
_atom_site_label
_atom_site_type_symbol
_atom_type_description
_atom_site_fract_x
_atom_site_fract_y
_atom_site_fract_z
_atom_type_partial_charge
C1    C     C_R   0.499173 0.739459 0.498430 0.843122
C2    C     C_R   0.407211 0.441687 0.909979 0.109986
C3    C     C_R   0.262285 0.478131 0.962810 0.146237
C4    C     C_R   0.505123 0.417731 0.954758 0.065043
C5    C     C_R   0.462204 0.450029 0.051338 -0.034011
C6    C     C_R   0.312236 0.477258 0.102654 -0.021788
C7    C     C_R   0.216122 0.491412 0.057670 -0.283990
C8    C     C_R   0.644638 0.363553 0.905802 -0.190528
C9    C     C_R   0.744231 0.351802 0.948267 -0.197905
C10   C     C_R   0.710511 0.398220 0.039653 0.192789
C11   C     C_R   0.571411 0.452547 0.090985 0.100654
C12   C     C_R   0.410871 0.494662 0.674386 0.855591
C13   C     C_R   0.814648 0.390826 0.080582 -0.240225
C14   C     C_R   0.781082 0.434298 0.172789 -0.189802
C15   C     C_R   0.549001 0.510829 0.179010 -0.196335
C16   C     C_R   0.433859 0.851900 0.352169 -0.262883
C17   C     C_R   0.407571 0.906514 0.280908 0.179566
C18   C     C_R   0.445330 0.030605 0.264248 0.240754
C19   C     C_R   0.502477 0.099625 0.323587 0.124045
C20   C     C_R   0.496894 0.052552 0.407928 0.041399
C21   C     C_R   0.475595 0.924052 0.417312 0.022212
C22   C     C_R   0.497256 0.871615 0.492131 -0.051834
C23   C     C_R   0.505094 0.260167 0.492659 0.872970
C24   C     C_R   0.517767 0.946182 0.562821 -0.229588
C25   C     C_R   0.525220 0.072773 0.558750 -0.193742
C26   C     C_R   0.514424 0.126320 0.483087 -0.070021
C27   C     C_R   0.778806 0.626247 0.651735 0.172692
C28   C     C_R   0.798577 0.626709 0.737144 -0.081623
C29   C     C_R   0.939391 0.625384 0.734656 -0.323240
C30   C     C_R   0.052201 0.626795 0.649755 0.211491
C31   C     C_R   0.031963 0.567902 0.570785 0.102647
C32   C     C_R   0.887527 0.565945 0.571928 0.084828
C33   C     C_R   0.964150 0.424118 0.439001 -0.115174
C34   C     C_R   0.589962 0.504868 0.324749 0.839496
C35   C     C_R   0.105485 0.421084 0.441449 -0.097802
C36   C     C_R   0.356570 0.478615 0.772533 -0.031535
C37   C     C_R   0.645310 0.490875 0.223318 -0.060243
C38   C     C_R   0.164086 0.502551 0.920209 -0.190770
C39   C     C_R   0.211241 0.501731 0.825291 -0.200062
C40   C     C_R   0.451944 0.441527 0.813902 -0.199304
H1    H     H_    0.102988 0.513126 0.097302 0.182786
H2    H     H_    0.919847 0.346558 0.042423 0.142849
H3    H     H_    0.521045 0.907914 0.623843 0.148048
H4    H     H_    0.416459 0.753252 0.357008 0.184348
H5    H     H_    0.535580 0.129945 0.616421 0.146565
H6    H     H_    0.940559 0.362671 0.388354 0.158428
H7    H     H_    0.454852 0.569140 0.216450 0.149225
H8    H     H_    0.957781 0.657757 0.796876 0.204569
H9    H     H_    0.184967 0.352389 0.397000 0.211263
H10   H     H_    0.858086 0.417986 0.205513 0.173933
H11   H     H_    0.849699 0.309018 0.908508 0.142288
H12   H     H_    0.052151 0.527431 0.960353 0.159185
H13   H     H_    0.135433 0.523236 0.793433 0.166951
H14   H     H_    0.563015 0.422739 0.770463 0.141218
H15   H     H_    0.678488 0.325841 0.834764 0.132984
N1    N     N_R   0.856800 0.501200 0.500850 -0.106532
N2    N     N_R   0.142390 0.501280 0.500880 -0.118504
O1    O     O_R   0.385310 0.683220 0.500000 -0.633462
O2    O     O_R   0.614640 0.683250 0.500010 -0.607553
O3    O     O_R   0.319840 0.499980 0.632240 -0.614739
O4    O     O_R   0.549160 0.500000 0.632250 -0.612055
O5    O     O_R   0.385360 0.316750 0.499990 -0.600459
O6    O     O_R   0.614690 0.316780 0.500000 -0.621813
O7    O     O_R   0.450840 0.500000 0.367750 -0.602397
O8    O     O_R   0.680160 0.500020 0.367760 -0.602399
Zn1   Zn    Zn3+2 0.346880 0.499980 0.499990 0.950521
Zn2   Zn    Zn3+2 0.653120 0.500020 0.500010 0.952449
C41   C     C_3   0.343935 0.829564 0.221211 -0.865127
H16   H     H_    0.308268 0.739528 0.249738 0.252911
H17   H     H_    0.247150 0.879329 0.218908 0.256966
H18   H     H_    0.424418 0.810471 0.150308 0.241691
C42   C     C_3   0.427885 0.085516 0.181582 -0.851368
H19   H     H_    0.313815 0.083440 0.187453 0.246090
H20   H     H_    0.457116 0.184459 0.174592 0.269922
H21   H     H_    0.495890 0.029847 0.117132 0.238268
C43   C     C_3   0.587016 0.210934 0.288245 -0.887290
H22   H     H_    0.508959 0.286634 0.291779 0.277919
H23   H     H_    0.659192 0.239447 0.325191 0.227934
H24   H     H_    0.659699 0.188377 0.215492 0.247722
C44   C     C_3   0.703894 0.743308 0.641626 -0.753063
H25   H     H_    0.710483 0.822458 0.690322 0.205291
H26   H     H_    0.758234 0.777285 0.572657 0.238795
H27   H     H_    0.588577 0.726669 0.658144 0.259099
C45   C     C_2   0.680327 0.663717 0.827097 0.918926
O9    O     O_2   0.559756 0.692519 0.829840 -0.642143
O10   O     O_R   0.707067 0.665755 0.909326 -0.814287
H28   H     H_    0.618566 0.691882 0.965681 0.342177
C46   C     C_3   0.137695 0.742623 0.643398 -0.783399
H29   H     H_    0.235583 0.724396 0.659033 0.246992
H30   H     H_    0.159457 0.781459 0.576022 0.246687
H31   H     H_    0.075209 0.819629 0.695003 0.205917
C47   C     C_2   0.243728 0.477884 0.202843 0.856379
O11   O     O_2   0.277465 0.396381 0.242623 -0.674855
O12   O     O_R   0.137401 0.570588 0.250908 -0.822842
H32   H     H_    0.113361 0.576680 0.319662 0.343873

loop_
_geom_bond_atom_site_label_1
_geom_bond_atom_site_label_2
_ccdc_geom_bond_type
C8    C9    A    
C24   C25   A    
C16   C21   A    
C28   C45   S    
C34   C37   S    
C19   C20   A    
C9    H11   S    
C43   H24   S    
C15   H7    S    
N2    Zn1   S    
C4    C8    A    
C39   H13   S    
C19   C43   S    
C43   H23   S    
C5    C11   A    
C3    C7    A    
C1    O2    A    
C5    C6    A    
C38   H12   S    
C34   O8    A    
C18   C19   A    
C23   C26   S    
C15   C37   A    
O2    Zn2   S    
C41   H16   S    
C11   C15   A    
O1    Zn1   S    
C23   O5    A    
C3    C38   A    
C16   C17   A    
O8    Zn2   S    
C35   H9    S    
C12   C36   S    
C9    C10   A    
C16   H4    S    
C33   N1    A    
C23   O6    A    
O3    Zn1   S    
C1    C22   S    
C21   C22   A    
C33   H6    S    
C44   H27   S    
C8    H15   S    
C47   O12   S    
C13   H2    S    
C18   C42   S    
C38   C39   A    
O6    Zn2   S    
O5    Zn1   S    
C29   H8    S    
C36   C40   A    
C45   O9    D    
C44   H26   S    
C27   C44   S    
O10   H28   S    
C44   H25   S    
C25   C26   A    
O7    Zn1   S    
C2    C4    A    
C29   C30   A    
O4    Zn2   S    
C31   C32   A    
C46   H31   S    
C30   C31   A    
C20   C21   A    
C34   O7    A    
C17   C18   A    
C43   H22   S    
C42   H20   S    
C46   H30   S    
C40   H14   S    
C22   C24   A    
C30   C46   S    
C25   H5    S    
C28   C29   A    
C17   C41   S    
C27   C32   A    
C36   C39   A    
C45   O10   S    
C42   H19   S    
C10   C13   A    
C6    C7    A    
N1    Zn2   S    
C35   N2    A    
C31   N2    A    
C2    C3    A    
C1    O1    A    
C14   C37   A    
C12   O4    A    
C42   H21   S    
C14   H10   S    
C20   C26   A    
C41   H18   S    
C6    C47   S    
C47   O11   D    
C33   C35   A    
C7    H1    S    
O12   H32   S    
C10   C11   A    
C12   O3    A    
C2    C40   A    
C4    C5    A    
C46   H29   S    
C41   H17   S    
C27   C28   A    
C24   H3    S    
C13   C14   A    
C32   N1    A    
