data_mof_unit_19539.cif
_audit_creation_date              2012-12-11T14:17:43-0500
_audit_creation_method            fapswitch 2.2
_symmetry_space_group_name_H-M    P1
_symmetry_Int_Tables_number       1
_space_group_crystal_system       triclinic
_cell_length_a                    11.013908
_cell_length_b                    11.029578
_cell_length_c                    18.847125
_cell_angle_alpha                 90.079363
_cell_angle_beta                  89.93104
_cell_angle_gamma                 119.782001
_cell_volume                      1987.12606812

loop_
_atom_site_label
_atom_site_type_symbol
_atom_type_description
_atom_site_fract_x
_atom_site_fract_y
_atom_site_fract_z
_atom_type_partial_charge
C1    C     C_R   0.520655 0.459584 0.147302 0.542798
C2    C     C_R   0.540198 0.060705 0.147352 0.552033
C3    C     C_R   0.939049 0.479126 0.147274 0.544266
C4    C     C_R   0.453184 0.521562 0.854542 0.524797
C5    C     C_R   0.068184 0.546889 0.854530 0.525387
C6    C     C_R   0.478385 0.931774 0.854591 0.523968
C7    C     C_R   0.421899 0.010974 0.463053 -0.135513
C8    C     C_R   0.066197 0.457475 0.455393 -0.166662
C9    C     C_R   0.564643 0.609084 0.457915 -0.149347
C10   C     C_R   0.084773 0.462220 0.528411 -0.137468
C11   C     C_R   0.398175 0.970104 0.533263 -0.149936
C12   C     C_R   0.559215 0.621486 0.530924 -0.142544
C13   C     C_R   0.762729 0.139873 0.603466 -0.084549
C14   C     C_R   0.880604 0.632808 0.586608 -0.080509
C15   C     C_R   0.354543 0.245144 0.583745 -0.077136
C16   C     C_R   0.945258 0.718931 0.446902 -0.083787
C17   C     C_R   0.808124 0.145040 0.458911 -0.105559
C18   C     C_R   0.274039 0.239303 0.444079 -0.097072
C19   C     C_R   0.890107 0.160999 0.578797 -0.108466
C20   C     C_R   0.864228 0.742203 0.562153 -0.114633
C21   C     C_R   0.243197 0.124097 0.556421 -0.118052
C22   C     C_R   0.896975 0.785682 0.492369 -0.150958
C23   C     C_R   0.909622 0.156757 0.506511 -0.151488
C24   C     C_R   0.203940 0.121309 0.486400 -0.157905
C25   C     C_R   0.515652 0.454860 0.353923 0.536460
C26   C     C_R   0.578808 0.123085 0.361729 0.557202
C27   C     C_R   0.939403 0.484994 0.353828 0.535888
C28   C     C_R   0.457287 0.519132 0.646285 0.520948
C29   C     C_R   0.063785 0.543892 0.645854 0.522639
C30   C     C_R   0.482553 0.941469 0.647769 0.524595
C31   C     C_R   0.490124 0.968168 0.929579 0.011331
C32   C     C_R   0.031075 0.522129 0.929403 0.011005
C33   C     C_R   0.477969 0.509396 0.929456 0.010905
C34   C     C_R   0.003310 0.493308 0.076966 -0.004585
C35   C     C_R   0.490024 0.996032 0.077189 -0.005959
C36   C     C_R   0.506081 0.509505 0.077066 -0.003729
C37   C     C_R   0.416324 0.029361 0.959490 -0.077765
C38   C     C_R   0.969328 0.387407 0.958904 -0.076980
C39   C     C_R   0.612638 0.582584 0.959217 -0.077630
C40   C     C_R   0.968611 0.373863 0.033554 -0.069336
C41   C     C_R   0.404049 0.030035 0.034187 -0.069800
C42   C     C_R   0.625634 0.594935 0.033915 -0.068952
C43   C     C_R   0.552916 0.926377 0.046721 -0.145058
C44   C     C_R   0.073197 0.625527 0.046835 -0.144672
C45   C     C_R   0.373836 0.446910 0.046718 -0.145664
C46   C     C_R   0.090196 0.639827 0.974143 -0.109358
C47   C     C_R   0.549815 0.909358 0.974000 -0.108418
C48   C     C_R   0.359843 0.450091 0.974029 -0.109901
C49   C     C_R   0.349768 0.084612 0.916865 -0.116837
C50   C     C_R   0.913829 0.266408 0.915862 -0.117553
C51   C     C_R   0.734060 0.648625 0.916431 -0.118052
C52   C     C_R   0.935174 0.241961 0.061432 -0.073566
C53   C     C_R   0.305132 0.063043 0.062559 -0.073365
C54   C     C_R   0.757133 0.693537 0.062106 -0.074764
C55   C     C_R   0.257560 0.121727 0.946670 0.457576
C56   C     C_R   0.876907 0.137274 0.945144 0.456901
C57   C     C_R   0.862907 0.740666 0.946044 0.456837
C58   C     C_R   0.888241 0.125667 0.017785 0.482134
C59   C     C_R   0.235280 0.110370 0.019396 0.482003
C60   C     C_R   0.873852 0.763066 0.018754 0.481627
C61   C     C_R   0.509752 0.015017 0.580725 -0.005481
C62   C     C_R   0.016226 0.511907 0.573019 0.004703
C63   C     C_R   0.493174 0.501721 0.574160 -0.007412
C64   C     C_R   0.996809 0.521206 0.425977 0.005753
C65   C     C_R   0.558287 0.083111 0.436703 0.007047
C66   C     C_R   0.483845 0.479186 0.426445 0.001011
C67   C     C_R   0.648210 0.094075 0.556379 0.022751
C68   C     C_R   0.946223 0.576905 0.543543 0.020200
C69   C     C_R   0.419008 0.368986 0.542780 0.021378
C70   C     C_R   0.961249 0.605064 0.470670 0.041555
C71   C     C_R   0.672735 0.111276 0.482680 0.021341
C72   C     C_R   0.392142 0.362183 0.469865 0.035305
Cr1   Cr    Cr6+3 0.768550 0.541320 0.250660 1.019907
Cr2   Cr    Cr6+3 0.458680 0.227230 0.250660 1.018836
Cr3   Cr    Cr6+3 0.772770 0.231450 0.250660 1.010632
Cr4   Cr    Cr6+3 0.541320 0.768550 0.749340 1.056684
Cr5   Cr    Cr6+3 0.227230 0.458680 0.749340 1.054606
Cr6   Cr    Cr6+3 0.231450 0.772770 0.749340 1.060097
H1    H     H_    0.608054 0.888608 0.079275 0.184225
H2    H     H_    0.111205 0.717968 0.079636 0.183601
H3    H     H_    0.281185 0.392128 0.079348 0.183724
H4    H     H_    0.149590 0.744509 0.952826 0.204710
H5    H     H_    0.595820 0.850332 0.952404 0.205330
H6    H     H_    0.255044 0.404676 0.952592 0.205238
H7    H     H_    0.366432 0.097829 0.860221 0.155445
H8    H     H_    0.900611 0.270422 0.859257 0.153727
H9    H     H_    0.730646 0.631766 0.859793 0.155717
H10   H     H_    0.954036 0.227114 0.115973 0.192600
H11   H     H_    0.271859 0.043961 0.117189 0.191140
H12   H     H_    0.771300 0.726968 0.116708 0.191427
H13   H     H_    0.332585 0.977745 0.428341 0.143934
H14   H     H_    0.105147 0.404059 0.422136 0.112086
H15   H     H_    0.628307 0.700746 0.425951 0.132881
H16   H     H_    0.149785 0.423124 0.550153 0.151910
H17   H     H_    0.291699 0.899205 0.549927 0.145254
H18   H     H_    0.605729 0.725407 0.553404 0.149776
H19   H     H_    0.750955 0.147472 0.660082 0.130649
H20   H     H_    0.852697 0.600271 0.641217 0.127102
H21   H     H_    0.384568 0.243883 0.638323 0.129851
H22   H     H_    0.978960 0.765871 0.395224 0.142976
H23   H     H_    0.840380 0.157727 0.404580 0.168572
H24   H     H_    0.228272 0.233892 0.392704 0.138835
H25   H     H_    0.974355 0.183192 0.615395 0.137655
H26   H     H_    0.827248 0.794075 0.597668 0.128493
H27   H     H_    0.187484 0.032504 0.589538 0.129699
H28   H     H_    0.883633 0.870802 0.473231 0.107734
H29   H     H_    0.009114 0.177323 0.486604 0.116571
H30   H     H_    0.118020 0.028402 0.464367 0.105724
O1    O     O_R   0.910960 0.572410 0.171010 -0.503188
O2    O     O_R   0.427590 0.338550 0.171010 -0.505344
O3    O     O_R   0.661450 0.089040 0.171010 -0.499814
O4    O     O_R   0.572410 0.910960 0.828990 -0.466121
O5    O     O_R   0.338550 0.427590 0.828990 -0.465855
O6    O     O_R   0.089040 0.661450 0.828990 -0.465047
O7    O     O_R   0.639750 0.528530 0.175600 -0.520717
O8    O     O_R   0.471470 0.111220 0.175600 -0.517554
O9    O     O_R   0.888780 0.360250 0.175600 -0.521808
O10   O     O_R   0.528530 0.639750 0.824400 -0.507140
O11   O     O_R   0.111220 0.471470 0.824400 -0.506969
O12   O     O_R   0.360250 0.888780 0.824400 -0.508019
O13   O     O_R   0.909330 0.572400 0.331540 -0.532436
O14   O     O_R   0.427600 0.336930 0.331540 -0.541102
O15   O     O_R   0.663070 0.090670 0.331540 -0.537051
O16   O     O_R   0.572400 0.909330 0.668460 -0.523454
O17   O     O_R   0.336930 0.427600 0.668460 -0.524422
O18   O     O_R   0.090670 0.663070 0.668460 -0.520280
O19   O     O_R   0.638240 0.528520 0.324410 -0.496358
O20   O     O_R   0.471480 0.109720 0.324410 -0.501293
O21   O     O_R   0.890280 0.361760 0.324410 -0.528114
O22   O     O_R   0.528520 0.638240 0.675590 -0.509863
O23   O     O_R   0.109720 0.471480 0.675590 -0.513082
O24   O     O_R   0.361760 0.890280 0.675590 -0.509248
O25   O     O_3   0.666667 0.333333 0.250630 -0.263406
O26   O     O_3   0.333333 0.666667 0.749370 -0.267963
F1    F     F_    0.184833 0.162343 0.904361 -0.573369
F2    F     F_    0.836766 0.024782 0.902397 -0.572837
F3    F     F_    0.975763 0.813185 0.903571 -0.572622
F4    F     F_    0.857331 0.001837 0.046702 -0.592110
F5    F     F_    0.142744 0.141838 0.048913 -0.593816
F6    F     F_    0.997445 0.855502 0.048041 -0.592869

loop_
_geom_bond_atom_site_label_1
_geom_bond_atom_site_label_2
_ccdc_geom_bond_type
C2    C35   S    
C39   C51   A    
C55   C59   A    
C5    O6    A    
C19   C23   A    
Cr3   O9    S    
C27   O13   A    
C54   C60   A    
C7    C11   A    
C17   C23   A    
C5    O11   A    
C37   C41   A    
C18   C24   A    
C40   C52   A    
C38   C40   A    
C54   H12   S    
Cr5   O23   S    
C55   F1    S    
C10   H16   S    
C43   H1    S    
Cr2   O25   S    
C18   H24   S    
C17   H23   S    
C9    C66   A    
Cr6   O24   S    
C3    O9    A    
C46   H4    S    
C19   H25   S    
Cr2   O20   S    
C63   C69   A    
C65   C71   A    
C51   C57   A    
C64   C70   A    
C35   C43   A    
C25   O14   A    
C28   O22   A    
C5    C32   S    
C58   F4    S    
C6    C31   S    
C23   H29   S    
C31   C47   A    
C29   O18   A    
C18   C72   A    
C4    O10   A    
C10   C62   A    
C32   C46   A    
Cr5   O5    S    
C6    O12   A    
C56   F2    S    
C44   C46   A    
Cr5   O26   S    
C14   H20   S    
C39   C42   A    
C12   H18   S    
C53   C59   A    
C15   C69   A    
C66   C72   A    
C2    O3    A    
C38   C50   A    
C13   C19   A    
Cr4   O16   S    
C14   C20   A    
C4    O5    A    
C44   H2    S    
C16   C70   A    
C51   H9    S    
C12   C63   A    
Cr4   O26   S    
C16   H22   S    
C57   C60   A    
C26   O20   A    
C4    C33   S    
C3    C34   S    
C11   C61   A    
C22   H28   S    
Cr4   O10   S    
C31   C37   A    
C69   C72   A    
Cr6   O12   S    
C49   H7    S    
C1    O2    A    
C7    C65   A    
C37   C49   A    
C61   C67   A    
C59   F5    S    
Cr4   O4    S    
Cr2   O8    S    
C57   F3    S    
C36   C45   A    
C33   C39   A    
Cr6   O26   S    
C41   C53   A    
C52   C58   A    
C8    C64   A    
C8    H14   S    
C68   C70   A    
Cr2   O14   S    
C60   F6    S    
C52   H10   S    
C17   C71   A    
C32   C38   A    
C53   H11   S    
C27   O21   A    
Cr3   O15   S    
C21   C24   A    
C26   O15   A    
C20   C22   A    
Cr6   O18   S    
C9    H15   S    
C7    H13   S    
Cr5   O17   S    
C28   O17   A    
C13   C67   A    
C45   C48   A    
C11   H17   S    
C34   C44   A    
C29   C62   S    
Cr6   O6    S    
C16   C22   A    
C26   C65   S    
C6    O4    A    
C45   H3    S    
C25   C66   S    
C30   O16   A    
Cr5   O11   S    
C49   C55   A    
C36   C42   A    
Cr2   O2    S    
C2    O8    A    
Cr3   O25   S    
Cr1   O1    S    
C20   H26   S    
Cr3   O3    S    
Cr1   O7    S    
C62   C68   A    
Cr4   O22   S    
C25   O19   A    
Cr1   O19   S    
C42   C54   A    
C15   H21   S    
C29   O23   A    
C3    O1    A    
C30   O24   A    
C56   C58   A    
C67   C71   A    
C13   H19   S    
C35   C41   A    
C9    C12   A    
C50   C56   A    
C27   C64   S    
C50   H8    S    
C47   H5    S    
C28   C63   S    
C48   H6    S    
C15   C21   A    
C8    C10   A    
Cr1   O25   S    
C30   C61   S    
C33   C48   A    
C14   C68   A    
C34   C40   A    
C1    O7    A    
C43   C47   A    
C21   H27   S    
C24   H30   S    
Cr3   O21   S    
C1    C36   S    
Cr1   O13   S    
