data_mof_unit_23804.cif
_audit_creation_date              2012-12-10T18:02:13-0500
_audit_creation_method            fapswitch 2.2
_symmetry_space_group_name_H-M    P1
_symmetry_Int_Tables_number       1
_space_group_crystal_system       triclinic
_cell_length_a                    10.785769
_cell_length_b                    9.751296
_cell_length_c                    23.49956
_cell_angle_alpha                 89.871603
_cell_angle_beta                  93.950361
_cell_angle_gamma                 89.22681
_cell_volume                      2465.46239404

loop_
_atom_site_label
_atom_site_type_symbol
_atom_type_description
_atom_site_fract_x
_atom_site_fract_y
_atom_site_fract_z
_atom_type_partial_charge
C1    C     C_R   0.262648 0.500427 0.499932 0.761223
C2    C     C_R   0.737021 0.498994 0.500104 0.762917
C3    C     C_R   0.536728 0.387616 0.238702 -0.135102
C4    C     C_R   0.472544 0.393126 0.761929 -0.136377
C5    C     C_R   0.532473 0.383051 0.297736 -0.220215
C6    C     C_R   0.467525 0.389250 0.702615 -0.225092
C7    C     C_R   0.516589 0.503857 0.328874 -0.070058
C8    C     C_R   0.502999 0.503327 0.671557 -0.064939
C9    C     C_R   0.516089 0.630348 0.299940 -0.231202
C10   C     C_R   0.539863 0.623088 0.700925 -0.232296
C11   C     C_R   0.521751 0.636653 0.240588 0.199201
C12   C     C_R   0.543274 0.629217 0.760577 0.197236
C13   C     C_R   0.528709 0.513164 0.209721 0.337494
C14   C     C_R   0.510917 0.511726 0.791212 0.335755
C15   C     C_R   0.069602 0.390974 0.525880 -0.177313
C16   C     C_R   0.928994 0.602872 0.472051 -0.170038
C17   C     C_R   0.940980 0.389279 0.525443 -0.186104
C18   C     C_R   0.056909 0.603909 0.472187 -0.206349
C19   C     C_R   0.870760 0.496854 0.499380 -0.002896
C20   C     C_R   0.128139 0.499600 0.499826 -0.013026
C21   C     C_R   0.426696 0.073578 0.460476 0.159844
C22   C     C_R   0.590236 0.927935 0.530300 0.176082
C23   C     C_R   0.569069 0.069844 0.540317 0.178985
C24   C     C_R   0.410135 0.929542 0.468703 0.168509
C25   C     C_R   0.504782 0.500449 0.391311 0.780188
C26   C     C_R   0.500384 0.500283 0.608772 0.786392
C27   C     C_R   0.624941 0.491891 0.883193 0.511040
C28   C     C_R   0.415118 0.528358 0.117683 0.513187
C29   C     C_R   0.405121 0.530724 0.878207 0.536663
C30   C     C_R   0.635770 0.496423 0.122821 0.534456
C31   C     C_R   0.405289 0.530201 0.937879 -0.016172
C32   C     C_R   0.635451 0.494733 0.063111 -0.015843
C33   C     C_R   0.518987 0.511590 0.970421 -0.018623
C34   C     C_R   0.521608 0.511886 0.030533 -0.018718
C35   C     C_R   0.630026 0.492561 0.942995 -0.011660
C36   C     C_R   0.410330 0.529184 0.057922 -0.012133
C37   C     C_R   0.294968 0.547830 0.965646 -0.165443
C38   C     C_R   0.745688 0.476417 0.035323 -0.165663
C39   C     C_R   0.297411 0.546896 0.025066 -0.164369
C40   C     C_R   0.742953 0.474917 0.975870 -0.164573
Cu1   Cu    Cu3+1 0.500000 0.640660 0.500000 0.936689
Cu2   Cu    Cu3+1 0.500000 0.359340 0.500000 0.935825
H1    H     H_    0.210654 0.560497 0.045129 0.187992
H2    H     H_    0.829580 0.460333 0.955796 0.188135
H3    H     H_    0.545805 0.292987 0.215207 0.142639
H4    H     H_    0.445526 0.303871 0.785386 0.144000
H5    H     H_    0.543585 0.284879 0.318483 0.144724
H6    H     H_    0.433527 0.297947 0.681357 0.148091
H7    H     H_    0.512347 0.725284 0.323357 0.154515
H8    H     H_    0.566390 0.712629 0.677528 0.156814
N1    N     N_R   0.513852 0.512017 0.852279 -0.472111
N2    N     N_R   0.526728 0.513329 0.148674 -0.472233
N3    N     N_R   0.500000 0.852070 0.500000 -0.196479
N4    N     N_R   0.500000 0.147930 0.500000 -0.198368
O1    O     O_R   0.319640 0.618740 0.500000 -0.576570
O2    O     O_R   0.680360 0.381260 0.500000 -0.579968
O3    O     O_R   0.680360 0.618740 0.500000 -0.581368
O4    O     O_R   0.319640 0.381260 0.500000 -0.572757
O5    O     O_R   0.499960 0.618810 0.417880 -0.572106
O6    O     O_R   0.500040 0.381190 0.582120 -0.578287
O7    O     O_R   0.500040 0.618810 0.582120 -0.578581
O8    O     O_R   0.499960 0.381190 0.417880 -0.577303
O9    O     O_2   0.729923 0.471952 0.856051 -0.539312
O10   O     O_2   0.309364 0.542891 0.144739 -0.538096
O11   O     O_2   0.297437 0.550038 0.846269 -0.535668
O12   O     O_2   0.743885 0.481640 0.154834 -0.536860
H9    H     H_    0.206401 0.562114 0.941587 0.189725
H10   H     H_    0.834336 0.462918 0.059390 0.190081
C41   C     C_3   0.520236 0.775626 0.211725 -0.401985
C42   C     C_3   0.642633 0.849593 0.224942 -0.820216
H11   H     H_    0.658382 0.868391 0.271456 0.242039
H12   H     H_    0.721210 0.787399 0.210152 0.279709
H13   H     H_    0.639748 0.950022 0.202482 0.245205
H14   H     H_    0.504694 0.767328 0.164730 0.217727
H15   H     H_    0.442351 0.838863 0.226608 0.203534
C43   C     C_3   0.581061 0.761722 0.789945 -0.391752
C44   C     C_3   0.481532 0.873249 0.778876 -0.823413
H16   H     H_    0.468426 0.897540 0.732634 0.240766
H17   H     H_    0.391882 0.839241 0.794386 0.278032
H18   H     H_    0.510423 0.968084 0.801957 0.244471
H19   H     H_    0.597209 0.748299 0.836743 0.217026
H20   H     H_    0.670035 0.796709 0.773999 0.207339
H21   H     H_    0.123202 0.308359 0.546924 0.142380
H22   H     H_    0.875671 0.683220 0.449411 0.132907
H23   H     H_    0.896960 0.305329 0.546021 0.138327
H24   H     H_    0.098292 0.684238 0.449170 0.149143
C45   C     C_3   0.374435 0.131842 0.403298 -0.326452
C46   C     C_3   0.254374 0.217391 0.404131 -0.725090
H25   H     H_    0.206664 0.200170 0.443834 0.239360
H26   H     H_    0.272985 0.327779 0.398432 0.251040
H27   H     H_    0.188940 0.187916 0.367754 0.211473
H28   H     H_    0.447364 0.180194 0.381009 0.200452
H29   H     H_    0.353748 0.047685 0.372865 0.166132
C47   C     C_3   0.725627 0.883230 0.538802 -0.317331
C48   C     C_3   0.760381 0.803167 0.593782 -0.790521
H30   H     H_    0.749814 0.868132 0.631805 0.226190
H31   H     H_    0.704138 0.710744 0.597484 0.272684
H32   H     H_    0.859337 0.770050 0.594110 0.233572
H33   H     H_    0.755518 0.832375 0.500206 0.204510
H34   H     H_    0.785753 0.974961 0.540035 0.163509
C49   C     C_3   0.584683 0.110486 0.602518 -0.327546
C50   C     C_3   0.703323 0.188610 0.619603 -0.790340
H35   H     H_    0.786927 0.123585 0.614768 0.225138
H36   H     H_    0.710751 0.282888 0.594335 0.271564
H37   H     H_    0.702634 0.218337 0.665165 0.239318
H38   H     H_    0.499693 0.162831 0.614613 0.204107
H39   H     H_    0.585650 0.017605 0.630044 0.165484
C51   C     C_3   0.283134 0.874958 0.448904 -0.330280
C52   C     C_3   0.278976 0.792986 0.393084 -0.764776
H40   H     H_    0.356037 0.820812 0.366880 0.229242
H41   H     H_    0.281678 0.681200 0.400547 0.256904
H42   H     H_    0.190533 0.815770 0.367535 0.211235
H43   H     H_    0.239768 0.826819 0.484699 0.204236
H44   H     H_    0.216350 0.961339 0.441149 0.166810

loop_
_geom_bond_atom_site_label_1
_geom_bond_atom_site_label_2
_ccdc_geom_bond_type
C49   H39   S    
C38   C40   A    
C45   C46   S    
C21   C45   S    
C49   C50   S    
C8    C26   S    
Cu1   Cu2   S    
C48   H30   S    
Cu1   O7    S    
Cu2   O4    S    
C48   H32   S    
C4    H4    S    
C44   H16   S    
C5    H5    S    
C18   H24   S    
C6    H6    S    
C17   H23   S    
C26   O7    A    
C52   H41   S    
C21   N4    A    
C33   C35   A    
C11   C13   A    
C45   H29   S    
C16   H22   S    
C51   C52   S    
C50   H37   S    
C15   C17   A    
C51   H44   S    
Cu1   O1    S    
Cu2   O2    S    
C31   C33   A    
C42   H11   S    
C24   C51   S    
C32   C38   A    
Cu2   O8    S    
C18   C20   A    
C3    C13   A    
C45   H28   S    
C4    C14   A    
C22   C47   S    
C50   H35   S    
C27   N1    A    
C22   N3    A    
C44   H17   S    
C39   H1    S    
C15   C20   A    
C2    O3    A    
C9    H7    S    
C43   C44   S    
Cu1   O5    S    
C4    C6    A    
C52   H42   S    
C43   H20   S    
C5    C7    A    
C15   H21   S    
C27   C35   A    
C24   N3    A    
C3    H3    S    
C31   C37   A    
C32   C34   A    
C51   H43   S    
C13   N2    S    
C14   N1    S    
C46   H27   S    
C47   H34   S    
C29   C31   A    
C42   H13   S    
C11   C41   S    
C33   C34   A    
C41   H14   S    
C50   H36   S    
C9    C11   A    
Cu1   N3    S    
C30   O12   S    
C10   C12   A    
C29   O11   S    
C28   O10   S    
C8    C10   A    
C38   H10   S    
C47   C48   S    
C12   C43   S    
Cu2   O6    S    
C10   H8    S    
C23   N4    A    
C29   N1    A    
C44   H18   S    
C49   H38   S    
C7    C9    A    
C30   N2    A    
C1    C20   S    
C2    C19   S    
C36   C39   A    
C46   H26   S    
C3    C5    A    
C43   H19   S    
C6    C8    A    
C48   H31   S    
C7    C25   S    
C35   C40   A    
C12   C14   A    
Cu1   O3    S    
C37   C39   A    
C2    O2    A    
C1    O4    A    
Cu2   N4    S    
C30   C32   A    
C28   N2    A    
C23   C49   S    
C47   H33   S    
C16   C19   A    
C37   H9    S    
C17   C19   A    
C41   H15   S    
C34   C36   A    
C25   O8    A    
C1    O1    A    
C41   C42   S    
C40   H2    S    
C46   H25   S    
C28   C36   A    
C16   C18   A    
C21   C24   A    
C22   C23   A    
C27   O9    S    
C42   H12   S    
C25   O5    A    
C52   H40   S    
C26   O6    A    
