data_mof_unit_67619.cif
_audit_creation_date              2013-03-05T16:14:30-0500
_audit_creation_method            fapswitch 2.2
_symmetry_space_group_name_H-M    P1
_symmetry_Int_Tables_number       1
_space_group_crystal_system       triclinic
_cell_length_a                    10.751863
_cell_length_b                    10.788353
_cell_length_c                    9.523478
_cell_angle_alpha                 90.902052
_cell_angle_beta                  91.135273
_cell_angle_gamma                 89.639535
_cell_volume                      1104.30134259

loop_
_atom_site_label
_atom_site_type_symbol
_atom_site_description
_atom_site_fract_x
_atom_site_fract_y
_atom_site_fract_z
_atom_type_partial_charge
O1    O     O_R   0.500060 0.316850 0.620870 -0.587913
O2    O     O_R   0.499940 0.683150 0.379130 -0.580780
O3    O     O_R   0.500000 0.316860 0.379090 -0.510671
O4    O     O_R   0.500000 0.683140 0.620910 -0.539079
C1    C     C_R   0.505302 0.259848 0.499174 0.925449
C2    C     C_R   0.496554 0.739997 0.501295 0.922804
O5    O     O_R   0.316880 0.499960 0.620870 -0.573923
O6    O     O_R   0.683120 0.500040 0.379130 -0.585541
O7    O     O_R   0.316830 0.499970 0.379090 -0.565658
O8    O     O_R   0.683170 0.500030 0.620910 -0.547536
C3    C     C_R   0.260087 0.497934 0.498361 0.922095
C4    C     C_R   0.740153 0.501478 0.500845 0.922767
Cu1   Cu    Cu3+1 0.500030 0.499990 0.643150 1.053395
Cu2   Cu    Cu3+1 0.499970 0.500010 0.356850 1.053762
C5    C     C_3   0.043930 0.421977 0.592724 0.394299
C6    C     C_3   0.955847 0.576598 0.400228 0.425238
C7    C     C_3   0.958759 0.386780 0.467729 0.245854
C8    C     C_3   0.041909 0.611727 0.523900 0.289819
C9    C     C_3   0.876989 0.501127 0.500788 -0.211662
C10   C     C_3   0.123662 0.497849 0.493972 -0.203643
C11   C     C_3   0.963863 0.538076 0.626440 -0.387513
C12   C     C_3   0.038484 0.461387 0.366402 -0.418625
H1    H     H_    0.946174 0.578152 0.730685 0.231358
H2    H     H_    0.070942 0.426085 0.263803 0.240958
C13   C     C_3   0.595407 0.037568 0.582732 0.381982
C14   C     C_3   0.409194 0.962179 0.419971 0.341226
C15   C     C_3   0.611192 0.949195 0.455699 -0.441626
C16   C     C_3   0.393839 0.049969 0.548703 -0.438711
H3    H     H_    0.698817 0.901435 0.426507 0.221197
H4    H     H_    0.303886 0.090838 0.581878 0.222642
C17   C     C_3   0.496855 0.876436 0.504682 -0.266116
C18   C     C_3   0.507698 0.122910 0.498069 -0.228939
C19   C     C_3   0.484019 0.964174 0.632666 0.435102
C20   C     C_3   0.521471 0.034478 0.370446 0.449896
C21   C     C_3   0.471727 0.609025 0.052062 -0.173135
C22   C     C_3   0.527311 0.390692 0.948202 -0.146195
C23   C     C_3   0.391439 0.531975 0.946882 -0.155326
C24   C     C_3   0.608460 0.468737 0.053010 -0.167284
H5    H     H_    0.299921 0.556926 0.899116 0.174918
H6    H     H_    0.700020 0.446213 0.101257 0.155542
H7    H     H_    0.454568 0.702120 0.097465 0.208174
H8    H     H_    0.544132 0.297272 0.903221 0.204450
N1    N     N_3   0.500090 0.499970 0.858290 -0.222690
N2    N     N_3   0.499910 0.500030 0.141710 -0.221834
C25   C     C_3   0.578291 0.576103 0.955079 0.460434
C26   C     C_3   0.420651 0.424634 0.045177 0.480167
N3    N     N_R   0.914484 0.262256 0.434644 0.115969
O9    O     O_R   0.993704 0.174035 0.407235 -0.280772
O10   O     O_R   0.796094 0.238816 0.431489 -0.420420
N4    N     N_R   0.085848 0.737117 0.551540 0.144518
O11   O     O_R   0.006853 0.825587 0.578763 -0.264594
O12   O     O_R   0.203655 0.761704 0.546354 -0.416670
O13   O     O_3   0.096959 0.340345 0.691818 -0.592692
C27   C     C_3   0.003167 0.279917 0.766586 0.169865
H9    H     H_    0.045263 0.193735 0.807663 0.190878
H10   H     H_    0.923244 0.249709 0.699289 0.203997
C28   C     C_3   0.956145 0.360688 0.888703 -0.410094
H11   H     H_    0.030711 0.422570 0.927741 0.270674
H12   H     H_    0.876122 0.417532 0.852158 0.240796
C29   C     C_3   0.911478 0.283323 0.008824 -0.829419
H13   H     H_    0.829891 0.229836 0.971011 0.286569
H14   H     H_    0.883931 0.343316 0.098275 0.242826
H15   H     H_    0.985929 0.220657 0.047351 0.287267
O14   O     O_3   0.901082 0.666913 0.312345 -0.580757
C30   C     C_3   0.932256 0.646267 0.170792 0.049261
H16   H     H_    0.856361 0.685870 0.105610 0.207311
H17   H     H_    0.934401 0.546979 0.139454 0.131823
C31   C     C_3   0.054939 0.710265 0.138502 -0.295144
H18   H     H_    0.053412 0.806374 0.182018 0.280900
H19   H     H_    0.133448 0.659369 0.189348 0.251953
C32   C     C_3   0.076004 0.715329 0.980864 -0.868312
H20   H     H_    0.074071 0.621404 0.933525 0.249118
H21   H     H_    0.168747 0.754467 0.961606 0.251133
H22   H     H_    0.003963 0.773954 0.928896 0.295855
N5    N     N_R   0.698550 0.077258 0.673313 0.162229
O15   O     O_R   0.809391 0.031746 0.654796 -0.301035
O16   O     O_R   0.678656 0.151638 0.778921 -0.435407
N6    N     N_R   0.305973 0.923182 0.329081 0.172021
O17   O     O_R   0.195843 0.971041 0.345690 -0.275583
O18   O     O_R   0.324341 0.844029 0.227555 -0.438887
O19   O     O_3   0.480812 0.927067 0.773875 -0.539107
C33   C     C_3   0.357845 0.918769 0.821121 0.066445
H23   H     H_    0.355817 0.841201 0.896108 0.178860
H24   H     H_    0.288895 0.896483 0.736208 0.195373
C34   C     C_3   0.321164 0.038340 0.898632 -0.322908
H25   H     H_    0.389757 0.057814 0.984148 0.279109
H26   H     H_    0.321358 0.117811 0.826047 0.226281
C35   C     C_3   0.192937 0.027884 0.962155 -0.805248
H27   H     H_    0.122374 0.001685 0.880450 0.248741
H28   H     H_    0.167330 0.117993 0.010702 0.300427
H29   H     H_    0.193718 0.957843 0.045587 0.302165
O20   O     O_3   0.534654 0.077669 0.232410 -0.553318
C36   C     C_3   0.617381 0.002018 0.155387 0.087020
H30   H     H_    0.591467 0.010557 0.042679 0.230312
H31   H     H_    0.609642 0.901696 0.180041 0.163159
C37   C     C_3   0.751083 0.048185 0.175220 -0.325649
H32   H     H_    0.751518 0.149913 0.162696 0.256613
H33   H     H_    0.787126 0.029621 0.282331 0.277031
C38   C     C_3   0.838171 0.985734 0.071098 -0.796349
H34   H     H_    0.832322 0.884428 0.080672 0.275387
H35   H     H_    0.935597 0.013643 0.094419 0.261642
H36   H     H_    0.812660 0.010588 0.961679 0.310254
N7    N     N_R   0.664008 0.667387 0.903593 0.127578
O21   O     O_R   0.643751 0.784641 0.926340 -0.374140
O22   O     O_R   0.769320 0.632057 0.852811 -0.426855
N8    N     N_R   0.326837 0.341491 0.097090 0.121667
O23   O     O_R   0.210262 0.362509 0.068782 -0.440423
O24   O     O_R   0.358592 0.241469 0.162722 -0.308370

loop_
_geom_bond_atom_site_label_1
_geom_bond_atom_site_label_2
_geom_bond_distance
_ccdc_geom_bond_type
C36   H30   1.108684 S    
C15   H3    1.109120 S    
C8    C11   1.534412 S    
C22   H8    1.104157 S    
O7    Cu2   1.984625 S    
O19   C33   1.408825 S    
N3    O10   1.299024 A    
C34   H25   1.106377 S    
O5    C3    1.306021 A    
C14   N6    1.454057 S    
C29   H15   1.105356 S    
O1    C1    1.305474 A    
C5    O13   1.410599 S    
C21   C23   1.545345 S    
C31   C32   1.524563 S    
N6    O18   1.297114 A    
C28   H12   1.107123 S    
N8    O23   1.296167 A    
C37   C38   1.523740 S    
C29   H14   1.105695 S    
O4    Cu1   1.990516 S    
C24   C25   1.527741 S    
C25   N7    1.450575 S    
C14   C20   1.527779 S    
C38   H34   1.100453 S    
C31   H18   1.110680 S    
C30   H17   1.107642 S    
C37   H33   1.104819 S    
N4    O12   1.297815 A    
C17   C19   1.539254 S    
C22   C26   1.525836 S    
C1    C18   1.477269 S    
C13   C18   1.539293 S    
C2    C17   1.471817 S    
C14   C17   1.541835 S    
C36   H31   1.115061 S    
Cu1   Cu2   2.726562 S    
O2    C2    1.307657 A    
O2    Cu2   1.983814 S    
N2    C26   1.478901 S    
C34   H26   1.109805 S    
C15   C20   1.554867 S    
C5    C10   1.534409 S    
C23   H5    1.109238 S    
C27   H10   1.109287 S    
C3    C10   1.466596 S    
C15   C17   1.546421 S    
C16   C18   1.548510 S    
O4    C2    1.302047 A    
C32   H21   1.105090 S    
N6    O17   1.300338 A    
C28   C29   1.514199 S    
O13   C27   1.414328 S    
C6    C12   1.556579 S    
C29   H13   1.104297 S    
C13   N5    1.453877 S    
C18   C20   1.542146 S    
C23   N1    1.490153 S    
N5    O15   1.300253 A    
C24   N2    1.488235 S    
N5    O16   1.296987 A    
N3    O9    1.300099 A    
C35   H29   1.104968 S    
C5    C11   1.548460 S    
O6    C4    1.300491 A    
C30   C31   1.531488 S    
C37   H32   1.105859 S    
N4    O11   1.300110 A    
N7    O22   1.292954 A    
C21   N2    1.490062 S    
O7    C3    1.300508 A    
O3    Cu2   1.990516 S    
O8    C4    1.308246 A    
C31   H19   1.111232 S    
C38   H35   1.109002 S    
C10   C12   1.553982 S    
C16   C19   1.554837 S    
C33   H23   1.109243 S    
C36   C37   1.531528 S    
C33   H24   1.110727 S    
C11   H1    1.096193 S    
C12   H2    1.105298 S    
O1    Cu1   1.983814 S    
C21   C25   1.522651 S    
Cu1   N1    2.048871 S    
C8    N4    1.454061 S    
Cu2   N2    2.048873 S    
C34   C35   1.522039 S    
C5    C7    1.531910 S    
C27   H9    1.105209 S    
O6    Cu2   1.976421 S    
C9    C11   1.551992 S    
C7    N3    1.455822 S    
C35   H28   1.105494 S    
O3    C1    1.307114 A    
O8    Cu1   1.984626 S    
C32   H22   1.110589 S    
C13   C15   1.539861 S    
C33   C34   1.529582 S    
C14   C16   1.548156 S    
C7    C12   1.542643 S    
O14   C30   1.409526 S    
C16   H4    1.109952 S    
C32   H20   1.102709 S    
N1    C25   1.478299 S    
C24   H6    1.105384 S    
C28   H11   1.101718 S    
N8    O24   1.296068 A    
C6    C9    1.537664 S    
C26   N8    1.453102 S    
C4    C9    1.471232 S    
C22   C24   1.553941 S    
O20   C36   1.411804 S    
C7    C9    1.542393 S    
C8    C10   1.532499 S    
C21   H7    1.103116 S    
C20   O20   1.411676 S    
O5    Cu1   1.976421 S    
C38   H36   1.108855 S    
C35   H27   1.110557 S    
C6    C8    1.527815 S    
C30   H16   1.103472 S    
N7    O21   1.297809 A    
C22   N1    1.492066 S    
C6    O14   1.412622 S    
C23   C26   1.527710 S    
C19   O19   1.410278 S    
C13   C19   1.527673 S    
C27   C28   1.534033 S    
