data_mof_unit_50310.cif
_audit_creation_date              2012-12-11T14:38:28-0500
_audit_creation_method            fapswitch 2.2
_symmetry_space_group_name_H-M    P1
_symmetry_Int_Tables_number       1
_space_group_crystal_system       triclinic
_cell_length_a                    19.331101
_cell_length_b                    11.373714
_cell_length_c                    19.612757
_cell_angle_alpha                 89.817745
_cell_angle_beta                  96.787311
_cell_angle_gamma                 90.079544
_cell_volume                      4281.94159221

loop_
_atom_site_label
_atom_site_type_symbol
_atom_type_description
_atom_site_fract_x
_atom_site_fract_y
_atom_site_fract_z
_atom_type_partial_charge
C1    C     C_R   0.727747 0.946239 0.356673 0.521687
C2    C     C_3   0.187121 0.432043 0.467102 -0.101195
C3    C     C_R   0.017313 0.185339 0.624631 -0.100719
C4    C     C_R   0.015717 0.307351 0.629097 -0.107669
C5    C     C_R   0.956149 0.368865 0.601832 -0.049959
C6    C     C_R   0.114870 0.373458 0.449991 0.053724
C7    C     C_R   0.057776 0.428053 0.473617 -0.097237
C8    C     C_R   0.989965 0.395829 0.448883 -0.089536
C9    C     C_R   0.977848 0.299688 0.405141 -0.103145
C10   C     C_R   0.034077 0.235356 0.387425 -0.115092
C11   C     C_R   0.101655 0.272672 0.409947 -0.051652
C12   C     C_R   0.385177 0.831371 0.541428 0.028549
C13   C     C_3   0.322278 0.919455 0.530955 -0.091601
C14   C     C_R   0.395722 0.739161 0.495143 -0.123419
C15   C     C_R   0.449070 0.656643 0.509896 -0.146309
C16   C     C_R   0.497894 0.670035 0.567311 -0.126236
C17   C     C_R   0.494881 0.768745 0.608197 -0.134349
C18   C     C_R   0.440170 0.848637 0.594289 -0.082783
C19   C     C_R   0.653093 0.716863 0.399124 0.024408
C20   C     C_R   0.587511 0.672426 0.410835 -0.133857
C21   C     C_R   0.548571 0.600888 0.362598 -0.123784
C22   C     C_R   0.574011 0.573462 0.301069 -0.061569
C23   C     C_R   0.638706 0.616237 0.288035 -0.073693
C24   C     C_3   0.683900 0.816960 0.446065 -0.088518
C25   C     C_R   0.678055 0.686428 0.336438 -0.061755
C26   C     C_R   0.703807 0.230630 0.629021 0.000695
C27   C     C_R   0.764736 0.179395 0.662386 -0.091469
C28   C     C_R   0.764046 0.115340 0.723185 -0.065722
C29   C     C_R   0.702176 0.101149 0.752212 -0.081470
C30   C     C_R   0.641376 0.153846 0.721293 -0.112321
C31   C     C_R   0.642483 0.219422 0.660994 -0.097353
C32   C     C_R   0.281808 0.209598 0.361511 -0.016036
C33   C     C_R   0.231217 0.138451 0.324042 -0.066977
C34   C     C_R   0.233231 0.116564 0.254299 -0.063218
C35   C     C_3   0.703730 0.312455 0.566201 -0.122313
C36   C     C_R   0.289073 0.154659 0.221295 -0.104691
C37   C     C_R   0.342730 0.217485 0.257906 -0.101324
C38   C     C_R   0.338717 0.246248 0.326451 -0.093935
C39   C     C_R   0.251613 0.700324 0.632403 0.001326
C40   C     C_R   0.320859 0.663692 0.648311 -0.064572
C41   C     C_R   0.346470 0.626566 0.714473 -0.046783
C42   C     C_R   0.302524 0.622173 0.765821 -0.036540
C43   C     C_R   0.232205 0.648989 0.750205 -0.085233
C44   C     C_R   0.206843 0.687559 0.684319 -0.105276
C45   C     C_R   0.844682 0.767823 0.385719 0.005502
C46   C     C_3   0.275184 0.268823 0.431983 -0.141940
C47   C     C_R   0.845122 0.644866 0.387340 -0.107894
C48   C     C_R   0.860164 0.580142 0.330089 -0.117621
C49   C     C_R   0.876043 0.637746 0.271028 -0.100691
C50   C     C_R   0.878945 0.760059 0.269618 -0.100532
C51   C     C_R   0.864519 0.824507 0.326763 -0.096941
C52   C     C_3   0.226418 0.776524 0.569224 -0.114234
C53   C     C_3   0.820542 0.842840 0.442784 -0.104491
C54   C     C_3   0.760051 0.410513 0.571077 0.063109
C55   C     C_3   0.251893 0.400132 0.426091 0.064069
C56   C     C_3   0.254105 0.903602 0.572188 0.067336
C57   C     C_R   0.273402 0.950326 0.641421 0.550536
C58   C     C_3   0.745939 0.896031 0.425950 0.051895
C59   C     C_3   0.735112 0.344977 0.443125 0.016373
C60   C     C_3   0.270943 0.342981 0.556808 0.028646
C61   C     C_3   0.229195 0.850712 0.442207 0.034851
C62   C     C_3   0.765767 0.839507 0.557349 0.026065
C63   C     C_3   0.814711 0.351764 0.464806 -0.230410
C64   C     C_3   0.208279 0.426110 0.543397 -0.232527
C65   C     C_3   0.295871 0.928142 0.456108 -0.221093
C66   C     C_3   0.693588 0.793510 0.522955 -0.229148
C67   C     C_3   0.704728 0.258440 0.494988 -0.274342
C68   C     C_R   0.229124 0.446222 0.356363 0.552378
C69   C     C_3   0.259386 0.232867 0.505655 -0.269727
C70   C     C_3   0.226401 0.740385 0.492703 -0.250306
C71   C     C_3   0.828398 0.796896 0.518932 -0.228395
C72   C     C_3   0.427518 0.229886 0.968689 -0.217118
C73   C     C_3   0.444495 0.229493 0.046754 -0.248527
C74   C     C_3   0.927480 0.730126 0.968738 -0.217297
C75   C     C_3   0.944471 0.729767 0.046805 -0.249195
C76   C     C_3   0.496350 0.043492 0.960110 -0.236399
C77   C     C_3   0.572754 0.240906 0.030753 -0.217324
C78   C     C_3   0.996057 0.543472 0.960191 -0.235403
C79   C     C_R   0.775689 0.454557 0.640050 0.558457
C80   C     C_3   0.072741 0.740611 0.030806 -0.216936
C81   C     C_3   0.555838 0.239487 0.952535 -0.248931
C82   C     C_3   0.513992 0.043793 0.038594 -0.232809
C83   C     C_3   0.055808 0.739245 0.952596 -0.248480
C84   C     C_3   0.013682 0.543760 0.038675 -0.233000
C85   C     C_R   0.535847 0.180393 0.337877 0.525243
C86   C     C_R   0.460419 0.180913 0.659817 0.511923
C87   C     C_R   0.037764 0.681474 0.339105 0.543175
C88   C     C_R   0.963806 0.681639 0.661864 0.517867
C89   C     C_3   0.487151 0.172031 0.933352 0.057387
C90   C     C_3   0.704166 0.466062 0.452376 -0.236099
C91   C     C_3   0.516242 0.172515 0.065773 0.055688
C92   C     C_3   0.987040 0.672027 0.933410 0.055836
C93   C     C_3   0.016129 0.672497 0.065830 0.055084
C94   C     C_1   0.761580 0.428159 0.904363 -0.017463
C95   C     C_1   0.243362 0.414756 0.099631 -0.022236
C96   C     C_1   0.261469 0.927824 0.904207 -0.022313
C97   C     C_1   0.743346 0.914840 0.099614 -0.022590
C98   C     C_1   0.748308 0.407051 0.034786 -0.056591
C99   C     C_1   0.264028 0.365541 0.973295 -0.058977
C100  C     C_1   0.248091 0.906351 0.034537 -0.058076
C101  C     C_3   0.335050 0.414624 0.537119 -0.247260
C102  C     C_1   0.763972 0.865673 0.973260 -0.057607
C103  C     C_1   0.753774 0.416891 0.964005 -0.054724
C104  C     C_1   0.254882 0.390031 0.042275 -0.055158
C105  C     C_1   0.253603 0.916366 0.963804 -0.055494
C106  C     C_1   0.754838 0.890184 0.042238 -0.052281
C107  C     C_1   0.743996 0.392363 0.094930 -0.023265
C108  C     C_1   0.270176 0.343990 0.914097 -0.032741
C109  C     C_1   0.243756 0.891536 0.094644 -0.028780
C110  C     C_1   0.770137 0.844055 0.914076 -0.032850
C111  C     C_R   0.724139 0.310513 0.368264 0.560688
C112  C     C_3   0.168810 0.930248 0.461461 -0.245811
C113  C     C_R   0.276553 0.310618 0.632109 0.566474
C114  C     C_R   0.223883 0.813561 0.368167 0.556089
C115  C     C_R   0.775571 0.810472 0.632411 0.561741
C116  C     C_R   0.723241 0.952992 0.164145 0.535443
C117  C     C_R   0.277287 0.954254 0.836459 0.539909
C118  C     C_R   0.223226 0.453019 0.164127 0.546443
C119  C     C_R   0.777314 0.454336 0.836518 0.544608
C120  C     C_R   0.535680 0.179462 0.139955 0.535413
C121  C     C_R   0.466235 0.179142 0.859320 0.526943
C122  C     C_R   0.035591 0.679449 0.139998 0.532164
C123  C     C_3   0.760354 0.971854 0.549245 -0.257252
C124  C     C_R   0.966157 0.679147 0.859362 0.530025
C125  C     C_R   0.736427 0.358298 0.163899 0.545837
C126  C     C_R   0.277267 0.313035 0.844284 0.556047
C127  C     C_R   0.236191 0.857462 0.163578 0.546464
C128  C     C_R   0.777266 0.813027 0.844285 0.549510
C129  C     C_1   0.478506 0.173274 0.591346 -0.052426
C130  C     C_1   0.511312 0.172570 0.403656 -0.025714
C131  C     C_1   0.985986 0.680059 0.594876 -0.063978
C132  C     C_1   0.016276 0.679694 0.406296 0.002999
C133  C     C_1   0.498525 0.169350 0.462152 -0.068035
C134  C     C_3   0.832087 0.385935 0.538589 -0.094752
C135  C     C_1   0.488252 0.169628 0.531958 -0.074945
C136  C     C_1   0.005222 0.683601 0.465344 -0.070262
C137  C     C_1   0.996270 0.682963 0.535596 -0.099702
C138  C     C_3   0.723099 0.507856 0.525879 -0.274120
C139  C     C_3   0.319801 0.459646 0.461496 -0.267351
C140  C     C_3   0.187368 0.969843 0.537023 -0.268556
C141  C     C_3   0.746223 0.002563 0.472623 -0.272137
C142  C     C_R   0.895220 0.311529 0.572669 0.045554
C143  C     C_R   0.901180 0.189321 0.563805 -0.120854
C144  C     C_R   0.960228 0.126250 0.590841 -0.116344
Cr1   Cr    Cr6+3 0.765780 0.160710 0.267420 0.981763
Cr2   Cr    Cr6+3 0.383970 0.323720 0.751490 0.982137
Cr3   Cr    Cr6+3 0.116030 0.823720 0.248510 0.977133
Cr4   Cr    Cr6+3 0.883970 0.823720 0.751490 0.985031
Cr5   Cr    Cr6+3 0.234220 0.160710 0.732580 0.992684
Cr6   Cr    Cr6+3 0.265780 0.660710 0.267420 1.002790
Cr7   Cr    Cr6+3 0.734220 0.660710 0.732580 0.993736
Cr8   Cr    Cr6+3 0.612200 0.009560 0.248850 1.013461
Cr9   Cr    Cr6+3 0.387800 0.009560 0.751150 0.979738
Cr10  Cr    Cr6+3 0.112200 0.509560 0.248850 1.011969
Cr11  Cr    Cr6+3 0.887800 0.509560 0.751150 1.000815
Cr12  Cr    Cr6+3 0.616030 0.323720 0.248510 0.973637
H1    H     H_    0.757730 0.583381 0.525843 0.112069
H2    H     H_    0.163059 0.399897 0.569966 0.149973
H3    H     H_    0.832810 0.600070 0.432224 0.092420
H4    H     H_    0.859555 0.485288 0.330794 0.142070
H5    H     H_    0.887447 0.587572 0.226899 0.115146
H6    H     H_    0.892745 0.805029 0.224398 0.118379
H7    H     H_    0.867984 0.919295 0.324469 0.121971
H8    H     H_    0.338528 0.913442 0.423967 0.155937
H9    H     H_    0.680072 0.706471 0.536343 0.119265
H10   H     H_    0.377971 0.181029 0.954527 0.108762
H11   H     H_    0.444215 0.321447 0.066053 0.137205
H12   H     H_    0.877885 0.681398 0.954598 0.108343
H13   H     H_    0.944327 0.821745 0.066082 0.137360
H14   H     H_    0.419129 0.322614 0.951377 0.144820
H15   H     H_    0.403842 0.179713 0.070578 0.110074
H16   H     H_    0.919185 0.822856 0.951399 0.147425
H17   H     H_    0.318490 0.552841 0.456964 0.125255
H18   H     H_    0.903760 0.680190 0.070655 0.109644
H19   H     H_    0.447527 0.992287 0.946665 0.150364
H20   H     H_    0.576071 0.334145 0.047976 0.149211
H21   H     H_    0.947167 0.492452 0.946737 0.150327
H22   H     H_    0.076217 0.833842 0.048029 0.149916
H23   H     H_    0.474285 0.991916 0.062521 0.128928
H24   H     H_    0.551484 0.331600 0.933137 0.142284
H25   H     H_    0.973892 0.492095 0.062609 0.126701
H26   H     H_    0.051560 0.831370 0.933210 0.143076
H27   H     H_    0.598904 0.196656 0.928874 0.112432
H28   H     H_    0.192683 0.062080 0.543357 0.131027
H29   H     H_    0.565387 0.000334 0.052135 0.149338
H30   H     H_    0.098825 0.696267 0.928937 0.112553
H31   H     H_    0.065007 0.500076 0.052226 0.149539
H32   H     H_    0.624939 0.200682 0.045318 0.121065
H33   H     H_    0.538606 0.999139 0.936001 0.124343
H34   H     H_    0.124861 0.700148 0.045360 0.120152
H35   H     H_    0.038260 0.498926 0.936104 0.127437
H36   H     H_    0.673828 0.531851 0.546417 0.118471
H37   H     H_    0.365210 0.439151 0.433709 0.099332
H38   H     H_    0.141152 0.954844 0.565022 0.112797
H39   H     H_    0.693848 0.043442 0.462838 0.114750
H40   H     H_    0.786889 0.063697 0.458350 0.120504
H41   H     H_    0.646619 0.461119 0.440293 0.157819
H42   H     H_    0.382126 0.357951 0.542799 0.130472
H43   H     H_    0.118814 0.880643 0.455833 0.136746
H44   H     H_    0.808947 0.010428 0.573833 0.133753
H45   H     H_    0.725693 0.527315 0.417042 0.155548
H46   H     H_    0.347419 0.489597 0.571292 0.145569
H47   H     H_    0.159773 0.008956 0.429208 0.119617
H48   H     H_    0.717220 0.006395 0.576246 0.154283
H49   H     H_    0.347124 0.005080 0.545079 0.100842
H50   H     H_    0.743790 0.194337 0.509226 0.136284
H51   H     H_    0.637864 0.877380 0.440887 0.144986
H52   H     H_    0.854977 0.475697 0.536301 0.088347
H53   H     H_    0.175738 0.524095 0.454744 0.104409
H54   H     H_    0.282613 0.020505 0.443154 0.118827
H55   H     H_    0.651579 0.841822 0.545837 0.130088
H56   H     H_    0.838235 0.414418 0.431835 0.111546
H57   H     H_    0.222333 0.514611 0.563321 0.126402
H58   H     H_    0.650987 0.353138 0.562478 0.118670
H59   H     H_    0.332266 0.258488 0.447563 0.139648
H60   H     H_    0.169324 0.776091 0.573176 0.112656
H61   H     H_    0.204007 0.212508 0.500188 0.136314
H62   H     H_    0.858396 0.917376 0.444875 0.110572
H63   H     H_    0.652927 0.222701 0.474558 0.110659
H64   H     H_    0.291521 0.159653 0.527343 0.085417
H65   H     H_    0.176561 0.696037 0.476222 0.079340
H66   H     H_    0.876935 0.835369 0.546090 0.126367
H67   H     H_    0.861338 0.143265 0.533567 0.074040
H68   H     H_    0.962262 0.031963 0.583880 0.117192
H69   H     H_    0.063638 0.137297 0.644699 0.118486
H70   H     H_    0.061440 0.354834 0.651324 0.123722
H71   H     H_    0.959529 0.461772 0.598131 0.127222
H72   H     H_    0.268595 0.682252 0.491162 0.119645
H73   H     H_    0.066836 0.498112 0.510259 0.098260
H74   H     H_    0.947729 0.447222 0.463765 0.100364
H75   H     H_    0.925563 0.274601 0.385015 0.119867
H76   H     H_    0.025550 0.159061 0.354633 0.095626
H77   H     H_    0.143525 0.226907 0.394107 0.110129
H78   H     H_    0.363064 0.728327 0.447456 0.137930
H79   H     H_    0.453371 0.583063 0.476058 0.101891
H80   H     H_    0.539709 0.607019 0.578144 0.108040
H81   H     H_    0.534968 0.783861 0.650677 0.121154
H82   H     H_    0.441715 0.924047 0.624941 0.184102
H83   H     H_    0.837327 0.702159 0.523845 0.089285
H84   H     H_    0.565551 0.698109 0.456405 0.120181
H85   H     H_    0.497943 0.568621 0.372017 0.101272
H86   H     H_    0.543408 0.519728 0.263271 0.126613
H87   H     H_    0.658134 0.596420 0.239832 0.121730
H88   H     H_    0.725521 0.721965 0.321859 0.134024
H89   H     H_    0.813411 0.191743 0.643489 0.138678
H90   H     H_    0.811982 0.078452 0.748300 0.151055
H91   H     H_    0.701692 0.051925 0.799466 0.132768
H92   H     H_    0.593770 0.146386 0.745009 0.127048
H93   H     H_    0.595942 0.265773 0.640759 0.113260
H94   H     H_    0.838215 0.266492 0.454132 0.135666
H95   H     H_    0.188913 0.099630 0.345587 0.099053
H96   H     H_    0.190164 0.071927 0.225549 0.139914
H97   H     H_    0.290474 0.136236 0.167358 0.101332
H98   H     H_    0.386337 0.247718 0.232589 0.118437
H99   H     H_    0.379643 0.301268 0.351591 0.095521
H100  H     H_    0.356095 0.665568 0.610890 0.129793
H101  H     H_    0.400756 0.602465 0.726038 0.094445
H102  H     H_    0.322868 0.597628 0.817648 0.122477
H103  H     H_    0.197739 0.643972 0.789801 0.105033
H104  H     H_    0.152776 0.714416 0.675497 0.095718
O1    O     O_R   0.783100 0.287550 0.345460 -0.555021
O2    O     O_R   0.454350 0.284910 0.836260 -0.533473
O3    O     O_R   0.045650 0.784910 0.163740 -0.529492
O4    O     O_R   0.954350 0.784910 0.836260 -0.530133
O5    O     O_R   0.677950 0.374280 0.185410 -0.506964
O6    O     O_R   0.322050 0.374280 0.814590 -0.504072
O7    O     O_R   0.177950 0.874280 0.185410 -0.513560
O8    O     O_R   0.822050 0.874280 0.814590 -0.506622
O9    O     O_3   0.664670 0.164660 0.254930 -0.266149
O10   O     O_3   0.335330 0.164660 0.745070 -0.287967
O11   O     O_3   0.164670 0.664660 0.254930 -0.272890
O12   O     O_R   0.216900 0.287550 0.654540 -0.531350
O13   O     O_3   0.835330 0.664660 0.745070 -0.290968
O14   O     O_R   0.760020 0.037400 0.337700 -0.539122
O15   O     O_R   0.239980 0.037400 0.662300 -0.535066
O16   O     O_R   0.260020 0.537400 0.337700 -0.536604
O17   O     O_R   0.739980 0.537400 0.662300 -0.532276
O18   O     O_R   0.666600 0.921990 0.332020 -0.518685
O19   O     O_R   0.333400 0.921990 0.667980 -0.525301
O20   O     O_R   0.166600 0.421990 0.332020 -0.506372
O21   O     O_R   0.833400 0.421990 0.667980 -0.516709
O22   O     O_R   0.557260 0.082670 0.312540 -0.488845
O23   O     O_R   0.283100 0.787550 0.345460 -0.534366
O24   O     O_R   0.442740 0.082670 0.687460 -0.528816
O25   O     O_R   0.057260 0.582670 0.312540 -0.488967
O26   O     O_R   0.942740 0.582670 0.687460 -0.512389
O27   O     O_R   0.548410 0.285740 0.316480 -0.535490
O28   O     O_R   0.451590 0.285740 0.683520 -0.523200
O29   O     O_R   0.048410 0.785740 0.316480 -0.527475
O30   O     O_R   0.951590 0.785740 0.683520 -0.518490
O31   O     O_R   0.680500 0.375040 0.327000 -0.495800
O32   O     O_R   0.319500 0.375040 0.673000 -0.490393
O33   O     O_R   0.180500 0.875040 0.327000 -0.511383
O34   O     O_R   0.716900 0.787550 0.654540 -0.526818
O35   O     O_R   0.819500 0.875040 0.673000 -0.504592
O36   O     O_R   0.780350 0.286720 0.192720 -0.508473
O37   O     O_R   0.219650 0.286720 0.807280 -0.499736
O38   O     O_R   0.280350 0.786720 0.192720 -0.498922
O39   O     O_R   0.719650 0.786720 0.807280 -0.507324
O40   O     O_R   0.757470 0.036630 0.196110 -0.501791
O41   O     O_R   0.242530 0.036630 0.803890 -0.509359
O42   O     O_R   0.257470 0.536630 0.196110 -0.499192
O43   O     O_R   0.742530 0.536630 0.803890 -0.508541
O44   O     O_R   0.663840 0.921160 0.179280 -0.515972
O45   O     O_R   0.554710 0.081900 0.170950 -0.505290
O46   O     O_R   0.336160 0.921160 0.820720 -0.511514
O47   O     O_R   0.163840 0.421160 0.179280 -0.514083
O48   O     O_R   0.836160 0.421160 0.820720 -0.509605
O49   O     O_R   0.445290 0.081900 0.829050 -0.508690
O50   O     O_R   0.054710 0.581900 0.170950 -0.510185
O51   O     O_R   0.945290 0.581900 0.829050 -0.506678
O52   O     O_R   0.545650 0.284910 0.163740 -0.536940

loop_
_geom_bond_atom_site_label_1
_geom_bond_atom_site_label_2
_ccdc_geom_bond_type
C19   C20   A    
C113  O12   A    
C63   H56   S    
C117  O46   A    
Cr6   O38   S    
C127  O7    A    
C88   O30   A    
C70   H72   S    
C2    C55   S    
C56   C140  S    
C124  O4    A    
C143  C144  A    
C54   C134  S    
C55   C139  S    
C56   C57   S    
C118  O42   A    
Cr10  O25   S    
C74   C92   S    
C111  O1    A    
C109  C127  S    
C46   C55   S    
C75   H13   S    
C59   C111  S    
Cr6   O42   S    
Cr12  O52   S    
C100  C109  T    
C21   C22   A    
C115  O34   A    
C80   C83   S    
Cr9   O49   S    
C45   C47   A    
C82   H29   S    
Cr2   O10   S    
Cr7   O39   S    
C74   C75   S    
C6    C11   A    
C90   H41   S    
C72   C73   S    
Cr12  O9    S    
C82   C91   S    
Cr12  O31   S    
C141  H40   S    
C43   C44   A    
C37   C38   A    
C96   C117  S    
C123  C141  S    
C10   H76   S    
C30   H92   S    
Cr5   O41   S    
Cr3   O3    S    
C53   C71   S    
C75   C93   S    
C21   H85   S    
C54   C79   S    
Cr3   O29   S    
C25   H88   S    
C77   C91   S    
C125  O5    A    
C72   H10   S    
C76   H19   S    
C78   H35   S    
C87   O25   A    
C81   H24   S    
Cr6   O16   S    
C4    C5    A    
C53   C58   S    
C6    C7    A    
C68   O20   A    
C79   O21   A    
C24   H51   S    
C59   C63   S    
C60   C64   S    
C127  O38   A    
C58   C141  S    
Cr6   O23   S    
C35   H58   S    
C40   H100  S    
C61   C65   S    
C26   C35   S    
C63   H94   S    
C20   C21   A    
C114  O33   A    
C37   H98   S    
C133  C135  S    
C86   O24   A    
C22   C23   A    
C84   H31   S    
C108  C126  S    
C80   C93   S    
C139  H37   S    
C110  C128  S    
Cr8   O45   S    
C11   H77   S    
C50   H6    S    
C78   H21   S    
C112  C140  S    
C101  C139  S    
C111  O31   A    
C7    C8    A    
C47   H3    S    
C99   C108  T    
C48   H4    S    
C36   C37   A    
Cr5   O10   S    
C27   H89   S    
C116  O44   A    
C70   H65   S    
C31   H93   S    
C124  O51   A    
C59   C67   S    
C129  C135  T    
C120  O45   A    
C9    C10   A    
C49   H5    S    
C76   C89   S    
C84   C93   S    
C13   C56   S    
C45   C53   S    
C75   H18   S    
C90   C138  S    
Cr8   O22   S    
C62   C66   S    
C115  O35   A    
C64   H57   S    
C107  C125  S    
C76   C82   S    
C39   C40   A    
Cr9   O46   S    
C78   C92   S    
C20   H84   S    
C5    H71   S    
Cr11  O21   S    
C29   C30   A    
C121  O2    A    
C44   H104  S    
C134  H52   S    
C35   C67   S    
Cr8   O9    S    
C132  C136  T    
Cr4   O30   S    
C118  O47   A    
C17   C18   A    
C1    O14   A    
C28   H90   S    
Cr4   O4    S    
C41   H101  S    
C65   H54   S    
Cr10  O50   S    
C46   H59   S    
C77   H20   S    
Cr1   O1    S    
Cr7   O43   S    
C117  O41   A    
C3    C4    A    
Cr8   O44   S    
Cr4   O35   S    
C2    H53   S    
C66   H9    S    
Cr4   O13   S    
C32   C46   S    
Cr5   O12   S    
C136  C137  S    
C39   C44   A    
C67   H63   S    
Cr1   O14   S    
C62   C115  S    
C42   H102  S    
C5    C142  A    
C60   C69   S    
Cr5   O37   S    
C62   C71   S    
C38   H99   S    
C34   C36   A    
C10   C11   A    
C114  O23   A    
C12   C13   S    
C121  O49   A    
C49   C50   A    
C64   H2    S    
C61   C114  S    
C77   H32   S    
C14   C15   A    
C126  O6    A    
C88   C131  S    
C61   C112  S    
Cr12  O27   S    
C18   H82   S    
C35   C54   S    
C61   C70   S    
C96   C105  T    
C41   C42   A    
Cr9   O10   S    
C73   H11   S    
C74   H12   S    
C55   C68   S    
C126  O37   A    
Cr10  O47   S    
C26   C27   A    
C140  H28   S    
C69   H61   S    
C28   C29   A    
C92   C124  S    
C30   C31   A    
C122  O3    A    
C98   C103  S    
C69   H64   S    
C52   H60   S    
C141  H39   S    
Cr3   O11   S    
C16   C17   A    
C82   H23   S    
C83   H30   S    
C51   H7    S    
C4    H70   S    
C24   C66   S    
C81   C89   S    
C99   C104  S    
C71   H66   S    
Cr9   O24   S    
C120  O52   A    
C80   H34   S    
C57   O15   A    
C63   C134  S    
C93   C122  S    
C98   C107  T    
C71   H83   S    
C131  C137  T    
C85   C130  S    
C134  C142  S    
C77   C81   S    
C50   C51   A    
C128  O8    A    
Cr11  O26   S    
Cr7   O13   S    
C67   H50   S    
Cr8   O18   S    
C97   C106  T    
C48   C49   A    
C94   C103  T    
C85   O22   A    
C13   H49   S    
C102  C110  T    
C130  C133  T    
C42   C43   A    
Cr10  O11   S    
C22   H86   S    
C125  O36   A    
C128  O39   A    
C7    H73   S    
C138  H36   S    
C3    C144  A    
Cr1   O36   S    
Cr6   O11   S    
Cr9   O19   S    
C32   C33   A    
Cr4   O8    S    
Cr10  O20   S    
C19   C24   S    
C1    O18   A    
C89   C121  S    
C87   O29   A    
Cr2   O2    S    
Cr2   O28   S    
Cr11  O48   S    
C24   C58   S    
C15   H79   S    
C16   H80   S    
C142  C143  A    
C112  H47   S    
C119  O43   A    
C66   H55   S    
C140  H38   S    
C80   H22   S    
Cr7   O34   S    
Cr11  O13   S    
C43   H103  S    
Cr1   O40   S    
C13   C65   S    
C113  O32   A    
C83   C92   S    
C100  C105  S    
C123  H48   S    
Cr5   O15   S    
Cr1   O9    S    
C84   H25   S    
C101  H46   S    
C143  H67   S    
C45   C51   A    
C15   C16   A    
C122  O50   A    
C33   H95   S    
Cr2   O6    S    
C46   C69   S    
C76   H33   S    
C8    H74   S    
Cr12  O5    S    
C8    C9    A    
C32   C38   A    
C73   H15   S    
C3    H69   S    
C112  H43   S    
C74   H16   S    
C90   H45   S    
C39   C52   S    
C26   C31   A    
C29   H91   S    
C60   C113  S    
C2    C6    S    
Cr2   O32   S    
C62   C123  S    
C2    C64   S    
C95   C118  S    
Cr11  O51   S    
C119  O48   A    
C123  H44   S    
C73   C91   S    
Cr3   O7    S    
C101  H42   S    
Cr3   O33   S    
C83   H26   S    
C97   C116  S    
C59   C90   S    
C72   H14   S    
C87   C132  S    
C88   O26   A    
C94   C119  S    
C47   C48   A    
C68   O16   A    
C79   O17   A    
C33   C34   A    
C57   O19   A    
C40   C41   A    
C12   C14   A    
C139  H17   S    
C81   H27   S    
C60   C101  S    
C14   H78   S    
C95   C104  T    
C53   H62   S    
C85   O27   A    
C86   O28   A    
C86   C129  S    
C36   H97   S    
C9    H75   S    
Cr7   O17   S    
C1    C58   S    
C72   C89   S    
C138  H1    S    
C54   C138  S    
C65   H8    S    
C102  C106  S    
C23   C25   A    
C19   C25   A    
C144  H68   S    
C52   C70   S    
C78   C84   S    
C116  O40   A    
C12   C18   A    
C27   C28   A    
C91   C120  S    
C34   H96   S    
C23   H87   S    
C52   C56   S    
C17   H81   S    
