data_mof_unit_62338.cif
_audit_creation_date              2012-12-10T19:07:06-0500
_audit_creation_method            fapswitch 2.2
_symmetry_space_group_name_H-M    P1
_symmetry_Int_Tables_number       1
_space_group_crystal_system       triclinic
_cell_length_a                    34.560739
_cell_length_b                    36.031963
_cell_length_c                    34.614312
_cell_angle_alpha                 90.000379
_cell_angle_beta                  90.003068
_cell_angle_gamma                 90.008906
_cell_volume                      43104.8999291

loop_
_atom_site_label
_atom_site_type_symbol
_atom_type_description
_atom_site_fract_x
_atom_site_fract_y
_atom_site_fract_z
_atom_type_partial_charge
C1    C     C_R   0.500001 0.349503 0.249967 0.809810
C2    C     C_R   0.500011 0.349526 0.750026 0.812465
C3    C     C_R   0.500007 0.650479 0.750020 0.809141
C4    C     C_R   0.499995 0.650500 0.249964 0.816194
C5    C     C_R   0.500001 0.849503 0.749967 0.809819
C6    C     C_R   0.500011 0.849526 0.250026 0.812481
C7    C     C_R   0.500007 0.150479 0.250020 0.809153
C8    C     C_R   0.499995 0.150500 0.749964 0.816216
C9    C     C_R   0.000002 0.349502 0.749968 0.809474
C10   C     C_R   0.000011 0.349526 0.250026 0.812446
C11   C     C_R   0.000007 0.650479 0.250020 0.809132
C12   C     C_R   0.999995 0.650500 0.749964 0.816281
C13   C     C_R   0.000001 0.849503 0.249967 0.809847
C14   C     C_R   0.000015 0.849502 0.750024 0.811345
C15   C     C_R   0.999986 0.150496 0.750040 0.811342
C16   C     C_R   0.999995 0.150500 0.249964 0.816292
C17   C     C_R   0.832096 0.238458 0.282934 -0.223663
C18   C     C_R   0.832102 0.218424 0.737803 -0.222498
C19   C     C_R   0.832097 0.761331 0.717001 -0.222380
C20   C     C_R   0.832096 0.781525 0.262215 -0.223937
C21   C     C_R   0.832091 0.738577 0.782955 -0.223520
C22   C     C_R   0.832106 0.718403 0.237837 -0.223591
C23   C     C_R   0.832077 0.261486 0.217083 -0.222459
C24   C     C_R   0.832098 0.281531 0.762223 -0.223976
C25   C     C_R   0.332089 0.238400 0.782901 -0.223790
C26   C     C_R   0.332106 0.218403 0.237838 -0.223639
C27   C     C_R   0.332077 0.761486 0.217083 -0.222656
C28   C     C_R   0.332103 0.781558 0.762148 -0.224038
C29   C     C_R   0.332096 0.738458 0.282934 -0.223680
C30   C     C_R   0.332104 0.718395 0.737885 -0.223702
C31   C     C_R   0.332082 0.261543 0.717093 -0.222633
C32   C     C_R   0.332096 0.281525 0.262214 -0.223997
C33   C     C_R   0.852448 0.249984 0.250006 0.001752
C34   C     C_R   0.852457 0.249985 0.750005 0.002361
C35   C     C_R   0.852453 0.749972 0.749986 0.001760
C36   C     C_R   0.852458 0.749975 0.250015 0.002574
C37   C     C_R   0.352447 0.249983 0.749998 0.001814
C38   C     C_R   0.352458 0.249975 0.250015 0.002592
C39   C     C_R   0.352448 0.749984 0.250006 0.001821
C40   C     C_R   0.352459 0.749983 0.750008 0.002734
C41   C     C_R   0.771407 0.249947 0.250019 0.160460
C42   C     C_R   0.771423 0.249957 0.750034 0.158519
C43   C     C_R   0.771413 0.749917 0.749960 0.160308
C44   C     C_R   0.771424 0.749936 0.250053 0.158728
C45   C     C_R   0.271406 0.249950 0.749997 0.160730
C46   C     C_R   0.271424 0.249936 0.250052 0.158766
C47   C     C_R   0.271406 0.749947 0.250019 0.160555
C48   C     C_R   0.271426 0.749961 0.750035 0.158982
C49   C     C_3   0.538211 0.021567 0.230943 0.283935
C50   C     C_3   0.536856 0.021248 0.771579 0.219891
C51   C     C_3   0.537516 0.977928 0.769635 0.309565
C52   C     C_3   0.537118 0.978161 0.229504 0.317295
C53   C     C_3   0.538221 0.521567 0.730966 0.283942
C54   C     C_3   0.536841 0.521248 0.271614 0.219895
C55   C     C_3   0.537498 0.477928 0.269677 0.309666
C56   C     C_3   0.537126 0.478161 0.729522 0.317342
C57   C     C_3   0.037692 0.021723 0.730479 0.230719
C58   C     C_3   0.036844 0.021247 0.271606 0.219933
C59   C     C_3   0.037502 0.977928 0.269668 0.309754
C60   C     C_3   0.039073 0.978363 0.733192 0.273012
C61   C     C_3   0.038216 0.521567 0.230953 0.283985
C62   C     C_3   0.036852 0.521248 0.771597 0.219905
C63   C     C_3   0.037507 0.477928 0.769663 0.309732
C64   C     C_3   0.037124 0.478161 0.229514 0.317319
C65   C     C_3   0.465126 0.021756 0.226769 0.156033
C66   C     C_3   0.464705 0.021917 0.773794 0.179116
C67   C     C_3   0.464264 0.978274 0.772366 0.150568
C68   C     C_3   0.463968 0.978326 0.228353 0.147520
C69   C     C_3   0.465138 0.521756 0.726750 0.156038
C70   C     C_3   0.464687 0.521917 0.273766 0.179123
C71   C     C_3   0.464244 0.478274 0.272333 0.150543
C72   C     C_3   0.463977 0.478326 0.728339 0.147492
C73   C     C_3   0.965712 0.021831 0.725001 0.160657
C74   C     C_3   0.964691 0.021917 0.273772 0.179138
C75   C     C_3   0.964248 0.978275 0.272339 0.150590
C76   C     C_3   0.965990 0.978220 0.725220 0.157187
C77   C     C_3   0.965132 0.521756 0.226760 0.156023
C78   C     C_3   0.964699 0.521917 0.773783 0.179136
C79   C     C_3   0.964253 0.478275 0.772348 0.150536
C80   C     C_3   0.963974 0.478326 0.228344 0.147514
C81   C     C_1   0.000004 0.389199 0.250085 -0.182887
C82   C     C_1   0.999954 0.389136 0.749884 -0.163450
C83   C     C_1   0.999999 0.610875 0.749950 -0.178685
C84   C     C_1   0.000084 0.610817 0.249959 -0.171477
C85   C     C_1   0.000061 0.889128 0.750049 -0.188214
C86   C     C_1   0.999953 0.889136 0.249883 -0.163559
C87   C     C_1   0.999999 0.110875 0.249949 -0.178538
C88   C     C_1   0.999913 0.110861 0.750100 -0.160423
C89   C     C_1   0.500003 0.389199 0.750085 -0.182897
C90   C     C_1   0.499954 0.389136 0.249884 -0.163575
C91   C     C_1   0.499999 0.610875 0.249949 -0.178651
C92   C     C_1   0.500084 0.610817 0.749960 -0.171471
C93   C     C_1   0.500004 0.889199 0.250085 -0.182896
C94   C     C_1   0.499953 0.889136 0.749882 -0.163609
C95   C     C_1   0.499997 0.110875 0.749947 -0.178670
C96   C     C_1   0.500085 0.110817 0.249959 -0.171475
C97   C     C_3   0.500434 0.036561 0.250302 -0.082881
C98   C     C_3   0.500183 0.036743 0.749911 -0.107694
C99   C     C_3   0.500123 0.963329 0.749355 -0.067386
C100  C     C_3   0.500177 0.963458 0.250527 -0.071877
C101  C     C_3   0.500433 0.536561 0.750303 -0.082883
C102  C     C_3   0.500186 0.536743 0.249914 -0.107714
C103  C     C_3   0.500126 0.463329 0.249358 -0.067409
C104  C     C_3   0.500176 0.463458 0.750528 -0.071882
C105  C     C_3   0.000062 0.036691 0.750234 -0.084344
C106  C     C_3   0.000186 0.036743 0.249913 -0.107883
C107  C     C_3   0.000125 0.963329 0.249357 -0.067423
C108  C     C_3   0.000251 0.963315 0.750644 -0.050446
C109  C     C_3   0.000434 0.536561 0.250302 -0.082884
C110  C     C_3   0.000187 0.536743 0.749915 -0.107721
C111  C     C_3   0.000127 0.463329 0.749359 -0.067415
C112  C     C_3   0.000177 0.463458 0.250527 -0.071882
C113  C     C_3   0.999074 0.478445 0.292946 0.298198
C114  C     C_3   0.998204 0.477726 0.706799 0.285572
C115  C     C_3   0.995296 0.520927 0.707510 0.260236
C116  C     C_3   0.997346 0.521838 0.292630 0.354731
C117  C     C_3   0.995022 0.977530 0.793028 0.256029
C118  C     C_3   0.998210 0.977726 0.206797 0.285345
C119  C     C_3   0.995306 0.020927 0.207507 0.260466
C120  C     C_3   0.994173 0.021098 0.792388 0.268821
C121  C     C_3   0.499066 0.478445 0.792948 0.298207
C122  C     C_3   0.498221 0.477726 0.206797 0.285578
C123  C     C_3   0.495315 0.520927 0.207507 0.260233
C124  C     C_3   0.497332 0.521838 0.792631 0.354739
C125  C     C_3   0.499086 0.978445 0.292946 0.298210
C126  C     C_3   0.498173 0.977725 0.706796 0.285597
C127  C     C_3   0.495274 0.020927 0.707508 0.260200
C128  C     C_3   0.497357 0.021838 0.292631 0.354740
C129  C     C_1   0.000026 0.422584 0.250245 0.048729
C130  C     C_1   0.999973 0.422491 0.749719 0.074262
C131  C     C_1   0.000060 0.577518 0.749948 0.056290
C132  C     C_1   0.000245 0.577440 0.249998 0.083985
C133  C     C_1   0.000169 0.922488 0.750174 0.053670
C134  C     C_1   0.999972 0.922491 0.249717 0.074350
C135  C     C_1   0.000059 0.077518 0.249947 0.056369
C136  C     C_1   0.999904 0.077505 0.750164 0.127915
C137  C     C_1   0.500025 0.422584 0.750246 0.048710
C138  C     C_1   0.499972 0.422491 0.249718 0.074317
C139  C     C_1   0.500060 0.577518 0.249947 0.056281
C140  C     C_1   0.500245 0.577440 0.749999 0.083998
C141  C     C_1   0.500026 0.922584 0.250245 0.048729
C142  C     C_1   0.499971 0.922491 0.749716 0.074318
C143  C     C_1   0.500057 0.077518 0.749945 0.056275
C144  C     C_1   0.500245 0.077440 0.249998 0.083986
C145  C     C_R   0.531421 0.264917 0.041839 -0.183618
C146  C     C_R   0.515468 0.280290 0.958123 -0.182901
C147  C     C_R   0.531414 0.735092 0.958160 -0.182769
C148  C     C_R   0.515500 0.719738 0.041877 -0.180371
C149  C     C_R   0.531421 0.764917 0.541839 -0.183686
C150  C     C_R   0.515468 0.780290 0.458123 -0.182930
C151  C     C_R   0.531414 0.235092 0.458160 -0.182822
C152  C     C_R   0.515500 0.219738 0.541877 -0.180385
C153  C     C_R   0.031420 0.264918 0.541839 -0.183723
C154  C     C_R   0.015467 0.280290 0.458123 -0.182918
C155  C     C_R   0.031415 0.735095 0.458160 -0.182976
C156  C     C_R   0.015502 0.719741 0.541877 -0.180500
C157  C     C_R   0.031385 0.764972 0.041835 -0.183584
C158  C     C_R   0.015401 0.780332 0.958119 -0.182513
C159  C     C_R   0.031526 0.235270 0.958155 -0.181800
C160  C     C_R   0.015634 0.219840 0.041863 -0.179023
C161  C     C_R   0.499983 0.249979 0.355213 0.784671
C162  C     C_R   0.499989 0.249987 0.644788 0.784478
C163  C     C_R   0.499988 0.750014 0.644784 0.782726
C164  C     C_R   0.499988 0.750017 0.355213 0.779957
C165  C     C_R   0.499983 0.749979 0.855213 0.784701
C166  C     C_R   0.499989 0.749987 0.144788 0.784493
C167  C     C_R   0.499987 0.250014 0.144784 0.782752
C168  C     C_R   0.499988 0.250017 0.855213 0.779983
C169  C     C_R   0.999991 0.249989 0.855213 0.785886
C170  C     C_R   0.999992 0.249991 0.144788 0.784712
C171  C     C_R   0.999987 0.750015 0.144784 0.782816
C172  C     C_R   0.999986 0.750019 0.855212 0.780995
C173  C     C_R   0.999983 0.749979 0.355213 0.784638
C174  C     C_R   0.999989 0.749988 0.644788 0.783610
C175  C     C_R   0.999987 0.250014 0.644784 0.782790
C176  C     C_R   0.999988 0.250017 0.355212 0.779937
C177  C     C_R   0.531312 0.265119 0.082063 -0.191267
C178  C     C_R   0.515767 0.280110 0.917898 -0.193190
C179  C     C_R   0.531302 0.734881 0.917936 -0.189933
C180  C     C_R   0.515806 0.719924 0.082101 -0.187497
C181  C     C_R   0.531312 0.765119 0.582063 -0.191310
C182  C     C_R   0.515767 0.780110 0.417899 -0.193227
C183  C     C_R   0.531302 0.234881 0.417936 -0.189981
C184  C     C_R   0.515806 0.219924 0.582101 -0.187520
C185  C     C_R   0.031311 0.265120 0.582063 -0.191147
C186  C     C_R   0.015766 0.280110 0.417899 -0.193224
C187  C     C_R   0.031303 0.734883 0.417937 -0.189991
C188  C     C_R   0.015807 0.719926 0.582100 -0.187567
C189  C     C_R   0.031283 0.765165 0.082059 -0.191172
C190  C     C_R   0.015707 0.780146 0.917895 -0.192094
C191  C     C_R   0.031398 0.235036 0.917931 -0.187793
C192  C     C_R   0.015913 0.219999 0.082087 -0.187409
C193  C     C_R   0.499951 0.250067 0.102440 -0.000256
C194  C     C_R   0.499955 0.250067 0.897550 0.002621
C195  C     C_R   0.499939 0.749915 0.897556 -0.000469
C196  C     C_R   0.499956 0.749942 0.102448 -0.000084
C197  C     C_R   0.499951 0.750067 0.602440 -0.000258
C198  C     C_R   0.499955 0.750067 0.397550 0.002598
C199  C     C_R   0.499939 0.249915 0.397556 -0.000482
C200  C     C_R   0.499956 0.249942 0.602448 -0.000091
C201  C     C_R   0.999951 0.250067 0.602440 -0.000160
C202  C     C_R   0.999956 0.250067 0.397550 0.002620
C203  C     C_R   0.999939 0.749916 0.397556 -0.000454
C204  C     C_R   0.999957 0.749943 0.602449 0.000242
C205  C     C_R   0.999944 0.750075 0.102439 -0.000322
C206  C     C_R   0.999945 0.750077 0.897550 0.001874
C207  C     C_R   0.999975 0.249962 0.897556 -0.000254
C208  C     C_R   0.999980 0.249969 0.102447 -0.000311
C209  C     C_R   0.468546 0.235092 0.082070 -0.193227
C210  C     C_R   0.484102 0.220078 0.917941 -0.195928
C211  C     C_R   0.468527 0.764869 0.917921 -0.192673
C212  C     C_R   0.484064 0.779908 0.082055 -0.194836
C213  C     C_R   0.468546 0.735092 0.582070 -0.193231
C214  C     C_R   0.484102 0.720078 0.417941 -0.195888
C215  C     C_R   0.468527 0.264869 0.417921 -0.192628
C216  C     C_R   0.484064 0.279908 0.582055 -0.194825
C217  C     C_R   0.968547 0.235090 0.582070 -0.193329
C218  C     C_R   0.984103 0.220077 0.417941 -0.195919
C219  C     C_R   0.968527 0.764869 0.417921 -0.192705
C220  C     C_R   0.984063 0.779909 0.582055 -0.195579
C221  C     C_R   0.968552 0.735072 0.082071 -0.193151
C222  C     C_R   0.984129 0.720071 0.917942 -0.195810
C223  C     C_R   0.968532 0.264851 0.917925 -0.191576
C224  C     C_R   0.984031 0.279915 0.082064 -0.194538
C225  C     C_R   0.468374 0.235399 0.041847 -0.183760
C226  C     C_R   0.484337 0.219983 0.958163 -0.184431
C227  C     C_R   0.468354 0.764566 0.958144 -0.182386
C228  C     C_R   0.484295 0.780000 0.041832 -0.183758
C229  C     C_R   0.468374 0.735399 0.541847 -0.183741
C230  C     C_R   0.484337 0.719983 0.458163 -0.184436
C231  C     C_R   0.468354 0.264566 0.458144 -0.182353
C232  C     C_R   0.484295 0.280000 0.541832 -0.183763
C233  C     C_R   0.968375 0.235397 0.541847 -0.183757
C234  C     C_R   0.984338 0.219982 0.458163 -0.184476
C235  C     C_R   0.968355 0.764568 0.458144 -0.182397
C236  C     C_R   0.984295 0.780001 0.541832 -0.183966
C237  C     C_R   0.968373 0.735386 0.041848 -0.183457
C238  C     C_R   0.984357 0.719983 0.958164 -0.184266
C239  C     C_R   0.968379 0.264572 0.958148 -0.181267
C240  C     C_R   0.984284 0.280033 0.041841 -0.183941
C241  C     C_R   0.499887 0.250172 0.021322 0.112952
C242  C     C_R   0.499889 0.250156 0.978664 0.115194
C243  C     C_R   0.499877 0.749822 0.978673 0.113156
C244  C     C_R   0.499882 0.749847 0.021333 0.113727
C245  C     C_R   0.499888 0.750172 0.521322 0.112943
C246  C     C_R   0.499889 0.750156 0.478664 0.115164
C247  C     C_R   0.499877 0.249822 0.478673 0.113139
C248  C     C_R   0.499881 0.249847 0.521333 0.113712
C249  C     C_R   0.999888 0.250171 0.521322 0.112941
C250  C     C_R   0.999889 0.250155 0.478664 0.115194
C251  C     C_R   0.999878 0.749824 0.478673 0.113118
C252  C     C_R   0.999882 0.749850 0.521333 0.113835
C253  C     C_R   0.999866 0.750196 0.021321 0.113010
C254  C     C_R   0.999864 0.750179 0.978662 0.114847
C255  C     C_R   0.999950 0.249916 0.978672 0.113182
C256  C     C_R   0.999952 0.249927 0.021331 0.113534
C257  C     C_R   0.394792 0.249995 0.250001 0.791886
C258  C     C_R   0.394789 0.249997 0.750000 0.793609
C259  C     C_R   0.394793 0.749996 0.750000 0.791818
C260  C     C_R   0.394789 0.749998 0.250001 0.793594
C261  C     C_R   0.894792 0.249997 0.749999 0.792833
C262  C     C_R   0.894789 0.249998 0.250001 0.793705
C263  C     C_R   0.894792 0.749995 0.250001 0.791945
C264  C     C_R   0.894791 0.749996 0.749999 0.794098
C265  C     C_R   0.605211 0.249998 0.249998 0.838534
C266  C     C_R   0.605215 0.249997 0.750005 0.840458
C267  C     C_R   0.605212 0.749995 0.749995 0.838626
C268  C     C_R   0.605216 0.749996 0.250005 0.840448
C269  C     C_R   0.105212 0.249999 0.749999 0.838194
C270  C     C_R   0.105216 0.249996 0.250005 0.840394
C271  C     C_R   0.105211 0.749998 0.249998 0.838487
C272  C     C_R   0.105216 0.749999 0.750003 0.839205
C273  C     C_R   0.708272 0.281969 0.238448 0.429730
C274  C     C_R   0.708265 0.260840 0.783416 0.430455
C275  C     C_R   0.708240 0.718007 0.761732 0.430452
C276  C     C_R   0.708267 0.739032 0.216667 0.430361
C277  C     C_R   0.708277 0.781878 0.738198 0.429896
C278  C     C_R   0.708264 0.760837 0.283424 0.430401
C279  C     C_R   0.708237 0.217977 0.261622 0.430567
C280  C     C_R   0.708264 0.239067 0.716648 0.430376
C281  C     C_R   0.208270 0.281992 0.738492 0.429699
C282  C     C_R   0.208264 0.260837 0.283424 0.430395
C283  C     C_R   0.208237 0.717977 0.261623 0.430554
C284  C     C_R   0.208267 0.738992 0.716676 0.430344
C285  C     C_R   0.208272 0.781969 0.238448 0.429688
C286  C     C_R   0.208267 0.760937 0.783382 0.429880
C287  C     C_R   0.208240 0.217951 0.761522 0.430110
C288  C     C_R   0.208267 0.239032 0.216667 0.430331
C289  C     C_R   0.667884 0.281375 0.237485 -0.294498
C290  C     C_R   0.667885 0.261764 0.782795 -0.292164
C291  C     C_R   0.667850 0.718634 0.762671 -0.295546
C292  C     C_R   0.667886 0.738150 0.217266 -0.292440
C293  C     C_R   0.667888 0.781288 0.737270 -0.294589
C294  C     C_R   0.667884 0.761767 0.282798 -0.292215
C295  C     C_R   0.667846 0.218592 0.262542 -0.295615
C296  C     C_R   0.667883 0.238176 0.717251 -0.292387
C297  C     C_R   0.167881 0.281399 0.737538 -0.294672
C298  C     C_R   0.167884 0.261768 0.282798 -0.292234
C299  C     C_R   0.167846 0.718592 0.262542 -0.295667
C300  C     C_R   0.167886 0.738103 0.717280 -0.293221
C301  C     C_R   0.167884 0.781375 0.237485 -0.294578
C302  C     C_R   0.167886 0.761858 0.782759 -0.293325
C303  C     C_R   0.167850 0.218568 0.762463 -0.295380
C304  C     C_R   0.167886 0.238149 0.217266 -0.292505
C305  C     C_R   0.647562 0.249988 0.250001 -0.132557
C306  C     C_R   0.647573 0.249983 0.750017 -0.134617
C307  C     C_R   0.647564 0.749973 0.749978 -0.132726
C308  C     C_R   0.647574 0.749976 0.250022 -0.134618
C309  C     C_R   0.147562 0.249989 0.749996 -0.132042
C310  C     C_R   0.147574 0.249976 0.250022 -0.134590
C311  C     C_R   0.147562 0.749988 0.250001 -0.132550
C312  C     C_R   0.147575 0.749991 0.750013 -0.134724
C313  C     C_R   0.728768 0.249964 0.250034 -0.151694
C314  C     C_R   0.728782 0.249950 0.750035 -0.153940
C315  C     C_R   0.728773 0.749932 0.749961 -0.151561
C316  C     C_R   0.728784 0.749928 0.250050 -0.154020
C317  C     C_R   0.228768 0.249963 0.750005 -0.151507
C318  C     C_R   0.228784 0.249928 0.250050 -0.154030
C319  C     C_R   0.228768 0.749964 0.250034 -0.151726
C320  C     C_R   0.228785 0.749958 0.750033 -0.154101
C321  C     C_R   0.791820 0.238861 0.283087 -0.126408
C322  C     C_R   0.791826 0.218269 0.738248 -0.126982
C323  C     C_R   0.791821 0.760877 0.716841 -0.125761
C324  C     C_R   0.791820 0.781647 0.261803 -0.127227
C325  C     C_R   0.791815 0.738976 0.783088 -0.126182
C326  C     C_R   0.791830 0.718243 0.238287 -0.127254
C327  C     C_R   0.791802 0.261046 0.216943 -0.125650
C328  C     C_R   0.791822 0.281658 0.761807 -0.127225
C329  C     C_R   0.291813 0.238803 0.783047 -0.126524
C330  C     C_R   0.291830 0.218243 0.238287 -0.127272
C331  C     C_R   0.291801 0.761046 0.216943 -0.125799
C332  C     C_R   0.291828 0.781688 0.761728 -0.127800
C333  C     C_R   0.291820 0.738861 0.283087 -0.126427
C334  C     C_R   0.291828 0.718243 0.738332 -0.127132
C335  C     C_R   0.291806 0.261108 0.716946 -0.125853
C336  C     C_R   0.291820 0.281647 0.261802 -0.127280
H1    H     H_    0.556427 0.275868 0.026839 0.130034
H2    H     H_    0.527000 0.304238 0.973104 0.128607
H3    H     H_    0.556427 0.724162 0.973161 0.130178
H4    H     H_    0.527059 0.695805 0.026901 0.130953
H5    H     H_    0.556427 0.775868 0.526840 0.129991
H6    H     H_    0.527000 0.804238 0.473104 0.128602
H7    H     H_    0.556428 0.224162 0.473161 0.130147
H8    H     H_    0.527059 0.195805 0.526901 0.130948
H9    H     H_    0.056426 0.275870 0.526839 0.129995
H10   H     H_    0.026998 0.304238 0.473104 0.128607
H11   H     H_    0.056429 0.724166 0.473161 0.130086
H12   H     H_    0.027062 0.695808 0.526900 0.130963
H13   H     H_    0.056375 0.775954 0.026833 0.129977
H14   H     H_    0.026896 0.804297 0.973098 0.129190
H15   H     H_    0.056577 0.224415 0.973153 0.129816
H16   H     H_    0.027258 0.195942 0.026876 0.132064
H17   H     H_    0.556006 0.276569 0.097210 0.157056
H18   H     H_    0.527864 0.303708 0.902727 0.154059
H19   H     H_    0.556000 0.723444 0.902793 0.157251
H20   H     H_    0.527938 0.696348 0.097273 0.157853
H21   H     H_    0.556006 0.776569 0.597210 0.157032
H22   H     H_    0.527864 0.803708 0.402727 0.154056
H23   H     H_    0.556000 0.223444 0.402793 0.157230
H24   H     H_    0.527938 0.196348 0.597273 0.157849
H25   H     H_    0.056005 0.276571 0.597210 0.157074
H26   H     H_    0.027862 0.303708 0.402727 0.154059
H27   H     H_    0.056001 0.723446 0.402793 0.157212
H28   H     H_    0.027940 0.696350 0.597272 0.157867
H29   H     H_    0.055967 0.776639 0.097204 0.157041
H30   H     H_    0.027770 0.803758 0.902721 0.155550
H31   H     H_    0.056124 0.223662 0.902782 0.156835
H32   H     H_    0.028094 0.196440 0.097249 0.158123
H33   H     H_    0.443873 0.223612 0.097223 0.155184
H34   H     H_    0.472025 0.196451 0.902803 0.151447
H35   H     H_    0.443848 0.776330 0.902764 0.155266
H36   H     H_    0.471957 0.803517 0.097190 0.152180
H37   H     H_    0.443873 0.723612 0.597223 0.155212
H38   H     H_    0.472025 0.696452 0.402803 0.151502
H39   H     H_    0.443848 0.276330 0.402764 0.155326
H40   H     H_    0.471957 0.303517 0.597190 0.152200
H41   H     H_    0.943874 0.223609 0.597223 0.155152
H42   H     H_    0.972027 0.196450 0.402803 0.151472
H43   H     H_    0.943848 0.776330 0.402764 0.155311
H44   H     H_    0.971955 0.803517 0.597191 0.151664
H45   H     H_    0.943894 0.723562 0.097225 0.155273
H46   H     H_    0.972088 0.696427 0.902806 0.151476
H47   H     H_    0.943813 0.276236 0.902771 0.155429
H48   H     H_    0.971860 0.303488 0.097207 0.152267
H49   H     H_    0.443347 0.224479 0.026853 0.128902
H50   H     H_    0.472789 0.196062 0.973175 0.126424
H51   H     H_    0.443322 0.775469 0.973133 0.129249
H52   H     H_    0.472717 0.803904 0.026818 0.126629
H53   H     H_    0.443347 0.724479 0.526853 0.128971
H54   H     H_    0.472789 0.696062 0.473175 0.126478
H55   H     H_    0.443322 0.275469 0.473133 0.129317
H56   H     H_    0.472717 0.303904 0.526818 0.126668
H57   H     H_    0.943348 0.224476 0.526853 0.128961
H58   H     H_    0.972792 0.196060 0.473174 0.126406
H59   H     H_    0.943322 0.775470 0.473133 0.129301
H60   H     H_    0.972716 0.803905 0.526819 0.126442
H61   H     H_    0.943357 0.724441 0.026855 0.129066
H62   H     H_    0.972842 0.696049 0.973178 0.126468
H63   H     H_    0.943320 0.275413 0.973142 0.129512
H64   H     H_    0.972654 0.303918 0.026836 0.126613
H65   H     H_    0.652484 0.305883 0.227860 0.182301
H66   H     H_    0.652484 0.270803 0.808386 0.182852
H67   H     H_    0.652423 0.694189 0.772440 0.182252
H68   H     H_    0.652486 0.729107 0.191672 0.182751
H69   H     H_    0.652490 0.805748 0.727508 0.182433
H70   H     H_    0.652482 0.770821 0.308382 0.182850
H71   H     H_    0.652416 0.194096 0.272170 0.182089
H72   H     H_    0.652481 0.229143 0.691655 0.182733
H73   H     H_    0.152478 0.305925 0.727967 0.182237
H74   H     H_    0.152482 0.270822 0.308382 0.182850
H75   H     H_    0.152416 0.694096 0.272171 0.182090
H76   H     H_    0.152486 0.729005 0.691708 0.182782
H77   H     H_    0.152484 0.805883 0.227860 0.182293
H78   H     H_    0.152487 0.770965 0.808324 0.182883
H79   H     H_    0.152422 0.194055 0.772044 0.181200
H80   H     H_    0.152486 0.229107 0.191672 0.182718
H81   H     H_    0.776582 0.230726 0.309083 0.163436
H82   H     H_    0.776578 0.193356 0.729600 0.163593
H83   H     H_    0.776579 0.768890 0.690806 0.163536
H84   H     H_    0.776566 0.806554 0.270443 0.163451
H85   H     H_    0.776568 0.730953 0.809116 0.163554
H86   H     H_    0.776584 0.693323 0.229656 0.163409
H87   H     H_    0.776547 0.269178 0.190955 0.163501
H88   H     H_    0.776571 0.306562 0.770463 0.163462
H89   H     H_    0.276569 0.230621 0.809023 0.163146
H90   H     H_    0.276584 0.193323 0.229657 0.163379
H91   H     H_    0.276547 0.769178 0.190955 0.163386
H92   H     H_    0.276578 0.806614 0.770319 0.162835
H93   H     H_    0.276582 0.730726 0.309083 0.163418
H94   H     H_    0.276578 0.693310 0.729747 0.163425
H95   H     H_    0.276556 0.269287 0.690972 0.163432
H96   H     H_    0.276566 0.306555 0.270442 0.163433
H97   H     H_    0.847324 0.229749 0.308739 0.156815
H98   H     H_    0.847328 0.193695 0.728557 0.157120
H99   H     H_    0.847322 0.769948 0.691160 0.157146
H100  H     H_    0.847317 0.806272 0.271431 0.156527
H101  H     H_    0.847311 0.729980 0.808805 0.156798
H102  H     H_    0.847336 0.693670 0.228609 0.156711
H103  H     H_    0.847290 0.270208 0.191273 0.157340
H104  H     H_    0.847321 0.306270 0.771458 0.156527
H105  H     H_    0.347311 0.229645 0.808692 0.156752
H106  H     H_    0.347336 0.193670 0.228609 0.156692
H107  H     H_    0.347290 0.770208 0.191274 0.157226
H108  H     H_    0.347329 0.806318 0.771320 0.156322
H109  H     H_    0.347324 0.729749 0.308739 0.156812
H110  H     H_    0.347330 0.693644 0.728704 0.156661
H111  H     H_    0.347298 0.270310 0.691303 0.157303
H112  H     H_    0.347317 0.306273 0.271431 0.156519
H113  H     H_    0.034320 0.469585 0.198529 -0.060143
H114  H     H_    0.036492 0.467200 0.800039 -0.045527
H115  H     H_    0.033260 0.528222 0.802937 -0.010563
H116  H     H_    0.038448 0.531388 0.200251 -0.057211
H117  H     H_    0.041130 0.967881 0.702793 -0.038151
H118  H     H_    0.036484 0.967197 0.300042 -0.045574
H119  H     H_    0.033241 0.028218 0.302946 -0.010625
H120  H     H_    0.035210 0.029068 0.699126 -0.014240
H121  H     H_    0.534326 0.469589 0.698535 -0.060145
H122  H     H_    0.536473 0.467199 0.300052 -0.045459
H123  H     H_    0.533233 0.528220 0.302952 -0.010553
H124  H     H_    0.538466 0.531392 0.700267 -0.057186
H125  H     H_    0.534306 0.969586 0.198519 -0.060096
H126  H     H_    0.536526 0.967195 0.800010 -0.045374
H127  H     H_    0.533273 0.028214 0.802921 -0.010515
H128  H     H_    0.538436 0.031388 0.200242 -0.057145
H129  H     H_    0.470044 0.030187 0.196003 0.014193
H130  H     H_    0.469046 0.029851 0.804780 0.009045
H131  H     H_    0.467425 0.967875 0.802706 0.017441
H132  H     H_    0.465956 0.968259 0.197799 0.019658
H133  H     H_    0.470075 0.530184 0.695987 0.014200
H134  H     H_    0.469005 0.529847 0.304757 0.009097
H135  H     H_    0.467370 0.467871 0.302675 0.017560
H136  H     H_    0.465975 0.468256 0.697786 0.019694
H137  H     H_    0.971016 0.031226 0.694604 0.015634
H138  H     H_    0.969013 0.029848 0.304762 0.009043
H139  H     H_    0.967382 0.967872 0.302681 0.017482
H140  H     H_    0.971687 0.969190 0.694779 0.008813
H141  H     H_    0.970057 0.530187 0.195996 0.014211
H142  H     H_    0.969033 0.529846 0.804772 0.009084
H143  H     H_    0.967391 0.467870 0.802688 0.017553
H144  H     H_    0.965970 0.468259 0.197789 0.019679
O1    O     O_3   0.500000 0.250000 0.250000 -0.473095
O2    O     O_3   0.500000 0.250000 0.750000 -0.472294
O3    O     O_3   0.500000 0.750000 0.750000 -0.473077
O4    O     O_3   0.500000 0.750000 0.250000 -0.472301
O5    O     O_3   0.000000 0.250000 0.750000 -0.473744
O6    O     O_3   1.000000 0.250000 0.250000 -0.472327
O7    O     O_3   0.000000 0.750000 0.250000 -0.473097
O8    O     O_3   0.000000 0.750000 0.750000 -0.472228
O9    O     O_R   0.522740 0.331980 0.227240 -0.630247
O10   O     O_R   0.522740 0.331980 0.772760 -0.631689
O11   O     O_R   0.522740 0.668020 0.772760 -0.632873
O12   O     O_R   0.522740 0.668020 0.227240 -0.632720
O13   O     O_R   0.522740 0.831980 0.727240 -0.630244
O14   O     O_R   0.522740 0.831980 0.272760 -0.631687
O15   O     O_R   0.522740 0.168020 0.272760 -0.632864
O16   O     O_R   0.522740 0.168020 0.727240 -0.632712
O17   O     O_R   0.022740 0.331980 0.727240 -0.630356
O18   O     O_R   0.022740 0.331980 0.272760 -0.631691
O19   O     O_R   0.022740 0.668020 0.272760 -0.632865
O20   O     O_R   0.022740 0.668020 0.727240 -0.632582
O21   O     O_R   0.022740 0.831980 0.227240 -0.630226
O22   O     O_R   0.022740 0.831980 0.772760 -0.631046
O23   O     O_R   0.022740 0.168020 0.772760 -0.630942
O24   O     O_R   0.022740 0.168020 0.227240 -0.632649
O25   O     O_R   0.477260 0.271490 0.336720 -0.646818
O26   O     O_R   0.477260 0.271490 0.663280 -0.647612
O27   O     O_R   0.477260 0.728510 0.663280 -0.647105
O28   O     O_R   0.477260 0.728510 0.336720 -0.648570
O29   O     O_R   0.477260 0.771490 0.836720 -0.646834
O30   O     O_R   0.477260 0.771490 0.163280 -0.647621
O31   O     O_R   0.477260 0.228510 0.163280 -0.647113
O32   O     O_R   0.477260 0.228510 0.836720 -0.648600
O33   O     O_R   0.977260 0.271490 0.836720 -0.647182
O34   O     O_R   0.977260 0.271490 0.163280 -0.647590
O35   O     O_R   0.977260 0.728510 0.163280 -0.647115
O36   O     O_R   0.977260 0.728510 0.836720 -0.648520
O37   O     O_R   0.977260 0.771490 0.336720 -0.646843
O38   O     O_R   0.977260 0.771490 0.663280 -0.648094
O39   O     O_R   0.977260 0.228510 0.663280 -0.647269
O40   O     O_R   0.977260 0.228510 0.336720 -0.648589
O41   O     O_R   0.413270 0.271490 0.272730 -0.645100
O42   O     O_R   0.413270 0.271490 0.727270 -0.644618
O43   O     O_R   0.413270 0.728510 0.727270 -0.644976
O44   O     O_R   0.413270 0.728510 0.272730 -0.643822
O45   O     O_R   0.413270 0.771490 0.772730 -0.645123
O46   O     O_R   0.413270 0.771490 0.227270 -0.644610
O47   O     O_R   0.413270 0.228510 0.227270 -0.645006
O48   O     O_R   0.413270 0.228510 0.772730 -0.643871
O49   O     O_R   0.913270 0.271490 0.772730 -0.644946
O50   O     O_R   0.913270 0.271490 0.227270 -0.644577
O51   O     O_R   0.913270 0.728510 0.227270 -0.644972
O52   O     O_R   0.913270 0.728510 0.772730 -0.643745
O53   O     O_R   0.913270 0.771490 0.272730 -0.645103
O54   O     O_R   0.913270 0.771490 0.727270 -0.644025
O55   O     O_R   0.913270 0.228510 0.727270 -0.644901
O56   O     O_R   0.913270 0.228510 0.272730 -0.643808
O57   O     O_R   0.586730 0.271480 0.227250 -0.645950
O58   O     O_R   0.586730 0.271480 0.772750 -0.644458
O59   O     O_R   0.586730 0.728520 0.772750 -0.646384
O60   O     O_R   0.586730 0.728520 0.227250 -0.646112
O61   O     O_R   0.586730 0.771480 0.727250 -0.646030
O62   O     O_R   0.586730 0.771480 0.272750 -0.644463
O63   O     O_R   0.586730 0.228520 0.272750 -0.646347
O64   O     O_R   0.586730 0.228520 0.727250 -0.646100
O65   O     O_R   0.086730 0.271480 0.727250 -0.645958
O66   O     O_R   0.086730 0.271480 0.272750 -0.644471
O67   O     O_R   0.086730 0.728520 0.272750 -0.646353
O68   O     O_R   0.086730 0.728520 0.727250 -0.645955
O69   O     O_R   0.086730 0.771480 0.227250 -0.645976
O70   O     O_R   0.086730 0.771480 0.772750 -0.645692
O71   O     O_R   0.086730 0.228520 0.772750 -0.647061
O72   O     O_R   0.086730 0.228520 0.227250 -0.646149
O73   O     O_R   0.522730 0.228500 0.336720 -0.643981
O74   O     O_R   0.522730 0.228500 0.663280 -0.645048
O75   O     O_R   0.522730 0.771500 0.663280 -0.644483
O76   O     O_R   0.522730 0.771500 0.336720 -0.646996
O77   O     O_R   0.522730 0.728500 0.836720 -0.643973
O78   O     O_R   0.522730 0.728500 0.163280 -0.645038
O79   O     O_R   0.522730 0.271500 0.163280 -0.644467
O80   O     O_R   0.522730 0.271500 0.836720 -0.646975
O81   O     O_R   0.022730 0.228500 0.836720 -0.642307
O82   O     O_R   0.022730 0.228500 0.163280 -0.645043
O83   O     O_R   0.022730 0.771500 0.163280 -0.644452
O84   O     O_R   0.022730 0.771500 0.836720 -0.646239
O85   O     O_R   0.022730 0.728500 0.336720 -0.643977
O86   O     O_R   0.022730 0.728500 0.663280 -0.645122
O87   O     O_R   0.022730 0.271500 0.663280 -0.644497
O88   O     O_R   0.022730 0.271500 0.336720 -0.646996
O89   O     O_R   0.477270 0.331980 0.272710 -0.643449
O90   O     O_R   0.477270 0.331980 0.727290 -0.645169
O91   O     O_R   0.477270 0.668020 0.727290 -0.641491
O92   O     O_R   0.477270 0.668020 0.272710 -0.644720
O93   O     O_R   0.477270 0.831980 0.772710 -0.643474
O94   O     O_R   0.477270 0.831980 0.227290 -0.645170
O95   O     O_R   0.477270 0.168020 0.227290 -0.641507
O96   O     O_R   0.477270 0.168020 0.772710 -0.644741
O97   O     O_R   0.977270 0.331980 0.772710 -0.643689
O98   O     O_R   0.977270 0.331980 0.227290 -0.645182
O99   O     O_R   0.977270 0.668020 0.227290 -0.641510
O100  O     O_R   0.977270 0.668020 0.772710 -0.644752
O101  O     O_R   0.977270 0.831980 0.272710 -0.643465
O102  O     O_R   0.977270 0.831980 0.727290 -0.645156
O103  O     O_R   0.977270 0.168020 0.727290 -0.642942
O104  O     O_R   0.977270 0.168020 0.272710 -0.644741
Zn1   Zn    Zn3+2 0.532480 0.219280 0.282480 0.965457
Zn2   Zn    Zn3+2 0.532480 0.219280 0.717520 0.967574
Zn3   Zn    Zn3+2 0.532480 0.780720 0.717520 0.967256
Zn4   Zn    Zn3+2 0.532480 0.780720 0.282480 0.964521
Zn5   Zn    Zn3+2 0.532480 0.719280 0.782480 0.965466
Zn6   Zn    Zn3+2 0.532480 0.719280 0.217520 0.967564
Zn7   Zn    Zn3+2 0.532480 0.280720 0.217520 0.967302
Zn8   Zn    Zn3+2 0.532480 0.280720 0.782480 0.964546
Zn9   Zn    Zn3+2 0.032480 0.219280 0.782480 0.969746
Zn10  Zn    Zn3+2 0.032480 0.219280 0.217520 0.967662
Zn11  Zn    Zn3+2 0.032480 0.780720 0.217520 0.967316
Zn12  Zn    Zn3+2 0.032480 0.780720 0.782480 0.963683
Zn13  Zn    Zn3+2 0.032480 0.719280 0.282480 0.965420
Zn14  Zn    Zn3+2 0.032480 0.719280 0.717520 0.966721
Zn15  Zn    Zn3+2 0.032480 0.280720 0.717520 0.967106
Zn16  Zn    Zn3+2 0.032480 0.280720 0.282480 0.964479
Zn17  Zn    Zn3+2 0.467510 0.280710 0.282470 0.962065
Zn18  Zn    Zn3+2 0.467510 0.280710 0.717530 0.960642
Zn19  Zn    Zn3+2 0.467510 0.719290 0.717530 0.961858
Zn20  Zn    Zn3+2 0.467510 0.719290 0.282470 0.959955
Zn21  Zn    Zn3+2 0.467510 0.780710 0.782470 0.962004
Zn22  Zn    Zn3+2 0.467510 0.780710 0.217530 0.960640
Zn23  Zn    Zn3+2 0.467510 0.219290 0.217530 0.961845
Zn24  Zn    Zn3+2 0.467510 0.219290 0.782470 0.959891
Zn25  Zn    Zn3+2 0.967510 0.280710 0.782470 0.962733
Zn26  Zn    Zn3+2 0.967510 0.280710 0.217530 0.960762
Zn27  Zn    Zn3+2 0.967510 0.719290 0.217530 0.961902
Zn28  Zn    Zn3+2 0.967510 0.719290 0.782470 0.960618
Zn29  Zn    Zn3+2 0.967510 0.780710 0.282470 0.962062
Zn30  Zn    Zn3+2 0.967510 0.780710 0.717530 0.960037
Zn31  Zn    Zn3+2 0.967510 0.219290 0.717530 0.963319
Zn32  Zn    Zn3+2 0.967510 0.219290 0.282470 0.960008
O105  O     O_3   0.727648 0.313597 0.226768 -0.609646
C337  C     C_3   0.731410 0.337513 0.258840 0.108686
H145  H     H_    0.746456 0.323424 0.283280 0.135964
H146  H     H_    0.702497 0.347408 0.268666 0.132655
C338  C     C_3   0.755386 0.371092 0.247179 -0.822129
H147  H     H_    0.740924 0.386166 0.223202 0.257608
H148  H     H_    0.758550 0.390157 0.272187 0.200655
H149  H     H_    0.784589 0.362076 0.237597 0.258422
O106  O     O_3   0.727591 0.271749 0.816466 -0.609772
C339  C     C_3   0.732342 0.240445 0.840503 0.106989
H150  H     H_    0.747635 0.217570 0.825079 0.136658
H151  H     H_    0.703765 0.230244 0.850947 0.133976
C340  C     C_3   0.756609 0.251299 0.875358 -0.815055
H152  H     H_    0.741964 0.273736 0.891794 0.256234
H153  H     H_    0.760511 0.226903 0.894569 0.200688
H154  H     H_    0.785485 0.261218 0.865754 0.259108
O107  O     O_3   0.727584 0.686444 0.773637 -0.609421
C341  C     C_3   0.731067 0.662197 0.741808 0.108053
H155  H     H_    0.746099 0.675978 0.717170 0.136716
H156  H     H_    0.702061 0.652349 0.732196 0.129990
C342  C     C_3   0.754889 0.628612 0.753738 -0.817858
H157  H     H_    0.740424 0.613846 0.777922 0.257397
H158  H     H_    0.757847 0.609290 0.728920 0.201042
H159  H     H_    0.784181 0.637566 0.763124 0.259483
O108  O     O_3   0.727594 0.728082 0.183636 -0.609988
C343  C     C_3   0.732376 0.759358 0.159565 0.107647
H160  H     H_    0.747665 0.782251 0.174973 0.136150
H161  H     H_    0.703811 0.769548 0.149084 0.134267
C344  C     C_3   0.756665 0.748463 0.124745 -0.817450
H162  H     H_    0.742025 0.726007 0.108324 0.256460
H163  H     H_    0.760592 0.772836 0.105506 0.200120
H164  H     H_    0.785531 0.738554 0.134387 0.258933
O109  O     O_3   0.727652 0.813429 0.726294 -0.609803
C345  C     C_3   0.731353 0.837584 0.758177 0.107170
H165  H     H_    0.746463 0.823707 0.782709 0.136332
H166  H     H_    0.702418 0.847467 0.767951 0.132814
C346  C     C_3   0.755209 0.871150 0.746237 -0.819125
H167  H     H_    0.740680 0.886005 0.722152 0.257362
H168  H     H_    0.758319 0.890406 0.771093 0.200506
H169  H     H_    0.784438 0.862160 0.736707 0.259447
O110  O     O_3   0.727588 0.771759 0.316471 -0.609661
C347  C     C_3   0.732339 0.740463 0.340520 0.107196
H170  H     H_    0.747632 0.717582 0.325106 0.136156
H171  H     H_    0.703762 0.730266 0.350967 0.133880
C348  C     C_3   0.756605 0.751330 0.375371 -0.816485
H172  H     H_    0.741960 0.773773 0.391798 0.256438
H173  H     H_    0.760507 0.726941 0.394592 0.200156
H174  H     H_    0.785482 0.761245 0.365764 0.258988
O111  O     O_3   0.727583 0.186363 0.273375 -0.609447
C349  C     C_3   0.731059 0.162252 0.241433 0.108073
H175  H     H_    0.746087 0.176139 0.216857 0.136881
H176  H     H_    0.702050 0.152447 0.231780 0.129986
C350  C     C_3   0.754880 0.128615 0.253202 -0.817702
H177  H     H_    0.740417 0.113746 0.277319 0.257326
H178  H     H_    0.757833 0.109400 0.228294 0.201194
H179  H     H_    0.784174 0.137526 0.262627 0.259511
O112  O     O_3   0.727587 0.228136 0.683608 -0.609949
C351  C     C_3   0.732366 0.259427 0.659556 0.107649
H180  H     H_    0.747658 0.282310 0.674976 0.136053
H181  H     H_    0.703799 0.269623 0.649086 0.134222
C352  C     C_3   0.756649 0.248552 0.624725 -0.817798
H182  H     H_    0.742006 0.226106 0.608292 0.256498
H183  H     H_    0.760573 0.272937 0.605501 0.199975
H184  H     H_    0.785517 0.238637 0.634356 0.258902
O113  O     O_3   0.227644 0.313641 0.726872 -0.609619
C353  C     C_3   0.231399 0.337504 0.758987 0.108613
H185  H     H_    0.246447 0.323377 0.783402 0.135907
H186  H     H_    0.202484 0.347378 0.768829 0.132588
C354  C     C_3   0.255368 0.371107 0.747387 -0.822144
H187  H     H_    0.240904 0.386218 0.723438 0.257596
H188  H     H_    0.258528 0.390131 0.772430 0.200625
H189  H     H_    0.284574 0.362113 0.737790 0.258430
O114  O     O_3   0.227588 0.271759 0.316470 -0.609655
C355  C     C_3   0.232339 0.240464 0.340520 0.107191
H190  H     H_    0.247632 0.217583 0.325106 0.136147
H191  H     H_    0.203762 0.230267 0.350967 0.133863
C356  C     C_3   0.256604 0.251331 0.375371 -0.816488
H192  H     H_    0.241959 0.273775 0.391798 0.256443
H193  H     H_    0.260507 0.226943 0.394593 0.200134
H194  H     H_    0.285481 0.261247 0.365764 0.258998
O115  O     O_3   0.227583 0.686363 0.273375 -0.609407
C357  C     C_3   0.231059 0.662252 0.241434 0.108046
H195  H     H_    0.246088 0.676139 0.216857 0.136732
H196  H     H_    0.202050 0.652447 0.231780 0.129935
C358  C     C_3   0.254881 0.628615 0.253203 -0.817925
H197  H     H_    0.240417 0.613746 0.277319 0.257371
H198  H     H_    0.257833 0.609401 0.228294 0.201030
H199  H     H_    0.284174 0.637527 0.262627 0.259518
O116  O     O_3   0.227592 0.727976 0.683667 -0.609757
C359  C     C_3   0.232376 0.759205 0.659530 0.107166
H200  H     H_    0.247670 0.782125 0.674889 0.135676
H201  H     H_    0.203811 0.769379 0.649031 0.133621
C360  C     C_3   0.256660 0.748240 0.624730 -0.817669
H202  H     H_    0.242015 0.725755 0.608358 0.256445
H203  H     H_    0.260588 0.772576 0.605441 0.199767
H204  H     H_    0.285525 0.738345 0.634390 0.258948
O117  O     O_3   0.227648 0.813597 0.226768 -0.609684
C361  C     C_3   0.231410 0.837513 0.258840 0.108737
H205  H     H_    0.246457 0.823424 0.283280 0.135954
H206  H     H_    0.202497 0.847408 0.268666 0.132630
C362  C     C_3   0.255386 0.871092 0.247179 -0.822309
H207  H     H_    0.240923 0.886166 0.223202 0.257569
H208  H     H_    0.258550 0.890157 0.272187 0.200652
H209  H     H_    0.284589 0.862077 0.237597 0.258426
O118  O     O_3   0.227591 0.771932 0.816403 -0.610119
C363  C     C_3   0.232342 0.740691 0.840528 0.107625
H210  H     H_    0.247631 0.717774 0.825169 0.136261
H211  H     H_    0.203764 0.730519 0.851002 0.133923
C364  C     C_3   0.256611 0.751634 0.875351 -0.817336
H212  H     H_    0.241969 0.774116 0.891723 0.256234
H213  H     H_    0.260512 0.727289 0.894632 0.200287
H214  H     H_    0.285488 0.761526 0.865717 0.259019
O119  O     O_3   0.227590 0.186305 0.773178 -0.610326
C365  C     C_3   0.231124 0.162310 0.741147 0.107416
H215  H     H_    0.246132 0.176303 0.716623 0.136860
H216  H     H_    0.202135 0.152490 0.731451 0.133150
C366  C     C_3   0.255005 0.128672 0.752795 -0.818530
H217  H     H_    0.240581 0.113707 0.776869 0.256334
H218  H     H_    0.257975 0.109537 0.727822 0.201255
H219  H     H_    0.284289 0.137599 0.762234 0.259466
O120  O     O_3   0.227594 0.228081 0.183636 -0.609994
C367  C     C_3   0.232376 0.259357 0.159565 0.107813
H220  H     H_    0.247665 0.282250 0.174972 0.136082
H221  H     H_    0.203810 0.269547 0.149083 0.134163
C368  C     C_3   0.256665 0.248462 0.124745 -0.818122
H222  H     H_    0.242025 0.226006 0.108324 0.256395
H223  H     H_    0.260591 0.272835 0.105506 0.199966
H224  H     H_    0.285531 0.238553 0.134387 0.258959
O121  O     O_3   0.571233 0.033768 0.252020 -0.476026
C369  C     C_3   0.594119 0.058422 0.230010 0.144102
H225  H     H_    0.577011 0.083087 0.220922 0.117419
H226  H     H_    0.605840 0.044198 0.203990 0.103097
C370  C     C_3   0.627907 0.071726 0.254501 -0.782864
H227  H     H_    0.645838 0.047696 0.263633 0.253338
H228  H     H_    0.646159 0.091146 0.237504 0.183821
H229  H     H_    0.616977 0.086353 0.280556 0.266886
O122  O     O_3   0.571863 0.036210 0.756824 -0.592949
C371  C     C_3   0.590458 0.059486 0.783910 0.097342
H230  H     H_    0.599103 0.043361 0.809944 0.127061
H231  H     H_    0.571219 0.082796 0.792635 0.134499
C372  C     C_3   0.626696 0.075687 0.765607 -0.842604
H232  H     H_    0.618836 0.092393 0.739806 0.251573
H233  H     H_    0.641775 0.093842 0.786712 0.206385
H234  H     H_    0.646542 0.052983 0.756748 0.257625
O123  O     O_3   0.570869 0.965150 0.749558 -0.501910
C373  C     C_3   0.599745 0.953029 0.775496 0.167338
H235  H     H_    0.590023 0.927485 0.790765 0.109725
H236  H     H_    0.606780 0.974969 0.797029 0.123379
C374  C     C_3   0.636277 0.943967 0.752917 -0.809578
H237  H     H_    0.646777 0.969142 0.737642 0.259232
H238  H     H_    0.659174 0.934127 0.772960 0.189022
H239  H     H_    0.630203 0.921851 0.731396 0.259854
O124  O     O_3   0.570772 0.962814 0.246950 -0.483443
C375  C     C_3   0.598510 0.952977 0.218829 0.153781
H240  H     H_    0.604523 0.976499 0.198854 0.108407
H241  H     H_    0.588170 0.928637 0.201932 0.113359
C376  C     C_3   0.636043 0.942491 0.238948 -0.791033
H242  H     H_    0.631024 0.918770 0.258825 0.256625
H243  H     H_    0.658049 0.934385 0.217152 0.187357
H244  H     H_    0.647116 0.966504 0.255771 0.262596
O125  O     O_3   0.571230 0.533763 0.752066 -0.476002
C377  C     C_3   0.594132 0.558419 0.730075 0.144166
H245  H     H_    0.577030 0.583087 0.720979 0.117404
H246  H     H_    0.605869 0.544199 0.704060 0.103001
C378  C     C_3   0.627904 0.571720 0.754590 -0.782974
H247  H     H_    0.645828 0.547688 0.763730 0.253337
H248  H     H_    0.646168 0.591141 0.737607 0.183709
H249  H     H_    0.616957 0.586344 0.780639 0.266905
O126  O     O_3   0.571860 0.536205 0.256883 -0.592890
C379  C     C_3   0.590436 0.559484 0.283979 0.097525
H250  H     H_    0.599056 0.543364 0.310025 0.126882
H251  H     H_    0.571194 0.582799 0.292680 0.134475
C380  C     C_3   0.626693 0.575674 0.265703 -0.843271
H252  H     H_    0.618859 0.592374 0.239890 0.251657
H253  H     H_    0.641758 0.593831 0.286815 0.206205
H254  H     H_    0.646543 0.552964 0.256866 0.257536
O127  O     O_3   0.570872 0.465143 0.249640 -0.501842
C381  C     C_3   0.599720 0.453029 0.275613 0.167317
H255  H     H_    0.589982 0.427487 0.290876 0.109684
H256  H     H_    0.606728 0.474973 0.297151 0.123220
C382  C     C_3   0.636278 0.443966 0.253078 -0.809780
H257  H     H_    0.646794 0.469139 0.237812 0.259169
H258  H     H_    0.659153 0.434130 0.273149 0.188900
H259  H     H_    0.630231 0.421845 0.231554 0.259960
O128  O     O_3   0.570772 0.462811 0.746979 -0.483438
C383  C     C_3   0.598522 0.452978 0.718868 0.153779
H260  H     H_    0.604543 0.476503 0.698898 0.108327
H261  H     H_    0.588189 0.428640 0.701962 0.113329
C384  C     C_3   0.636047 0.442488 0.739000 -0.791173
H262  H     H_    0.631020 0.418765 0.758871 0.256651
H263  H     H_    0.658061 0.434386 0.717212 0.187265
H264  H     H_    0.647113 0.466499 0.755831 0.262599
O129  O     O_3   0.071135 0.038508 0.746630 -0.576384
C385  C     C_3   0.099542 0.045469 0.718213 0.147542
H265  H     H_    0.089959 0.068461 0.698996 0.120914
H266  H     H_    0.105418 0.020301 0.700525 0.124001
C386  C     C_3   0.136947 0.057018 0.737979 -0.846141
H267  H     H_    0.147046 0.034508 0.757452 0.261723
H268  H     H_    0.159593 0.062531 0.715957 0.199623
H269  H     H_    0.132185 0.082634 0.755186 0.251851
O130  O     O_3   0.071861 0.036206 0.256872 -0.592881
C387  C     C_3   0.090441 0.059484 0.283966 0.097549
H270  H     H_    0.099065 0.043363 0.310010 0.126820
H271  H     H_    0.071199 0.082798 0.292672 0.134443
C388  C     C_3   0.126694 0.075676 0.265685 -0.843369
H272  H     H_    0.118855 0.092378 0.239875 0.251663
H273  H     H_    0.141762 0.093832 0.286796 0.206189
H274  H     H_    0.146543 0.052967 0.256844 0.257518
O131  O     O_3   0.070872 0.965144 0.249621 -0.501844
C389  C     C_3   0.099725 0.953029 0.275586 0.167332
H275  H     H_    0.089991 0.927486 0.290850 0.109638
H276  H     H_    0.106739 0.974972 0.297124 0.123181
C390  C     C_3   0.136278 0.943968 0.253042 -0.809897
H277  H     H_    0.146790 0.969142 0.237774 0.259150
H278  H     H_    0.159158 0.934131 0.273107 0.188883
H279  H     H_    0.130226 0.921848 0.231518 0.259962
O132  O     O_3   0.071029 0.966987 0.756228 -0.522444
C391  C     C_3   0.094660 0.941158 0.736632 0.151902
H280  H     H_    0.108049 0.954133 0.710719 0.105707
H281  H     H_    0.077741 0.916338 0.727671 0.125745
C392  C     C_3   0.126762 0.928514 0.763601 -0.801250
H282  H     H_    0.114111 0.915185 0.789641 0.266193
H283  H     H_    0.145617 0.908158 0.748581 0.195480
H284  H     H_    0.144525 0.952700 0.772636 0.247087
O133  O     O_3   0.071232 0.533769 0.252038 -0.476011
C393  C     C_3   0.094124 0.558422 0.230033 0.144094
H285  H     H_    0.077017 0.583087 0.220939 0.117399
H286  H     H_    0.105852 0.544198 0.204016 0.103000
C394  C     C_3   0.127905 0.571729 0.254531 -0.782949
H287  H     H_    0.145834 0.547699 0.263669 0.253330
H288  H     H_    0.146161 0.591148 0.237538 0.183774
H289  H     H_    0.116967 0.586357 0.280583 0.266908
O134  O     O_3   0.071865 0.536203 0.756848 -0.592884
C395  C     C_3   0.090455 0.559482 0.783933 0.097493
H290  H     H_    0.099087 0.543365 0.809976 0.126870
H291  H     H_    0.071218 0.582800 0.792642 0.134484
C396  C     C_3   0.126704 0.575670 0.765637 -0.843168
H292  H     H_    0.118858 0.592369 0.739827 0.251667
H293  H     H_    0.141780 0.593828 0.786741 0.206231
H294  H     H_    0.146548 0.552958 0.756793 0.257520
O135  O     O_3   0.070873 0.465140 0.749614 -0.501819
C397  C     C_3   0.099729 0.453026 0.775578 0.167285
H295  H     H_    0.089995 0.427486 0.790845 0.109624
H296  H     H_    0.106747 0.474971 0.797112 0.123204
C398  C     C_3   0.136279 0.443959 0.753031 -0.809780
H297  H     H_    0.146791 0.469131 0.737758 0.259171
H298  H     H_    0.159160 0.434123 0.773094 0.188896
H299  H     H_    0.130222 0.421838 0.731510 0.259970
O136  O     O_3   0.070773 0.462815 0.246971 -0.483421
C399  C     C_3   0.098519 0.452977 0.218857 0.153798
H300  H     H_    0.104538 0.476499 0.198883 0.108327
H301  H     H_    0.088183 0.428636 0.201958 0.113311
C400  C     C_3   0.136047 0.442491 0.238987 -0.791178
H302  H     H_    0.131022 0.418771 0.258863 0.256651
H303  H     H_    0.158058 0.434385 0.217197 0.187255
H304  H     H_    0.147114 0.466504 0.255812 0.262603
O137  O     O_3   0.430362 0.037036 0.242019 -0.552754
C401  C     C_3   0.405177 0.048235 0.212101 0.174592
H305  H     H_    0.400140 0.025301 0.191138 0.119953
H306  H     H_    0.417445 0.072659 0.196678 0.123928
C402  C     C_3   0.366458 0.059273 0.229471 -0.824867
H307  H     H_    0.370499 0.082489 0.250196 0.251409
H308  H     H_    0.346450 0.068341 0.206214 0.197149
H309  H     H_    0.353481 0.035233 0.244829 0.259920
O138  O     O_3   0.429425 0.036399 0.758675 -0.554592
C403  C     C_3   0.410391 0.059279 0.785813 0.140640
H310  H     H_    0.429017 0.083191 0.794121 0.138498
H311  H     H_    0.402573 0.043140 0.812095 0.114170
C404  C     C_3   0.373421 0.074313 0.767869 -0.814259
H312  H     H_    0.354067 0.051004 0.759630 0.253231
H313  H     H_    0.358155 0.092336 0.788960 0.201732
H314  H     H_    0.380416 0.090895 0.741735 0.256780
O139  O     O_3   0.429721 0.965223 0.754603 -0.560872
C405  C     C_3   0.402739 0.953234 0.782570 0.179925
H315  H     H_    0.397527 0.975097 0.804697 0.127196
H316  H     H_    0.413357 0.927548 0.796954 0.122138
C406  C     C_3   0.364514 0.944612 0.762786 -0.827868
H317  H     H_    0.368691 0.922507 0.740812 0.250373
H318  H     H_    0.343105 0.934941 0.784486 0.196659
H319  H     H_    0.353160 0.969943 0.748433 0.262246
O140  O     O_3   0.429624 0.966185 0.247275 -0.554280
C407  C     C_3   0.407418 0.942773 0.223202 0.147675
H320  H     H_    0.424162 0.917561 0.215095 0.135812
H321  H     H_    0.398315 0.957724 0.196579 0.120159
C408  C     C_3   0.371297 0.930591 0.244833 -0.826574
H322  H     H_    0.353776 0.955230 0.252942 0.256037
H323  H     H_    0.353580 0.912142 0.226182 0.203541
H324  H     H_    0.379528 0.915228 0.271411 0.250799
O141  O     O_3   0.430366 0.537039 0.741978 -0.552761
C409  C     C_3   0.405197 0.548231 0.712043 0.174579
H325  H     H_    0.400173 0.525294 0.691082 0.119998
H326  H     H_    0.417473 0.572654 0.696622 0.123955
C410  C     C_3   0.366469 0.559271 0.729389 -0.824727
H327  H     H_    0.370497 0.582492 0.750112 0.251392
H328  H     H_    0.346473 0.568334 0.706119 0.197216
H329  H     H_    0.353483 0.535234 0.744744 0.259919
O142  O     O_3   0.429422 0.536404 0.258621 -0.554622
C411  C     C_3   0.410364 0.559276 0.285751 0.140452
H330  H     H_    0.428981 0.583187 0.294078 0.138506
H331  H     H_    0.402528 0.543130 0.312024 0.114485
C412  C     C_3   0.373406 0.574310 0.267783 -0.813394
H332  H     H_    0.354060 0.551001 0.259524 0.253420
H333  H     H_    0.358122 0.592327 0.288868 0.201938
H334  H     H_    0.380419 0.590899 0.241658 0.256627
O143  O     O_3   0.429718 0.465229 0.254529 -0.560940
C413  C     C_3   0.402706 0.453233 0.282464 0.179384
H335  H     H_    0.397471 0.475091 0.304591 0.127512
H336  H     H_    0.413309 0.427544 0.296853 0.122245
C414  C     C_3   0.364503 0.444616 0.262636 -0.826218
H337  H     H_    0.368703 0.422516 0.240662 0.250217
H338  H     H_    0.343071 0.434939 0.284310 0.197260
H339  H     H_    0.353164 0.469951 0.248278 0.262319
O144  O     O_3   0.429625 0.466189 0.747248 -0.554296
C415  C     C_3   0.407429 0.442773 0.723171 0.147664
H340  H     H_    0.424176 0.417560 0.715074 0.135821
H341  H     H_    0.398334 0.457719 0.696543 0.120223
C416  C     C_3   0.371300 0.430591 0.744791 -0.826496
H342  H     H_    0.353775 0.455231 0.752890 0.256052
H343  H     H_    0.353592 0.412139 0.726137 0.203568
H344  H     H_    0.379523 0.415233 0.771375 0.250783
O145  O     O_3   0.929958 0.035756 0.739430 -0.558765
C417  C     C_3   0.905440 0.047182 0.709044 0.176595
H345  H     H_    0.901835 0.024796 0.687173 0.122955
H346  H     H_    0.917446 0.072412 0.694871 0.122091
C418  C     C_3   0.865823 0.056568 0.725419 -0.819568
H347  H     H_    0.868417 0.079223 0.747027 0.252864
H348  H     H_    0.846332 0.065793 0.701792 0.195909
H349  H     H_    0.853104 0.031701 0.739514 0.260514
O146  O     O_3   0.929423 0.036403 0.258632 -0.554521
C419  C     C_3   0.910370 0.059277 0.285764 0.140360
H350  H     H_    0.928988 0.083188 0.294087 0.138477
H351  H     H_    0.902538 0.043132 0.312038 0.114423
C420  C     C_3   0.873409 0.074309 0.267801 -0.812970
H352  H     H_    0.854062 0.051000 0.259547 0.253446
H353  H     H_    0.858129 0.092328 0.288887 0.201844
H354  H     H_    0.880417 0.090898 0.241674 0.256756
O147  O     O_3   0.929719 0.965228 0.254545 -0.560844
C421  C     C_3   0.902713 0.953233 0.282487 0.179266
H355  H     H_    0.897483 0.975092 0.304614 0.127461
H356  H     H_    0.913320 0.927544 0.296874 0.122207
C422  C     C_3   0.864505 0.944615 0.262669 -0.825800
H357  H     H_    0.868700 0.922514 0.240694 0.250287
H358  H     H_    0.843078 0.934940 0.284348 0.197178
H359  H     H_    0.853163 0.969949 0.248312 0.262386
O148  O     O_3   0.930187 0.964539 0.739804 -0.555326
C423  C     C_3   0.911438 0.941528 0.712587 0.143201
H360  H     H_    0.929701 0.917030 0.705437 0.137088
H361  H     H_    0.904869 0.957229 0.685689 0.117057
C424  C     C_3   0.873549 0.927721 0.729671 -0.820539
H362  H     H_    0.854529 0.951628 0.736719 0.254836
H363  H     H_    0.858521 0.909565 0.708526 0.203215
H364  H     H_    0.879288 0.911585 0.756406 0.252586
O149  O     O_3   0.930364 0.537035 0.242002 -0.552767
C425  C     C_3   0.905186 0.548234 0.212078 0.174584
H365  H     H_    0.900154 0.525301 0.191113 0.120014
H366  H     H_    0.917458 0.572659 0.196658 0.123954
C426  C     C_3   0.866463 0.559272 0.229439 -0.824729
H367  H     H_    0.870499 0.582488 0.250165 0.251394
H368  H     H_    0.846460 0.568341 0.206177 0.197218
H369  H     H_    0.853482 0.535232 0.244793 0.259921
O150  O     O_3   0.929427 0.536406 0.758657 -0.554619
C427  C     C_3   0.910381 0.559274 0.785799 0.140468
H370  H     H_    0.929001 0.583186 0.794119 0.138503
H371  H     H_    0.902560 0.543125 0.812074 0.114486
C428  C     C_3   0.873413 0.574306 0.767851 -0.813384
H372  H     H_    0.854065 0.550997 0.759600 0.253409
H373  H     H_    0.858138 0.592320 0.788946 0.201935
H374  H     H_    0.880410 0.590899 0.741725 0.256632
O151  O     O_3   0.929721 0.465232 0.754557 -0.560946
C429  C     C_3   0.902720 0.453232 0.782501 0.179385
H375  H     H_    0.897493 0.475087 0.804632 0.127520
H376  H     H_    0.913330 0.427541 0.796883 0.122247
C430  C     C_3   0.864510 0.444615 0.762688 -0.826206
H377  H     H_    0.868702 0.422518 0.740709 0.250211
H378  H     H_    0.843086 0.434936 0.784369 0.197275
H379  H     H_    0.853164 0.469951 0.748337 0.262315
O152  O     O_3   0.929625 0.466184 0.247255 -0.554288
C431  C     C_3   0.907426 0.442773 0.223176 0.147665
H380  H     H_    0.924172 0.417561 0.215073 0.135826
H381  H     H_    0.898330 0.457724 0.196551 0.120224
C432  C     C_3   0.871299 0.430589 0.244797 -0.826469
H382  H     H_    0.853775 0.455228 0.252902 0.256047
H383  H     H_    0.853588 0.412140 0.226141 0.203575
H384  H     H_    0.879523 0.415226 0.271377 0.250790
O153  O     O_3   0.527600 0.037282 0.315452 -0.508332
C433  C     C_3   0.515267 0.044937 0.353610 0.149267
H385  H     H_    0.540652 0.041948 0.373021 0.173869
H386  H     H_    0.492936 0.025136 0.364352 0.088677
C434  C     C_3   0.500624 0.084761 0.356601 -0.886938
H387  H     H_    0.474372 0.088559 0.338551 0.246406
H388  H     H_    0.493240 0.091192 0.387090 0.217089
H389  H     H_    0.523368 0.104342 0.346661 0.278134
O154  O     O_3   0.513124 0.039625 0.675841 -0.628014
C435  C     C_3   0.553281 0.045314 0.679105 0.267300
H390  H     H_    0.568805 0.020389 0.689608 0.252386
H391  H     H_    0.558986 0.069656 0.697865 0.183675
C436  C     C_3   0.569402 0.054622 0.639397 -0.908850
H392  H     H_    0.555782 0.080424 0.628283 0.264954
H393  H     H_    0.601169 0.058891 0.641320 0.216186
H394  H     H_    0.563428 0.031616 0.618918 0.261497
O155  O     O_3   0.530950 0.965267 0.685721 -0.543802
C437  C     C_3   0.520558 0.953392 0.648268 0.119315
H395  H     H_    0.506755 0.976389 0.631796 0.159923
H396  H     H_    0.500437 0.929289 0.649795 0.129150
C438  C     C_3   0.556783 0.941072 0.626901 -0.804705
H397  H     H_    0.570429 0.917403 0.642299 0.264807
H398  H     H_    0.549112 0.932191 0.597153 0.197351
H399  H     H_    0.577831 0.964294 0.625249 0.251835
O156  O     O_3   0.532463 0.966249 0.313425 -0.495347
C439  C     C_3   0.522589 0.941593 0.343560 0.114916
H400  H     H_    0.506260 0.917262 0.332282 0.134530
H401  H     H_    0.504913 0.956086 0.365794 0.101661
C440  C     C_3   0.559443 0.927498 0.362501 -0.764735
H402  H     H_    0.576166 0.951148 0.374541 0.251314
H403  H     H_    0.552081 0.908038 0.386268 0.186945
H404  H     H_    0.577507 0.912708 0.340876 0.266425
O157  O     O_3   0.527558 0.537285 0.815470 -0.508352
C441  C     C_3   0.515201 0.544937 0.853621 0.149254
H405  H     H_    0.540575 0.541950 0.873047 0.173875
H406  H     H_    0.492866 0.525132 0.864349 0.088686
C442  C     C_3   0.500551 0.584759 0.856605 -0.886940
H407  H     H_    0.474310 0.588554 0.838540 0.246409
H408  H     H_    0.493147 0.591188 0.887090 0.217100
H409  H     H_    0.523298 0.604343 0.846681 0.278122
O158  O     O_3   0.513187 0.539627 0.175854 -0.627999
C443  C     C_3   0.553341 0.545324 0.179151 0.267255
H410  H     H_    0.568861 0.520400 0.189662 0.252368
H411  H     H_    0.559026 0.569664 0.197919 0.183666
C444  C     C_3   0.569491 0.554641 0.139457 -0.908857
H412  H     H_    0.555874 0.580442 0.128337 0.264977
H413  H     H_    0.601256 0.558916 0.141406 0.216161
H414  H     H_    0.563539 0.531636 0.118970 0.261498
O159  O     O_3   0.531023 0.465272 0.185758 -0.543812
C445  C     C_3   0.520674 0.453396 0.148294 0.119300
H415  H     H_    0.506881 0.476390 0.131808 0.159942
H416  H     H_    0.500558 0.429288 0.149798 0.129194
C446  C     C_3   0.556925 0.441087 0.126964 -0.804652
H417  H     H_    0.570563 0.417422 0.142375 0.264824
H418  H     H_    0.549288 0.432205 0.097208 0.197365
H419  H     H_    0.577967 0.464315 0.125335 0.251824
O160  O     O_3   0.532437 0.466253 0.813439 -0.495335
C447  C     C_3   0.522555 0.441595 0.843570 0.114926
H420  H     H_    0.506233 0.417263 0.832284 0.134523
H421  H     H_    0.504868 0.456085 0.865797 0.101669
C448  C     C_3   0.559403 0.427504 0.862523 -0.764695
H422  H     H_    0.576118 0.451156 0.874571 0.251321
H423  H     H_    0.552035 0.408042 0.886287 0.186947
H424  H     H_    0.577478 0.412718 0.840905 0.266425
O161  O     O_3   0.012678 0.041163 0.822817 -0.625075
C449  C     C_3   0.052169 0.033496 0.829484 0.276160
H425  H     H_    0.065812 0.014944 0.808252 0.258717
H426  H     H_    0.054813 0.019737 0.858051 0.136176
C450  C     C_3   0.074586 0.069832 0.831340 -0.820397
H427  H     H_    0.063815 0.087020 0.855704 0.245800
H428  H     H_    0.105823 0.064040 0.835820 0.202899
H429  H     H_    0.070960 0.085677 0.804090 0.289958
O162  O     O_3   0.013175 0.039627 0.175851 -0.627570
C451  C     C_3   0.053330 0.045320 0.179142 0.266771
H430  H     H_    0.068850 0.020396 0.189651 0.252312
H431  H     H_    0.059019 0.069661 0.197908 0.183650
C452  C     C_3   0.069475 0.054635 0.139445 -0.907390
H432  H     H_    0.055859 0.080436 0.128326 0.265269
H433  H     H_    0.101240 0.058907 0.141390 0.215808
H434  H     H_    0.063517 0.031630 0.118960 0.261762
O163  O     O_3   0.031006 0.965270 0.185749 -0.544005
C453  C     C_3   0.020646 0.953396 0.148286 0.119569
H435  H     H_    0.006853 0.976393 0.131805 0.160593
H436  H     H_    0.000528 0.929291 0.149795 0.129361
C454  C     C_3   0.056891 0.941084 0.126948 -0.804115
H437  H     H_    0.070529 0.917416 0.142354 0.264643
H438  H     H_    0.049245 0.932204 0.097193 0.197916
H439  H     H_    0.077936 0.964310 0.125315 0.251750
O164  O     O_3   0.024667 0.962854 0.817025 -0.569728
C455  C     C_3   0.009305 0.947137 0.851091 0.094082
H440  H     H_    0.989395 0.923789 0.844026 0.142668
H441  H     H_    0.993612 0.968538 0.868208 0.142641
C456  C     C_3   0.042241 0.931781 0.875435 -0.819362
H442  H     H_    0.062579 0.954379 0.883390 0.241478
H443  H     H_    0.030484 0.919163 0.902246 0.202247
H444  H     H_    0.058169 0.910204 0.858927 0.264961
O165  O     O_3   0.027584 0.537282 0.315458 -0.508333
C457  C     C_3   0.015241 0.544937 0.353613 0.149267
H445  H     H_    0.040622 0.541947 0.373031 0.173869
H446  H     H_    0.992908 0.525136 0.364350 0.088694
C458  C     C_3   0.000599 0.584762 0.356600 -0.886921
H447  H     H_    0.974352 0.588559 0.338545 0.246410
H448  H     H_    0.993207 0.591193 0.387088 0.217101
H449  H     H_    0.023345 0.604342 0.346666 0.278128
O166  O     O_3   0.013151 0.539628 0.675848 -0.627995
C459  C     C_3   0.053306 0.545328 0.679126 0.267268
H450  H     H_    0.068834 0.520405 0.689627 0.252359
H451  H     H_    0.058999 0.569667 0.697893 0.183667
C460  C     C_3   0.069436 0.554648 0.639424 -0.908907
H452  H     H_    0.055811 0.580448 0.628312 0.264982
H453  H     H_    0.101202 0.558926 0.641359 0.216153
H454  H     H_    0.063476 0.531644 0.618939 0.261497
O167  O     O_3   0.030999 0.465274 0.685748 -0.543812
C461  C     C_3   0.020636 0.453398 0.648287 0.119315
H455  H     H_    0.006835 0.476390 0.631807 0.159942
H456  H     H_    0.000524 0.429287 0.649799 0.129194
C462  C     C_3   0.056880 0.441093 0.626943 -0.804681
H457  H     H_    0.070527 0.417429 0.642348 0.264829
H458  H     H_    0.049232 0.432210 0.597189 0.197361
H459  H     H_    0.077919 0.464324 0.625305 0.251820
O168  O     O_3   0.032445 0.466248 0.313434 -0.495355
C463  C     C_3   0.022562 0.441592 0.343567 0.114920
H460  H     H_    0.006235 0.417262 0.332284 0.134534
H461  H     H_    0.004879 0.456086 0.365795 0.101676
C464  C     C_3   0.059410 0.427497 0.362518 -0.764737
H462  H     H_    0.076130 0.451147 0.374563 0.251313
H463  H     H_    0.052041 0.408037 0.386283 0.186950
H464  H     H_    0.077481 0.412707 0.340898 0.266422
H465  H     H_    0.468266 0.030487 0.303532 0.085329
H466  H     H_    0.464312 0.026037 0.700644 0.171197
H467  H     H_    0.470624 0.966594 0.694259 0.078777
H468  H     H_    0.471553 0.968661 0.306602 0.050592
H469  H     H_    0.468234 0.530483 0.803514 0.085353
H470  H     H_    0.464357 0.526033 0.200618 0.171235
H471  H     H_    0.470687 0.466591 0.194229 0.078814
H472  H     H_    0.471529 0.468658 0.806592 0.050588
H473  H     H_    0.963372 0.027370 0.798967 0.162263
H474  H     H_    0.964348 0.026034 0.200623 0.171447
H475  H     H_    0.970673 0.966593 0.194235 0.079079
H476  H     H_    0.965696 0.967868 0.802510 0.089323
H477  H     H_    0.968253 0.530488 0.303524 0.085339
H478  H     H_    0.964334 0.526031 0.700636 0.171243
H479  H     H_    0.970666 0.466590 0.694241 0.078814
H480  H     H_    0.971537 0.468661 0.306594 0.050611

loop_
_geom_bond_atom_site_label_1
_geom_bond_atom_site_label_2
_ccdc_geom_bond_type
C359  H201  S    
C75   C107  S    
C400  H302  S    
C273  O105  S    
C164  C198  S    
C379  C380  S    
C210  C226  A    
C391  H281  S    
C405  H315  S    
C49   H128  S    
O74   Zn2   S    
C262  O56   A    
C74   H138  S    
O136  C399  S    
C63   H114  S    
C173  O85   A    
C358  H197  S    
C45   C335  A    
C70   O142  S    
C179  C195  A    
C364  H212  S    
C304  C310  A    
C12   O100  A    
C32   H112  S    
C381  H255  S    
C350  H177  S    
O89   Zn17  S    
C60   H117  S    
C238  C254  A    
C284  O116  S    
C266  C306  S    
O3    Zn19  S    
O106  C339  S    
C57   O129  S    
O2    Zn18  S    
C449  H425  S    
C191  H31   S    
C438  H397  S    
C293  C307  A    
C119  H474  S    
O93   Zn21  S    
C394  H289  S    
C359  C360  S    
C294  C308  A    
C337  H145  S    
C28   C40   A    
C453  H436  S    
C28   C332  A    
C184  H24   S    
C162  C200  S    
C99   C142  S    
C186  C202  A    
O22   Zn12  S    
C447  H420  S    
O165  C457  S    
C387  H271  S    
C454  H438  S    
C438  H398  S    
C410  H328  S    
C49   O121  S    
C50   C51   S    
C26   C330  A    
C190  C206  A    
C361  C362  S    
C73   O145  S    
C435  H391  S    
C10   O18   A    
C79   H143  S    
C274  C314  A    
C75   H139  S    
C112  C129  S    
C267  O61   A    
C349  H176  S    
C180  C196  A    
C150  H6    S    
O42   Zn18  S    
C455  H441  S    
C373  C374  S    
C163  O27   A    
C47   C331  A    
C414  H338  S    
C370  H227  S    
C434  H387  S    
C272  O68   A    
C46   C336  A    
C234  C250  A    
C369  H226  S    
C283  O115  S    
C76   H140  S    
C168  O32   A    
C71   H135  S    
C165  C195  S    
C45   C317  S    
O143  C413  S    
C190  H30   S    
C54   C102  S    
O9    Zn7   S    
C351  H181  S    
C458  H448  S    
C68   O140  S    
C9    O97   A    
C122  O159  S    
O11   Zn5   S    
C435  C436  S    
C50   C98   S    
C347  C348  S    
C270  O72   A    
C387  H270  S    
C396  H292  S    
C266  O64   A    
O13   Zn3   S    
C29   C333  A    
C288  O120  S    
C336  H96   S    
C349  C350  S    
C175  O87   A    
C14   O102  A    
C404  H314  S    
C217  C233  A    
O78   Zn6   S    
O51   Zn27  S    
C26   C38   A    
C399  C400  S    
C303  H79   S    
O5    Zn9   S    
C451  C452  S    
C420  H352  S    
C456  H443  S    
C33   C262  S    
C22   C326  A    
C24   C34   A    
C31   C37   A    
C221  C237  A    
C3    C92   S    
C449  C450  S    
C94   C142  T    
C35   C264  S    
C26   H106  S    
C360  H204  S    
C13   O21   A    
C419  H350  S    
C448  H422  S    
O18   Zn16  S    
C361  H205  S    
C96   C144  T    
C351  C352  S    
C304  H80   S    
C18   C322  A    
C300  C312  A    
C111  C130  S    
C355  H191  S    
C107  C134  S    
C228  C244  A    
C147  C243  A    
C276  O108  S    
C65   C68   S    
C240  H64   S    
C109  C132  S    
O30   Zn22  S    
C371  H230  S    
C389  H276  S    
C265  O57   A    
C110  C131  S    
O66   Zn16  S    
C346  H167  S    
C426  H369  S    
O40   Zn32  S    
C175  C201  S    
O107  C341  S    
C177  C193  A    
C147  H3    S    
C284  C320  A    
C43   C323  A    
C98   C127  S    
C270  C310  S    
C268  O60   A    
C204  C220  A    
C75   O147  S    
C400  H304  S    
C459  H451  S    
C372  H233  S    
C235  H59   S    
C342  H157  S    
C120  H473  S    
C166  O78   A    
C407  C408  S    
C433  H385  S    
O8    Zn12  S    
C357  H196  S    
C102  C123  S    
C198  C214  A    
O83   Zn11  S    
C69   C72   S    
C213  C229  A    
O82   Zn10  S    
C461  C462  S    
C45   C329  A    
C347  H170  S    
C356  H194  S    
O146  C419  S    
C77   C109  S    
C333  H93   S    
C420  H354  S    
C326  H86   S    
C78   C79   S    
C351  H180  S    
C68   C100  S    
C180  H20   S    
C231  C247  A    
C18   H98   S    
O1    Zn1   S    
C264  O54   A    
C409  C410  S    
O2    Zn24  S    
C169  C207  S    
C440  H404  S    
O102  Zn30  S    
C463  H460  S    
C215  H39   S    
C257  O47   A    
C405  H316  S    
O101  Zn29  S    
C11   C84   S    
C172  O36   A    
C427  C428  S    
C22   C36   A    
O105  C337  S    
C52   C100  S    
C259  O45   A    
O113  C353  S    
O31   Zn23  S    
C173  C203  S    
C50   H127  S    
C357  C358  S    
C340  H153  S    
C343  H160  S    
O127  C381  S    
C428  H373  S    
C108  C133  S    
C368  H223  S    
C223  C239  A    
C338  H147  S    
C298  C310  A    
C151  C247  A    
O25   Zn17  S    
C429  H375  S    
C440  H402  S    
C353  H186  S    
C62   H115  S    
C405  C406  S    
C54   O126  S    
C279  C295  A    
C393  H286  S    
C65   O137  S    
C396  H294  S    
C346  H168  S    
C188  C204  A    
C18   C34   A    
C102  C139  S    
O38   Zn30  S    
C63   C111  S    
C422  H357  S    
C51   O123  S    
O64   Zn2   S    
C58   C59   S    
C330  H90   S    
C53   H124  S    
C285  O117  S    
C39   C260  S    
C49   C97   S    
O100  Zn28  S    
C391  C392  S    
C23   C327  A    
C461  H455  S    
C156  H12   S    
O114  C355  S    
C444  H414  S    
O7    Zn11  S    
C384  H264  S    
C238  H62   S    
C231  H55   S    
O6    Zn10  S    
C127  H466  S    
C155  C187  A    
C287  O119  S    
C348  H172  S    
C373  H236  S    
C294  H70   S    
C436  H393  S    
C273  C313  A    
C353  C354  S    
C302  H78   S    
C48   C332  A    
O53   Zn29  S    
C207  C223  A    
C352  H182  S    
C196  C212  A    
C19   H99   S    
C154  H10   S    
C290  H66   S    
C375  H241  S    
C454  H437  S    
C16   O104  A    
O16   Zn2   S    
C50   O122  S    
C181  C197  A    
C63   O135  S    
O28   Zn20  S    
C403  H310  S    
C22   H102  S    
C412  H332  S    
C170  O34   A    
C426  H367  S    
C124  H469  S    
C154  C186  A    
C153  C185  A    
O155  C437  S    
C31   H111  S    
C457  H446  S    
C199  C215  A    
C368  H222  S    
C6    C93   S    
C77   H141  S    
C146  H2    S    
C118  O163  S    
C166  C196  S    
C277  C315  A    
C382  H259  S    
C263  O51   A    
C287  C303  A    
C279  O111  S    
C278  C316  A    
C376  H242  S    
C383  H260  S    
C431  H381  S    
O88   Zn16  S    
C24   H104  S    
C426  H368  S    
C185  C201  A    
C272  C312  S    
C278  C294  A    
O112  C351  S    
C128  O153  S    
O135  C397  S    
C116  H477  S    
C146  C178  A    
C360  H203  S    
O124  C375  S    
C446  H419  S    
C392  H283  S    
O27   Zn19  S    
C216  H40   S    
C73   C105  S    
C56   O128  S    
C275  O107  S    
C184  C200  A    
C457  C458  S    
C361  H206  S    
C342  H159  S    
C230  H54   S    
C105  C120  S    
C289  C305  A    
C364  H214  S    
C441  H406  S    
O157  C441  S    
C107  C118  S    
C17   C321  A    
C303  C309  A    
C4    C91   S    
C229  C245  A    
C226  H50   S    
C148  H4    S    
C423  H360  S    
C81   C129  T    
C41   C313  S    
O14   Zn4   S    
C416  H343  S    
C67   H131  S    
C442  H407  S    
C167  C193  S    
C146  C242  A    
C456  H442  S    
C8    C95   S    
C236  C252  A    
C97   C128  S    
C249  C250  S    
C193  C209  A    
C430  H377  S    
C166  O30   A    
C408  H322  S    
C86   C134  T    
O126  C379  S    
C99   C126  S    
C411  H331  S    
C354  H188  S    
O55   Zn31  S    
C290  C306  A    
C101  C124  S    
C259  O43   A    
C425  H365  S    
C452  H433  S    
C165  O77   A    
O167  C461  S    
C36   C263  S    
O72   Zn10  S    
O21   Zn11  S    
C422  H359  S    
C66   C67   S    
C346  H169  S    
O71   Zn9   S    
C20   H100  S    
C464  H463  S    
C420  H353  S    
C53   C101  S    
O86   Zn14  S    
C245  C246  S    
O70   Zn12  S    
C191  C207  A    
C154  C250  A    
O144  C415  S    
O159  C445  S    
C80   C112  S    
C393  C394  S    
C59   C107  S    
C123  O158  S    
C181  H21   S    
C232  C248  A    
C20   C36   A    
O7    Zn29  S    
C456  H444  S    
C439  H401  S    
C158  C254  A    
C97   C144  S    
C170  C208  S    
C432  H382  S    
C386  H268  S    
C209  C225  A    
C283  C299  A    
C194  C210  A    
C411  C412  S    
C274  C290  A    
C371  C372  S    
C453  H435  S    
O8    Zn30  S    
C188  H28   S    
C370  H228  S    
C428  H372  S    
C123  H470  S    
C42   C314  S    
C62   C63   S    
C174  C204  S    
O118  C363  S    
C394  H288  S    
C451  H431  S    
C212  H36   S    
C125  H468  S    
C291  H67   S    
C339  C340  S    
C21   H101  S    
C224  C240  A    
C171  O83   A    
C413  H335  S    
C396  H293  S    
C289  H65   S    
C176  O40   A    
C421  H356  S    
C280  C314  A    
C416  H344  S    
O160  C447  S    
C19   C35   A    
O132  C391  S    
C352  H184  S    
C395  H291  S    
C126  O155  S    
C331  H91   S    
C382  H258  S    
O1    Zn17  S    
C178  H18   S    
C439  C440  S    
C341  H156  S    
C117  H476  S    
C211  H35   S    
C124  O157  S    
C419  C420  S    
C51   H126  S    
C408  H323  S    
O138  C403  S    
C344  H164  S    
C53   C56   S    
C48   C334  A    
C150  C246  A    
O94   Zn22  S    
C71   C103  S    
C54   C55   S    
C149  H5    S    
C384  H263  S    
C34   C261  S    
C175  O39   A    
C452  H434  S    
O57   Zn7   S    
C108  C117  S    
C187  H27   S    
C444  H412  S    
C1    O9    A    
C423  C424  S    
O59   Zn5   S    
C377  C378  S    
C230  C246  A    
C376  H244  S    
O85   Zn13  S    
C2    O90   A    
C113  C116  S    
C151  C183  A    
C461  H456  S    
C145  C177  A    
C67   C99   S    
C80   O152  S    
C208  C224  A    
C395  C396  S    
C5    C94   S    
C418  H348  S    
C65   H129  S    
C100  C125  S    
C158  H14   S    
O80   Zn8   S    
C341  C342  S    
C424  H363  S    
C21   C35   A    
O65   Zn15  S    
C437  H396  S    
C288  C318  A    
C214  H38   S    
C263  O53   A    
C410  H327  S    
C390  H279  S    
O6    Zn32  S    
C77   C80   S    
C298  H74   S    
C365  H215  S    
C398  H298  S    
C337  H146  S    
C206  C222  A    
C27   C331  A    
C52   O124  S    
C171  O35   A    
C200  C216  A    
O46   Zn22  S    
O148  C423  S    
C391  H280  S    
C164  O76   A    
C383  H261  S    
C16   O24   A    
C363  C364  S    
C285  C301  A    
C424  H362  S    
C262  O50   A    
O23   Zn9   S    
C366  H217  S    
C267  C307  S    
C441  H405  S    
C378  H249  S    
C323  H83   S    
C374  H238  S    
C70   H134  S    
O35   Zn27  S    
C446  H418  S    
C16   C87   S    
C239  H63   S    
C163  C197  S    
C381  C382  S    
O12   Zn6   S    
O162  C451  S    
C217  H41   S    
C370  H229  S    
C321  H81   S    
C367  H220  S    
C339  H150  S    
C368  H224  S    
C410  H329  S    
C41   C321  A    
C414  H339  S    
O50   Zn26  S    
C421  H355  S    
C378  H247  S    
C55   H122  S    
O7    Zn27  S    
C182  H22   S    
C255  C256  S    
C25   C37   A    
C15   C88   S    
C337  C338  S    
O84   Zn12  S    
C82   C130  T    
C364  H213  S    
C161  O25   A    
C38   C257  S    
C95   C143  T    
C414  H337  S    
C125  O156  S    
C106  C119  S    
C174  O38   A    
C383  C384  S    
C163  O75   A    
O161  C449  S    
C114  C115  S    
C423  H361  S    
C261  O55   A    
C278  O110  S    
C159  C255  A    
C64   H113  S    
C172  O84   A    
O128  C383  S    
O110  C347  S    
C72   C104  S    
O96   Zn24  S    
C73   H137  S    
C251  C252  S    
C150  C182  A    
C265  C305  S    
C27   H107  S    
C450  H427  S    
C225  H49   S    
C436  H394  S    
C157  H13   S    
C7    C96   S    
C178  C194  A    
C78   O150  S    
C210  H34   S    
C445  H415  S    
C416  H342  S    
C25   H105  S    
C365  C366  S    
C237  C253  A    
C64   O136  S    
C62   O134  S    
C44   C316  S    
C415  H340  S    
C366  H219  S    
O163  C453  S    
C100  C141  S    
C404  H313  S    
C57   H120  S    
O47   Zn23  S    
C299  H75   S    
C362  H209  S    
C80   H144  S    
C417  H345  S    
C47   C333  A    
C225  C241  A    
C243  C244  S    
C258  O42   A    
C464  H462  S    
C295  H71   S    
C46   C330  A    
O5    Zn25  S    
C104  C137  S    
C296  H72   S    
C379  H251  S    
C379  H250  S    
O133  C393  S    
C282  O114  S    
C209  H33   S    
C432  H384  S    
C236  H60   S    
C430  H379  S    
C2    C89   S    
C119  O162  S    
C109  C116  S    
C402  H309  S    
C388  H273  S    
C292  H68   S    
C418  H349  S    
O92   Zn20  S    
C41   C327  A    
C189  C205  A    
C354  H189  S    
C77   O149  S    
C270  O66   A    
C371  H231  S    
C363  H210  S    
C147  C179  A    
C31   C335  A    
C70   C71   S    
O3    Zn3   S    
O79   Zn7   S    
C152  C184  A    
C171  C205  S    
O15   Zn1   S    
C347  H171  S    
C122  H471  S    
C60   C108  S    
O77   Zn5   S    
O99   Zn27  S    
C9    C82   S    
C223  H47   S    
C3    O11   A    
C84   C132  T    
C437  C438  S    
C324  H84   S    
C359  H200  S    
C30   H110  S    
C400  H303  S    
C327  H87   S    
C372  H232  S    
C149  C181  A    
C126  H467  S    
C328  H88   S    
C69   H133  S    
C158  C190  A    
C362  H208  S    
C385  H266  S    
C428  H374  S    
C406  H318  S    
C11   O99   A    
O142  C411  S    
C297  H73   S    
C156  C188  A    
O75   Zn3   S    
O37   Zn29  S    
C120  O161  S    
C269  O71   A    
C384  H262  S    
C192  H32   S    
C393  H285  S    
C265  O63   A    
C114  O167  S    
C387  C388  S    
C269  C309  S    
C183  H23   S    
C355  C356  S    
C69   O141  S    
C37   C258  S    
C56   C104  S    
C76   O148  S    
C117  C120  S    
C281  C297  A    
C440  H403  S    
C235  C251  A    
C443  C444  S    
C293  H69   S    
C203  C219  A    
C232  H56   S    
O68   Zn14  S    
C373  H235  S    
C452  H432  S    
C284  C300  A    
C459  C460  S    
C12   C83   S    
O45   Zn21  S    
C14   O22   A    
C433  C434  S    
C271  C311  S    
C424  H364  S    
C17   H97   S    
C228  H52   S    
O145  C417  S    
C418  H347  S    
C42   C328  A    
C43   C325  A    
C447  C448  S    
C159  C191  A    
C374  H239  S    
C113  H480  S    
O62   Zn4   S    
C434  H389  S    
C419  H351  S    
C280  O112  S    
O52   Zn28  S    
C165  O29   A    
C227  H51   S    
C72   O144  S    
C115  H478  S    
C9    O17   A    
C381  H256  S    
C4    O92   A    
C286  O118  S    
C390  H278  S    
C435  H390  S    
C442  H409  S    
C30   C334  A    
C30   C40   A    
C335  H95   S    
O5    Zn31  S    
C398  H297  S    
O91   Zn19  S    
C433  H386  S    
C44   C326  A    
C6    O14   A    
C297  C309  A    
C349  H175  S    
C186  H26   S    
C219  C235  A    
C66   C98   S    
O3    Zn5   S    
C91   C139  T    
C273  C289  A    
C358  H199  S    
C460  H454  S    
C295  C305  A    
C101  C140  S    
C464  H464  S    
C89   C137  T    
C378  H248  S    
C325  H85   S    
C291  C307  A    
C406  H317  S    
C73   C76   S    
C159  H15   S    
C103  C138  S    
C453  C454  S    
C261  O49   A    
C369  H225  S    
O17   Zn15  S    
O41   Zn17  S    
C399  H300  S    
C92   C140  T    
C338  H149  S    
C367  H221  S    
C93   C141  T    
C189  H29   S    
O19   Zn13  S    
C429  C430  S    
C176  O88   A    
O140  C407  S    
O109  C345  S    
C450  H429  S    
C169  O81   A    
C29   C39   A    
C279  C313  A    
C83   C131  T    
C332  H92   S    
C6    O94   A    
C340  H154  S    
C149  C245  A    
O26   Zn18  S    
C72   H136  S    
C2    O10   A    
C445  H416  S    
C286  C302  A    
O4    Zn4   S    
O81   Zn9   S    
C15   O23   A    
C57   C60   S    
C345  C346  S    
C343  H161  S    
C288  C304  A    
C403  H311  S    
C375  C376  S    
C70   C102  S    
C59   O131  S    
C409  H326  S    
O29   Zn21  S    
C260  O44   A    
C463  C464  S    
C258  O48   A    
O141  C409  S    
O7    Zn13  S    
C10   C81   S    
C173  O37   A    
C162  O74   A    
C355  H190  S    
O95   Zn23  S    
C160  C256  A    
C162  O26   A    
C402  H308  S    
C407  H320  S    
C389  H275  S    
O8    Zn14  S    
C448  H423  S    
C275  C291  A    
C402  H307  S    
C443  H410  S    
C61   C64   S    
C227  C243  A    
C152  H8    S    
C266  O58   A    
O115  C357  S    
C253  C254  S    
C13   O101  A    
C459  H450  S    
C126  C127  S    
C281  O113  S    
C17   C33   A    
C462  H459  S    
C439  H400  S    
C111  C114  S    
C29   H109  S    
C454  H439  S    
C8    O16   A    
C282  C318  A    
C392  H282  S    
C430  H378  S    
O58   Zn8   S    
C58   H119  S    
C152  C248  A    
C438  H399  S    
C167  O31   A    
C409  H325  S    
C201  C217  A    
C52   H125  S    
C212  C228  A    
C415  H341  S    
C386  H267  S    
C432  H383  S    
C257  O41   A    
O4    Zn20  S    
O20   Zn14  S    
O116  C359  S    
C353  H185  S    
C372  H234  S    
C272  O70   A    
C128  H465  S    
C344  H163  S    
C388  H272  S    
O69   Zn11  S    
O1    Zn23  S    
C239  C255  A    
C61   O133  S    
C357  H195  S    
C340  H152  S    
C103  C122  S    
C168  O80   A    
C110  C115  S    
C385  C386  S    
C365  H216  S    
C363  H211  S    
C85   C133  T    
C121  H472  S    
C69   C101  S    
C369  C370  S    
O108  C343  S    
C10   O98   A    
C57   C105  S    
C285  C319  A    
C221  H45   S    
C269  O65   A    
C462  H457  S    
C286  C320  A    
C98   C143  S    
C32   C336  A    
C169  O33   A    
O67   Zn13  S    
O117  C361  S    
C287  C317  A    
C177  H17   S    
C153  H9    S    
C182  C198  A    
C79   O151  S    
C267  O59   A    
C23   H103  S    
C61   C109  S    
O166  C459  S    
C397  H295  S    
C8    O96   A    
C362  H207  S    
C354  H187  S    
C302  C312  A    
C219  H43   S    
O149  C425  S    
C24   C328  A    
O123  C373  S    
C382  H257  S    
C425  H366  S    
O129  C385  S    
C78   H142  S    
C215  C231  A    
C44   C324  A    
O6    Zn16  S    
C66   O138  S    
C60   O132  S    
O122  C371  S    
C58   O130  S    
C229  H53   S    
C348  H173  S    
O10   Zn8   S    
C5    O13   A    
C53   O125  S    
C350  H179  S    
O63   Zn1   S    
C455  C456  S    
C155  H11   S    
C401  H305  S    
C68   H132  S    
O36   Zn28  S    
C55   C103  S    
C241  C242  S    
C11   O19   A    
C59   H118  S    
C322  H82   S    
C226  C242  A    
O76   Zn4   S    
O154  C435  S    
C240  C256  A    
C271  O67   A    
O168  C463  S    
C422  H358  S    
O43   Zn19  S    
C118  C119  S    
C170  O82   A    
C121  C124  S    
C280  C296  A    
C429  H376  S    
C345  H165  S    
C20   C324  A    
C460  H452  S    
C220  C236  A    
C27   C39   A    
C356  H193  S    
C23   C33   A    
C425  C426  S    
C127  O154  S    
C13   C86   S    
C76   C108  S    
C406  H319  S    
C185  H25   S    
O8    Zn28  S    
C157  C253  A    
C434  H388  S    
C202  C218  A    
C334  H94   S    
C277  O109  S    
C276  C316  A    
C260  O46   A    
O134  C395  S    
O121  C369  S    
O152  C431  S    
C161  O73   A    
C113  O168  S    
C114  H479  S    
O130  C387  S    
C431  C432  S    
C87   C135  T    
C401  C402  S    
C187  C203  A    
C121  O160  S    
C174  O86   A    
O4    Zn6   S    
C116  O165  S    
C352  H183  S    
O39   Zn31  S    
C7    O15   A    
O150  C427  S    
O24   Zn10  S    
C192  C208  A    
C412  H333  S    
C358  H198  S    
C390  H277  S    
C377  H246  S    
C356  H192  S    
O125  C377  S    
C233  C249  A    
C112  C113  S    
C268  C308  S    
C40   C259  S    
O2    Zn2   S    
C451  H430  S    
C25   C329  A    
C460  H453  S    
C222  H46   S    
C51   C99   S    
O147  C421  S    
C380  H252  S    
O48   Zn24  S    
C338  H148  S    
C234  H58   S    
C74   C75   S    
C161  C199  S    
C88   C136  T    
C5    O93   A    
C448  H424  S    
C300  H76   S    
C28   H108  S    
C301  H77   S    
C218  C234  A    
C413  C414  S    
C167  O79   A    
C155  C251  A    
C183  C199  A    
C412  H334  S    
O33   Zn25  S    
C376  H243  S    
C74   O146  S    
C407  H321  S    
C281  C317  A    
C104  C121  S    
C389  C390  S    
C275  C315  A    
O119  C365  S    
C153  C249  A    
C222  C238  A    
C49   C52   S    
O1    Zn7   S    
C458  H449  S    
O56   Zn32  S    
C90   C138  T    
C392  H284  S    
O3    Zn21  S    
C71   O143  S    
C195  C211  A    
C4    O12   A    
C61   H116  S    
C74   C106  S    
C415  C416  S    
O90   Zn18  S    
C58   C106  S    
C442  H408  S    
C397  H296  S    
C343  C344  S    
C62   C110  S    
O4    Zn22  S    
C446  H417  S    
C7    O95   A    
O32   Zn24  S    
O120  C367  S    
C450  H428  S    
C145  C241  A    
C43   C315  S    
C78   C110  S    
C151  H7    S    
C233  H57   S    
C218  H42   S    
O34   Zn26  S    
O139  C405  S    
C264  O52   A    
C283  C319  A    
C118  H475  S    
C105  C136  S    
C3    O91   A    
O104  Zn32  S    
O156  C439  S    
C299  C311  A    
C106  C135  S    
O151  C429  S    
C447  H421  S    
C46   C318  S    
C374  H237  S    
O164  C455  S    
C398  H299  S    
C399  H301  S    
C380  H253  S    
C179  H19   S    
C156  C252  A    
C463  H461  S    
C380  H254  S    
C117  O164  S    
C115  O166  S    
C437  H395  S    
C329  H89   S    
C54   H123  S    
C431  H380  S    
C1    C90   S    
C458  H447  S    
C403  C404  S    
O6    Zn26  S    
O60   Zn6   S    
C457  H445  S    
C282  C298  A    
C397  C398  S    
C148  C244  A    
C411  H330  S    
O153  C433  S    
C388  H274  S    
C125  C128  S    
O103  Zn31  S    
C271  O69   A    
C237  H61   S    
C164  O28   A    
O131  C389  S    
C413  H336  S    
O44   Zn20  S    
C14   C85   S    
C268  O62   A    
C408  H324  S    
C12   O20   A    
C441  C442  S    
C292  C308  A    
C148  C180  A    
C224  H48   S    
C339  H151  S    
C247  C248  S    
C449  H426  S    
C19   C323  A    
C66   H130  S    
O61   Zn3   S    
C342  H158  S    
C213  H37   S    
C367  C368  S    
C15   O103  A    
O137  C401  S    
C427  H371  S    
C32   C38   A    
O54   Zn30  S    
C79   C111  S    
C348  H174  S    
O98   Zn26  S    
C421  C422  S    
C444  H413  S    
C375  H240  S    
C341  H155  S    
O97   Zn25  S    
C366  H218  S    
C404  H312  S    
C47   C319  S    
C64   C112  S    
C394  H287  S    
O2    Zn8   S    
C401  H306  S    
C344  H162  S    
C386  H269  S    
C417  H346  S    
O5    Zn15  S    
C296  C306  A    
C67   O139  S    
C274  O106  S    
C205  C221  A    
C160  H16   S    
C455  H440  S    
C443  H411  S    
O158  C443  S    
O87   Zn15  S    
C360  H202  S    
C157  C189  A    
C211  C227  A    
C220  H44   S    
C48   C320  S    
C377  H245  S    
C160  C192  A    
O73   Zn1   S    
C172  C206  S    
C276  C292  A    
C65   C97   S    
C197  C213  A    
C277  C293  A    
C301  C311  A    
C445  C446  S    
C462  H458  S    
C395  H290  S    
C385  H265  S    
O111  C349  S    
C55   O127  S    
C350  H178  S    
C216  C232  A    
C168  C194  S    
C56   H121  S    
C345  H166  S    
C122  C123  S    
C436  H392  S    
C145  H1    S    
C42   C322  A    
C427  H370  S    
C1    O89   A    
C176  C202  S    
C21   C325  A    
O49   Zn25  S    
C417  C418  S    
C214  C230  A    
