data_mof_unit_55846.cif
_audit_creation_date              2012-12-11T15:32:42-0500
_audit_creation_method            fapswitch 2.2
_symmetry_space_group_name_H-M    P1
_symmetry_Int_Tables_number       1
_space_group_crystal_system       triclinic
_cell_length_a                    6.949171
_cell_length_b                    20.452166
_cell_length_c                    24.437556
_cell_angle_alpha                 89.515427
_cell_angle_beta                  90.321765
_cell_angle_gamma                 89.239487
_cell_volume                      3472.71513297

loop_
_atom_site_label
_atom_site_type_symbol
_atom_type_description
_atom_site_fract_x
_atom_site_fract_y
_atom_site_fract_z
_atom_type_partial_charge
O1    O     O_R   0.507320 0.423560 0.460500 -0.530415
O2    O     O_R   0.170760 0.556250 0.437010 -0.543749
O3    O     O_R   0.004030 0.576440 0.539500 -0.534127
C1    C     C_R   0.338747 0.576381 0.421059 0.695398
O4    O     O_R   0.177370 0.422820 0.454110 -0.537437
O5    O     O_R   0.010680 0.442050 0.556720 -0.519760
C2    C     C_R   0.347255 0.398981 0.443364 0.775251
O6    O     O_R   0.500680 0.557950 0.443280 -0.544088
O7    O     O_3   0.340380 0.506470 0.533650 -0.361375
V1    V     V_3+5 0.064130 0.498800 0.493760 1.508650
O8    O     O_R   0.681160 0.443750 0.562990 -0.530029
C3    C     C_R   0.850909 0.423486 0.578748 0.808952
O9    O     O_R   0.674560 0.577180 0.545890 -0.546739
C4    C     C_R   0.842551 0.600726 0.556926 0.758803
V2    V     V_3+5 0.564560 0.501200 0.506240 1.508816
O10   O     O_3   0.838180 0.493530 0.466350 -0.380616
C5    C     C_R   0.976506 0.838033 0.912054 -0.076919
C6    C     C_R   0.848527 0.659572 0.591532 -0.066660
C7    C     C_R   0.995846 0.720267 0.909942 -0.134918
C8    C     C_R   0.004431 0.778298 0.939041 -0.149808
C9    C     C_R   0.948895 0.839557 0.855059 -0.146749
C10   C     C_R   0.960331 0.781546 0.823542 0.106655
C11   C     C_R   0.969552 0.721354 0.852938 0.120919
C12   C     C_R   0.949414 0.780416 0.764617 -0.015213
C13   C     C_R   0.923567 0.718878 0.737532 0.002695
C14   C     C_R   0.905671 0.662062 0.770074 -0.177954
C15   C     C_R   0.940155 0.662707 0.825929 -0.175211
C16   C     C_R   0.962864 0.837414 0.731108 0.363500
C17   C     C_R   0.904817 0.835596 0.676546 -0.181675
C18   C     C_R   0.868542 0.776449 0.650785 0.063048
C19   C     C_R   0.903080 0.716617 0.678918 0.004716
C20   C     C_R   0.808725 0.776975 0.595989 -0.115690
C21   C     C_R   0.789777 0.718848 0.567639 -0.209217
C22   C     C_R   0.915556 0.658115 0.646741 -0.046634
H1    H     H_    0.933410 0.617063 0.848693 0.142468
H2    H     H_    0.740219 0.720563 0.525511 0.111053
H3    H     H_    0.901214 0.880680 0.652839 0.174553
H4    H     H_    0.007257 0.674281 0.932177 0.145467
H5    H     H_    0.026334 0.776548 0.982969 0.136908
H6    H     H_    0.909608 0.886031 0.837073 0.172302
H7    H     H_    0.858915 0.616274 0.753402 0.148397
H8    H     H_    0.776349 0.822692 0.574920 0.129418
C23   C     C_3   0.851244 0.308030 0.769137 -0.176314
C24   C     C_3   0.040004 0.271934 0.786625 -0.121981
H9    H     H_    0.145997 0.289808 0.816991 0.153876
H10   H     H_    0.801525 0.356144 0.784756 0.156062
H11   H     H_    0.225258 0.262987 0.705738 0.194851
C25   C     C_1   0.960465 0.121798 0.875311 -0.147263
C26   C     C_1   0.863703 0.378068 0.624587 -0.088483
C27   C     C_3   0.739852 0.242936 0.774335 -0.175785
C28   C     C_3   0.928614 0.207465 0.791113 0.079789
C29   C     C_3   0.785495 0.228155 0.713906 0.428019
C30   C     C_3   0.895180 0.292449 0.708838 0.057966
C31   C     C_3   0.972692 0.191657 0.730863 -0.123159
C32   C     C_3   0.083585 0.256858 0.725760 -0.165704
C33   C     C_1   0.947030 0.160255 0.837273 0.027173
C34   C     C_1   0.877001 0.339663 0.662658 0.062289
H12   H     H_    0.021669 0.143532 0.715082 0.182405
H13   H     H_    0.597675 0.236819 0.794111 0.149547
C35   C     C_3   0.551208 0.727423 0.216953 -0.048373
C36   C     C_3   0.363192 0.691773 0.230040 0.387333
H14   H     H_    0.111223 0.761597 0.197802 0.165741
C37   C     C_1   0.348612 0.621926 0.375094 -0.169695
C38   C     C_1   0.475744 0.878066 0.124882 -0.157498
C39   C     C_3   0.579063 0.742829 0.278326 -0.257594
C40   C     C_3   0.389043 0.707401 0.290984 0.090613
C41   C     C_3   0.464044 0.807962 0.269793 -0.127132
C42   C     C_3   0.437646 0.791837 0.208581 0.102225
C43   C     C_3   0.274064 0.771939 0.283026 -0.187953
C44   C     C_3   0.247723 0.756297 0.221306 -0.182959
C45   C     C_1   0.364175 0.660335 0.337077 0.017259
C46   C     C_1   0.460862 0.839436 0.162763 0.046027
H15   H     H_    0.159017 0.790332 0.310455 0.131232
H16   H     H_    0.505818 0.856178 0.286284 0.130341
H17   H     H_    0.716031 0.737267 0.301629 0.134160
C47   C     C_R   0.468156 0.162696 0.088635 -0.237118
C48   C     C_R   0.361250 0.337749 0.411875 -0.139118
C49   C     C_R   0.483702 0.281851 0.091351 0.407002
C50   C     C_R   0.503729 0.222902 0.062022 -0.111731
C51   C     C_R   0.414998 0.161578 0.144661 -0.067943
C52   C     C_R   0.426157 0.220071 0.176494 0.031180
C53   C     C_R   0.441496 0.280517 0.147980 -0.013093
C54   C     C_R   0.425565 0.221156 0.235540 0.101161
C55   C     C_R   0.396405 0.281473 0.264042 0.058832
C56   C     C_R   0.385112 0.339464 0.232818 -0.183827
C57   C     C_R   0.414610 0.339115 0.176703 -0.088512
C58   C     C_R   0.472823 0.164965 0.266868 -0.095530
C59   C     C_R   0.467939 0.165382 0.323638 -0.165178
C60   C     C_R   0.424695 0.222633 0.351902 0.055923
C61   C     C_R   0.389980 0.282011 0.322882 0.097384
C62   C     C_R   0.424336 0.221123 0.409322 -0.168605
C63   C     C_R   0.394502 0.278069 0.439207 0.376185
C64   C     C_R   0.356302 0.339485 0.354248 -0.269060
H18   H     H_    0.414278 0.386088 0.156066 0.206353
H19   H     H_    0.328913 0.386513 0.335367 0.121995
H20   H     H_    0.503118 0.120561 0.345723 0.133527
H21   H     H_    0.364716 0.386860 0.250899 0.145954
H22   H     H_    0.523334 0.120381 0.248146 0.125380
H23   H     H_    0.451549 0.175557 0.431191 0.165585
O11   O     O_R   0.323550 0.942140 0.056770 -0.538327
O12   O     O_R   0.647080 0.077200 0.045890 -0.542701
O13   O     O_R   0.813610 0.057920 0.943260 -0.540425
C65   C     C_R   0.477548 0.101224 0.056531 0.672406
O14   O     O_R   0.653470 0.943760 0.063000 -0.533813
O15   O     O_R   0.820050 0.923540 0.960490 -0.536257
C66   C     C_R   0.485471 0.923707 0.078992 0.714544
O16   O     O_R   0.317110 0.076520 0.039540 -0.534736
O17   O     O_3   0.483830 0.993580 0.966380 -0.363960
V3    V     V_3+5 0.760140 0.001190 0.006240 1.467808
O18   O     O_R   0.149510 0.922740 0.954070 -0.532772
C67   C     C_R   0.981647 0.898798 0.943680 0.716557
O19   O     O_R   0.143120 0.056170 0.936970 -0.533378
C68   C     C_R   0.973330 0.076316 0.921118 0.728958
V4    V     V_3+5 0.259690 0.998700 0.993700 1.487434
O20   O     O_3   0.986130 0.006420 0.033620 -0.369084
Cl1   Cl    Cl    0.615266 0.198906 0.665525 -0.568275
Cl2   Cl    Cl    0.294178 0.614728 0.203313 -0.621158
C69   C     C_2   0.707760 0.700397 0.181499 0.441706
H24   H     H_    0.778642 0.654642 0.192781 0.105750
O21   O     O_2   0.756476 0.729406 0.140119 -0.519012
C70   C     C_2   0.025364 0.599817 0.667142 0.305838
H25   H     H_    0.146661 0.606287 0.694657 0.079187
O22   O     O_2   0.979231 0.544413 0.654978 -0.546001
Cl3   Cl    Cl    0.402744 0.273238 0.511230 -0.581797
Cl4   Cl    Cl    0.530045 0.357618 0.058191 -0.533124
C71   C     C_2   0.553838 0.223258 0.002701 0.496822
H26   H     H_    0.638113 0.183451 0.985624 0.013462
O23   O     O_2   0.495638 0.266379 0.971738 -0.479036
C72   C     C_2   0.321960 0.101468 0.166062 0.387937
H27   H     H_    0.369121 0.053496 0.152534 0.017395
O24   O     O_2   0.185868 0.105247 0.197336 -0.522162
Cl5   Cl    Cl    0.081916 0.909573 0.750209 -0.646534

loop_
_geom_bond_atom_site_label_1
_geom_bond_atom_site_label_2
_ccdc_geom_bond_type
C36   C44   S    
C13   C19   A    
C54   C58   A    
C58   C59   A    
C59   H20   S    
C48   C63   A    
C71   H26   S    
C4    C6    S    
O2    C1    A    
C7    C8    A    
C47   C50   A    
C1    O6    A    
C21   H2    S    
O14   C66   A    
C52   C53   A    
C56   C57   A    
C24   H9    S    
C1    C37   S    
C14   C15   A    
C27   H13   S    
C16   C17   A    
C63   Cl3   S    
O5    C3    A    
O14   V3    S    
C23   H10   S    
C40   C43   S    
O12   V3    S    
V2    O10   S    
C5    C8    A    
C26   C34   T    
O17   V3    S    
H14   C44   S    
C28   C33   S    
O17   V4    S    
C69   H24   S    
C57   H18   S    
O18   C67   A    
O8    V2    S    
C36   C40   S    
C23   C30   S    
C40   C45   S    
C39   C41   S    
C27   C29   S    
C35   C69   S    
O1    V2    S    
C11   C15   A    
C60   C62   A    
O7    V1    S    
O18   V4    S    
C2    C48   S    
C58   H22   S    
C47   C65   S    
C29   Cl1   S    
O15   C67   A    
O12   C65   A    
C9    C10   A    
C55   C61   A    
C5    C67   S    
O19   V4    S    
O19   C68   A    
C52   C54   A    
C29   C31   S    
C3    C26   S    
C30   C32   S    
C64   H19   S    
C36   Cl2   S    
C41   C42   S    
C12   C16   A    
O11   V4    S    
C12   C13   A    
C62   C63   A    
O4    C2    A    
C8    H5    S    
C30   C34   S    
C49   C50   A    
C15   H1    S    
C13   C14   A    
C53   C57   A    
C5    C9    A    
C35   C36   S    
C16   Cl5   S    
C7    C11   A    
C23   C24   S    
O16   V4    S    
C17   C18   A    
C7    H4    S    
C49   C53   A    
C54   C55   A    
C42   C46   S    
C27   C28   S    
C19   C22   A    
C41   H16   S    
C55   C56   A    
C43   H15   S    
C6    C22   A    
C70   H25   S    
O3    C4    A    
C24   C28   S    
C50   C71   S    
C37   C45   T    
C35   C39   S    
C22   C70   S    
O9    V2    S    
C10   C12   A    
O2    V1    S    
C29   C30   S    
C38   C66   S    
C61   C64   A    
H11   C32   S    
C72   H27   S    
C31   H12   S    
C25   C33   T    
O15   V3    S    
C31   C32   S    
C71   O23   D    
C51   C72   S    
O1    C2    A    
C47   C51   A    
C51   C52   A    
O5    V1    S    
O8    C3    A    
C23   C27   S    
V4    O20   S    
O6    V2    S    
O11   C66   A    
C39   H17   S    
C28   C31   S    
C62   H23   S    
C20   C21   A    
O7    V2    S    
O4    V1    S    
O13   C68   A    
V1    O10   S    
C18   C20   A    
C24   C32   S    
C18   C19   A    
C9    H6    S    
C48   C64   A    
C38   C46   T    
C43   C44   S    
C6    C21   A    
C69   O21   D    
C70   O22   D    
C56   H21   S    
V3    O20   S    
C59   C60   A    
C35   C42   S    
C42   C44   S    
C39   C40   S    
C17   H3    S    
O3    V1    S    
C20   H8    S    
C10   C11   A    
O13   V3    S    
C65   O16   A    
C41   C43   S    
C60   C61   A    
O9    C4    A    
C49   Cl4   S    
C14   H7    S    
C25   C68   S    
C72   O24   D    
