data_mof_unit_47034.cif
_audit_creation_date              2012-12-11T15:52:21-0500
_audit_creation_method            fapswitch 2.2
_symmetry_space_group_name_H-M    P1
_symmetry_Int_Tables_number       1
_space_group_crystal_system       triclinic
_cell_length_a                    11.098739
_cell_length_b                    11.08645
_cell_length_c                    18.833703
_cell_angle_alpha                 89.996062
_cell_angle_beta                  89.850131
_cell_angle_gamma                 120.096006
_cell_volume                      2004.97745379

loop_
_atom_site_label
_atom_site_type_symbol
_atom_type_description
_atom_site_fract_x
_atom_site_fract_y
_atom_site_fract_z
_atom_type_partial_charge
Br1   Br    Br    0.284072 0.096167 0.432603 -0.428610
Br2   Br    Br    0.903811 0.187509 0.432128 -0.427009
Br3   Br    Br    0.812400 0.717000 0.431638 -0.425389
Br4   Br    Br    0.882037 0.214117 0.606841 -0.398698
Br5   Br    Br    0.333428 0.118483 0.607089 -0.400990
Br6   Br    Br    0.785426 0.667774 0.606244 -0.409080
C1    C     C_R   0.521982 0.453203 0.145642 0.584670
C2    C     C_3   0.153809 0.740657 0.446030 -0.257005
C3    C     C_3   0.584747 0.844786 0.446141 -0.256153
C4    C     C_3   0.259642 0.414146 0.446493 -0.255472
C5    C     C_R   0.523171 0.457241 0.354861 0.578822
C6    C     C_R   0.542709 0.066032 0.354897 0.573635
C7    C     C_R   0.933681 0.476690 0.354935 0.577942
C8    C     C_R   0.457714 0.517883 0.647097 0.571109
C9    C     C_R   0.060310 0.542324 0.647112 0.567336
C10   C     C_R   0.482292 0.939842 0.647131 0.572053
C11   C     C_R   0.494351 0.979296 0.925827 -0.001881
C12   C     C_R   0.547124 0.069014 0.145769 0.565730
C13   C     C_R   0.976396 0.490674 0.917552 0.002686
C14   C     C_R   0.495864 0.496822 0.922978 0.007228
C15   C     C_R   0.904974 0.462491 0.063501 -0.021987
C16   C     C_R   0.524041 0.026286 0.072368 0.032384
C17   C     C_R   0.507873 0.474992 0.071109 0.027305
C18   C     C_R   0.378374 0.916142 0.971221 -0.071957
C19   C     C_R   0.975419 0.385345 0.958839 0.031955
C20   C     C_R   0.604709 0.602774 0.962213 -0.000317
C21   C     C_R   0.943257 0.374041 0.030508 -0.041698
C22   C     C_R   0.392861 0.945961 0.042807 -0.068225
C23   C     C_R   0.877150 0.454815 0.139991 0.532845
C24   C     C_R   0.611134 0.590340 0.035197 -0.036783
C25   C     C_R   0.641688 0.069544 0.028499 -0.143357
C26   C     C_R   0.884862 0.553739 0.020061 -0.164718
C27   C     C_R   0.405279 0.364603 0.031343 -0.165588
C28   C     C_R   0.916523 0.565139 0.947338 -0.154112
C29   C     C_R   0.627425 0.050784 0.955649 -0.165394
C30   C     C_R   0.402127 0.374100 0.958382 -0.188950
C31   C     C_3   0.241784 0.912100 0.968182 -0.098820
C32   C     C_3   0.084918 0.346565 0.970236 -0.144892
C33   C     C_3   0.652133 0.754884 0.968345 -0.134312
C34   C     C_R   0.455964 0.520901 0.853326 0.537314
C35   C     C_3   0.050900 0.336306 0.049537 -0.134496
C36   C     C_3   0.262762 0.953617 0.046633 -0.114000
C37   C     C_3   0.662191 0.740577 0.048748 -0.088946
C38   C     C_R   0.506949 0.998002 0.576270 0.011567
C39   C     C_R   0.002336 0.508696 0.576302 0.011208
C40   C     C_R   0.491173 0.493594 0.576174 0.011698
C41   C     C_R   0.978736 0.482792 0.427876 -0.020504
C42   C     C_R   0.503348 0.020549 0.427855 -0.020214
C43   C     C_R   0.517053 0.496512 0.427750 -0.019997
C44   C     C_R   0.586291 0.964471 0.531823 0.062574
C45   C     C_R   0.060026 0.541487 0.852255 0.535162
C46   C     C_R   0.035254 0.621775 0.532016 0.063117
C47   C     C_R   0.378095 0.413756 0.532059 0.062322
C48   C     C_R   0.023889 0.608249 0.460340 0.037046
C49   C     C_R   0.583313 0.975134 0.460142 0.037391
C50   C     C_R   0.391611 0.416273 0.460372 0.036964
C51   C     C_R   0.424418 0.061960 0.471431 0.126001
C52   C     C_R   0.937993 0.362200 0.471309 0.125658
C53   C     C_R   0.637617 0.576094 0.470976 0.126169
C54   C     C_R   0.943584 0.375044 0.546249 0.125533
C55   C     C_R   0.432216 0.056763 0.546338 0.125455
C56   C     C_R   0.478846 0.934325 0.853137 0.544283
C57   C     C_R   0.624732 0.568496 0.545912 0.126348
C58   C     C_2   0.246289 0.019089 0.917933 0.264352
C59   C     C_2   0.045145 0.207864 0.937756 0.230912
C60   C     C_2   0.789135 0.842777 0.931147 0.244263
C61   C     C_2   0.167563 0.446956 0.092969 0.243028
C62   C     C_2   0.157391 0.844615 0.095176 0.263271
C63   C     C_2   0.559710 0.760705 0.091875 0.225628
C64   C     C_3   0.590016 0.832223 0.525769 -0.222111
C65   C     C_3   0.167109 0.758330 0.525648 -0.220805
C66   C     C_3   0.241975 0.409455 0.526154 -0.222089
Cr1   Cr    Cr6+3 0.769160 0.541570 0.250690 1.130042
Cr2   Cr    Cr6+3 0.458430 0.227590 0.250690 1.120165
Cr3   Cr    Cr6+3 0.772410 0.230840 0.250690 1.124453
Cr4   Cr    Cr6+3 0.541570 0.769160 0.749310 1.082768
Cr5   Cr    Cr6+3 0.227590 0.458430 0.749310 1.140100
Cr6   Cr    Cr6+3 0.230840 0.772410 0.749310 1.124375
H1    H     H_    0.745325 0.121827 0.050244 0.150271
H2    H     H_    0.003910 0.229657 0.072660 0.154595
H3    H     H_    0.282989 0.060086 0.057618 0.143666
H4    H     H_    0.769001 0.794036 0.071455 0.209094
H5    H     H_    0.494708 0.741536 0.547806 0.102265
H6    H     H_    0.258034 0.754049 0.547049 0.101519
H7    H     H_    0.246660 0.504879 0.547803 0.101434
H8    H     H_    0.130154 0.814063 0.418123 0.242632
H9    H     H_    0.681372 0.867952 0.417770 0.243003
H10   H     H_    0.186077 0.317032 0.418606 0.243284
H11   H     H_    0.690857 0.846804 0.544923 0.245611
H12   H     H_    0.855876 0.624277 0.043432 0.178141
H13   H     H_    0.152566 0.844519 0.545253 0.245555
H14   H     H_    0.155643 0.308517 0.545765 0.245204
H15   H     H_    0.236116 0.725294 0.421173 0.110932
H16   H     H_    0.486455 0.762332 0.421923 0.111954
H17   H     H_    0.275327 0.512173 0.421859 0.112692
H18   H     H_    0.342343 0.116875 0.911203 0.099055
H19   H     H_    0.058240 0.132229 0.968133 0.161243
H20   H     H_    0.790685 0.884057 0.878760 0.187054
H21   H     H_    0.221827 0.554460 0.075001 0.079960
H22   H     H_    0.141681 0.739850 0.094896 0.117687
H23   H     H_    0.322582 0.273166 0.056689 0.153166
H24   H     H_    0.459587 0.734946 0.069764 0.093964
H25   H     H_    0.908969 0.643473 0.916581 0.202386
H26   H     H_    0.720010 0.089300 0.922982 0.173284
H27   H     H_    0.314430 0.292137 0.931076 0.153939
H28   H     H_    0.154843 0.805293 0.957853 0.160862
H29   H     H_    0.190528 0.431652 0.955053 0.118828
H30   H     H_    0.569961 0.777783 0.951568 0.105602
O1    O     O_R   0.911480 0.572650 0.170990 -0.482398
O2    O     O_R   0.528970 0.640340 0.824320 -0.515179
O3    O     O_R   0.111370 0.471030 0.824320 -0.459749
O4    O     O_R   0.359660 0.888630 0.824320 -0.479957
O5    O     O_R   0.909980 0.572450 0.331530 -0.458546
O6    O     O_R   0.427550 0.337530 0.331530 -0.456514
O7    O     O_R   0.662470 0.090020 0.331530 -0.457052
O8    O     O_R   0.572450 0.909980 0.668470 -0.475100
O9    O     O_R   0.337530 0.427550 0.668470 -0.473804
O10   O     O_R   0.090020 0.662470 0.668470 -0.476932
O11   O     O_R   0.638950 0.528780 0.324500 -0.461736
O12   O     O_R   0.427350 0.338830 0.170990 -0.487176
O13   O     O_R   0.471220 0.110170 0.324500 -0.465015
O14   O     O_R   0.889830 0.361050 0.324500 -0.459294
O15   O     O_R   0.528780 0.638950 0.675500 -0.481579
O16   O     O_R   0.110170 0.471220 0.675500 -0.479095
O17   O     O_R   0.361050 0.889830 0.675500 -0.478925
O18   O     O_3   0.666667 0.333333 0.250560 -0.335446
O19   O     O_3   0.333333 0.666667 0.749440 -0.314769
O20   O     O_2   0.146532 0.992517 0.880497 -0.422526
O21   O     O_2   0.004320 0.181786 0.876520 -0.437810
O22   O     O_2   0.898367 0.864944 0.957916 -0.515137
O23   O     O_R   0.661170 0.088520 0.170990 -0.486527
O24   O     O_2   0.200489 0.416739 0.149100 -0.459768
O25   O     O_2   0.089624 0.873617 0.135618 -0.457662
O26   O     O_2   0.586595 0.800937 0.153146 -0.461954
O27   O     O_R   0.572650 0.911480 0.829010 -0.530151
O28   O     O_R   0.338830 0.427350 0.829010 -0.489066
O29   O     O_R   0.088520 0.661170 0.829010 -0.502187
O30   O     O_R   0.640340 0.528970 0.175680 -0.503361
O31   O     O_R   0.471030 0.111370 0.175680 -0.507600
O32   O     O_R   0.888630 0.359660 0.175680 -0.477178

loop_
_geom_bond_atom_site_label_1
_geom_bond_atom_site_label_2
_ccdc_geom_bond_type
Br6   C57   S    
C42   C49   A    
C39   C54   A    
C63   O26   D    
Cr1   O11   S    
Cr3   O14   S    
C61   O24   D    
C6    C42   S    
C5    O11   A    
C35   H2    S    
C66   H7    S    
C42   C51   A    
C8    C40   S    
C63   H24   S    
C34   O28   A    
C4    H10   S    
C27   H23   S    
C23   O1    A    
C62   O25   D    
Cr6   O10   S    
Cr5   O9    S    
Cr3   O32   S    
C66   H14   S    
C1    C17   S    
C20   C33   S    
Cr1   O30   S    
C52   C54   A    
Cr1   O18   S    
Cr2   O6    S    
C31   C36   S    
C27   C30   A    
Cr1   O5    S    
C40   C47   A    
C32   H29   S    
Cr5   O3    S    
C5    O6    A    
C26   H12   S    
C6    O13   A    
Cr3   O23   S    
C58   O20   D    
C19   C32   S    
C3    C49   S    
Cr5   O28   S    
C4    C50   S    
C10   O17   A    
C10   C38   S    
Cr5   O19   S    
C61   H21   S    
C6    O7    A    
C15   C21   A    
C37   C63   S    
C16   C22   A    
C36   C62   S    
C12   O23   A    
C36   H3    S    
Cr6   O19   S    
C10   O8    A    
Cr4   O27   S    
C46   C48   A    
C33   H30   S    
C15   C26   A    
C11   C18   A    
C16   C25   A    
C17   C24   A    
C3    C64   S    
C58   H18   S    
C32   C35   S    
C35   C61   S    
C29   H26   S    
C9    O16   A    
C2    C48   S    
C7    C41   S    
C33   C37   S    
C39   C46   A    
C17   C27   A    
C15   C23   S    
C26   C28   A    
C56   O27   A    
C62   H22   S    
C5    C43   S    
Br1   C51   S    
C11   C56   S    
C21   C35   S    
C59   O21   D    
C32   C59   S    
C8    O9    A    
Br4   C54   S    
C18   C31   S    
Br5   C55   S    
C65   H13   S    
C25   H1    S    
C64   H5    S    
C41   C48   A    
C45   O29   A    
C20   C24   A    
C33   C60   S    
C25   C29   A    
C24   C37   S    
C64   H11   S    
Cr3   O7    S    
C9    C39   S    
Cr6   O29   S    
C31   C58   S    
C65   H6    S    
C47   C50   A    
C38   C44   A    
C37   H4    S    
C23   O32   A    
C2    C65   S    
C45   O3    A    
C8    O15   A    
C30   H27   S    
C12   C16   S    
Cr4   O15   S    
C1    O12   A    
C2    H15   S    
C18   C22   A    
C13   C28   A    
C1    O30   A    
C34   O2    A    
Br2   C52   S    
C51   C55   A    
C38   C55   A    
C19   C21   A    
C43   C50   A    
Cr2   O12   S    
Cr2   O31   S    
C53   C57   A    
C44   C49   A    
C43   C53   A    
C9    O10   A    
C40   C57   A    
Cr3   O18   S    
C60   H20   S    
C44   C64   S    
C59   H19   S    
C31   H28   S    
Cr5   O16   S    
C3    H9    S    
C41   C52   A    
C7    O14   A    
C47   C66   S    
Cr2   O18   S    
C14   C20   A    
C4    H17   S    
C14   C34   S    
C28   H25   S    
C22   C36   S    
Cr4   O8    S    
C2    H8    S    
Cr1   O1    S    
C12   O31   A    
C13   C19   A    
C14   C30   A    
C13   C45   S    
Cr2   O13   S    
C56   O4    A    
Cr4   O2    S    
C46   C65   S    
Cr4   O19   S    
Cr6   O4    S    
C11   C29   A    
Cr6   O17   S    
C3    H16   S    
C7    O5    A    
C4    C66   S    
C60   O22   D    
Br3   C53   S    
