data_mof_unit_39087.cif
_audit_creation_date              2012-12-11T14:27:09-0500
_audit_creation_method            fapswitch 2.2
_symmetry_space_group_name_H-M    P1
_symmetry_Int_Tables_number       1
_space_group_crystal_system       triclinic
_cell_length_a                    15.021039
_cell_length_b                    14.868787
_cell_length_c                    14.914577
_cell_angle_alpha                 109.342893
_cell_angle_beta                  109.6508
_cell_angle_gamma                 109.333389
_cell_volume                      2566.99195198

loop_
_atom_site_label
_atom_site_type_symbol
_atom_type_description
_atom_site_fract_x
_atom_site_fract_y
_atom_site_fract_z
_atom_type_partial_charge
C1    C     C_R   0.927783 0.743221 0.020859 -0.152762
C2    C     C_R   0.677604 0.229702 0.676468 0.133616
C3    C     C_R   0.052927 0.500704 0.693130 0.138577
C4    C     C_R   0.700549 0.500051 0.068213 0.027498
C5    C     C_R   0.065873 0.591251 0.312957 -0.152760
C6    C     C_R   0.224239 0.408320 0.972140 -0.157720
C7    C     C_R   0.302932 0.797870 0.212444 -0.174068
C8    C     C_R   0.916575 0.201192 0.004817 -0.161845
C9    C     C_R   0.006784 0.200639 0.912945 -0.124639
C10   C     C_R   0.210876 0.799434 0.302415 -0.128979
C11   C     C_R   0.974793 0.407861 0.221223 -0.116352
C12   C     C_R   0.779211 0.253887 0.686990 -0.151095
C13   C     C_R   0.314278 0.592200 0.064642 -0.017548
C14   C     C_R   0.052535 0.499458 0.323460 0.131633
C15   C     C_R   0.326497 0.500555 0.047225 -0.008684
C16   C     C_R   0.307542 0.858381 0.308004 0.141885
C17   C     C_R   0.951996 0.140746 0.949503 0.136706
C18   C     C_3   0.534131 0.490393 0.960071 -0.493867
C19   C     C_3   0.431172 0.492064 0.953748 0.415774
C20   C     C_3   0.536465 0.402666 0.079497 -0.412487
C21   C     C_3   0.634116 0.608572 0.166992 -0.404290
C22   C     C_3   0.603793 0.500379 0.070131 0.349724
C23   C     C_R   0.086913 0.591520 0.788444 -0.154007
C24   C     C_3   0.428126 0.501278 0.059791 0.319353
C25   C     C_3   0.431716 0.402508 0.072270 -0.511744
C26   C     C_3   0.530438 0.608057 0.162505 -0.375248
C27   C     C_2   0.384118 0.039282 0.464685 -0.119165
C28   C     C_2   0.395872 0.968576 0.392408 -0.193116
C29   C     C_2   0.479803 0.136969 0.565500 -0.114326
C30   C     C_2   0.577715 0.179430 0.573270 -0.192301
C31   C     C_2   0.076843 0.418651 0.537393 -0.122233
C32   C     C_2   0.080552 0.504630 0.609796 -0.190322
C33   C     C_2   0.072057 0.412070 0.435411 -0.114308
C34   C     C_R   0.701255 0.408877 0.005113 -0.149881
C35   C     C_2   0.106855 0.502274 0.426401 -0.191962
C36   C     C_2   0.922388 0.958488 0.839929 -0.119919
C37   C     C_2   0.923709 0.029073 0.925076 -0.192912
C38   C     C_2   0.922863 0.858451 0.834898 -0.114688
C39   C     C_2   0.887201 0.814507 0.889587 -0.192381
C40   C     C_R   0.998420 0.409073 0.698103 -0.130925
C41   C     C_R   0.791592 0.591106 0.096432 -0.152506
C42   C     C_R   0.687938 0.254305 0.778763 -0.115357
C43   C     C_R   0.021381 0.744812 0.931587 -0.112270
C44   C     C_R   0.941746 0.766839 0.942667 0.132253
H1    H     H_    0.871247 0.750693 0.048219 0.099305
H2    H     H_    0.203893 0.323452 0.933414 0.092342
H3    H     H_    0.357696 0.827422 0.183959 0.097721
H4    H     H_    0.857662 0.170883 0.028816 0.093005
H5    H     H_    0.032199 0.171659 0.854776 0.080220
H6    H     H_    0.181923 0.829019 0.356807 0.081495
H7    H     H_    0.944486 0.322888 0.199860 0.089462
H8    H     H_    0.376785 0.677346 0.111480 0.090763
H9    H     H_    0.510342 0.412276 0.889828 0.126347
H10   H     H_    0.582688 0.558753 0.951336 0.188486
H11   H     H_    0.798924 0.243975 0.622379 0.098410
H12   H     H_    0.358830 0.413243 0.881379 0.021639
H13   H     H_    0.512826 0.322873 0.012177 0.152653
H14   H     H_    0.360836 0.323040 0.001019 0.157009
H15   H     H_    0.686492 0.618150 0.246744 0.154709
H16   H     H_    0.680044 0.681144 0.162284 0.157486
H17   H     H_    0.533084 0.682782 0.160445 0.177041
H18   H     H_    0.529598 0.613636 0.238466 0.149184
H19   H     H_    0.585768 0.409266 0.158621 0.170496
H20   H     H_    0.428664 0.407410 0.147180 0.188513
H21   H     H_    0.305209 0.017271 0.459070 0.115634
H22   H     H_    0.145255 0.675338 0.817789 0.094566
H23   H     H_    0.474374 0.987476 0.398096 0.129397
H24   H     H_    0.471654 0.160677 0.638056 0.112944
H25   H     H_    0.585065 0.161979 0.500272 0.128540
H26   H     H_    0.058893 0.344589 0.543316 0.115475
H27   H     H_    0.095599 0.578468 0.604102 0.127608
H28   H     H_    0.021387 0.330851 0.363240 0.115794
H29   H     H_    0.163825 0.582940 0.498785 0.129269
H30   H     H_    0.938627 0.982068 0.783184 0.115983
H31   H     H_    0.910599 0.008466 0.984485 0.130310
H32   H     H_    0.972146 0.835460 0.803693 0.115300
H33   H     H_    0.646437 0.323864 0.975388 0.085209
H34   H     H_    0.831173 0.831390 0.913362 0.130553
H35   H     H_    0.973536 0.325100 0.644277 0.081586
H36   H     H_    0.822253 0.676104 0.152755 0.087035
H37   H     H_    0.625233 0.246259 0.800438 0.087540
H38   H     H_    0.052070 0.754194 0.877661 0.088642
H39   H     H_    0.120219 0.675847 0.377402 0.098049
N1    N     N_R   0.993980 0.704500 0.053430 -0.041647
N2    N     N_R   0.154170 0.443650 0.946570 -0.037325
N3    N     N_R   0.207180 0.704490 0.150760 -0.042937
N4    N     N_R   0.948740 0.295490 0.002840 -0.039619
N5    N     N_R   0.006020 0.295500 0.946570 -0.040959
N6    N     N_R   0.149890 0.704480 0.207030 -0.041514
N7    N     N_R   0.946310 0.443620 0.150760 -0.043305
N8    N     N_R   0.209610 0.556360 0.002840 -0.043326
N9    N     N_R   0.850110 0.295520 0.792970 -0.041920
N10   N     N_R   0.053690 0.556380 0.849240 -0.040312
N11   N     N_R   0.790390 0.443640 0.997160 -0.034273
N12   N     N_R   0.998260 0.443670 0.792970 -0.041719
N13   N     N_R   0.845830 0.556350 0.053430 -0.032903
N14   N     N_R   0.792820 0.295510 0.849240 -0.044509
N15   N     N_R   0.051260 0.704510 0.997160 -0.044481
N16   N     N_R   0.001740 0.556330 0.207030 -0.040204
Ni1   Ni    Ni4+2 0.997880 0.629240 0.129060 0.207345
Ni2   Ni    Ni4+2 0.002120 0.370760 0.870940 0.207580
Ni3   Ni    Ni4+2 0.129260 0.629260 0.000000 0.218337
Ni4   Ni    Ni4+2 0.870740 0.370740 0.000000 0.208918
O1    O     O_3   0.428412 0.580565 0.940112 -0.770296
H40   H     H_    0.405373 0.558157 0.861904 0.312995

loop_
_geom_bond_atom_site_label_1
_geom_bond_atom_site_label_2
_ccdc_geom_bond_type
C19   H12   S    
C16   C28   S    
N4    N5    A    
C27   C29   S    
C3    C23   A    
C43   N15   A    
C21   C26   S    
C2    C12   A    
C41   H36   S    
N5    Ni2   S    
N2    N8    A    
C38   H32   S    
C1    N1    A    
C6    N2    A    
C23   H22   S    
C36   C37   D    
C26   H17   S    
C24   C26   S    
C21   H15   S    
C34   H33   S    
C38   C39   D    
C5    H39   S    
C11   C14   A    
C7    N3    A    
C20   C25   S    
C29   H24   S    
C18   C19   S    
C33   H28   S    
C6    C15   A    
C31   H26   S    
C31   C32   D    
C10   N6    A    
C31   C33   S    
C18   H9    S    
C37   H31   S    
N10   N12   A    
C21   C22   S    
C13   N8    A    
C42   H37   S    
O1    H40   S    
N9    N14   A    
C32   H27   S    
C4    C34   A    
N6    Ni1   S    
N1    Ni1   S    
C39   H34   S    
C5    N16   A    
C28   H23   S    
C9    H5    S    
C24   C25   S    
C21   H16   S    
C42   N14   A    
C14   C35   S    
N15   Ni3   S    
C23   N10   A    
C25   H20   S    
C7    H3    S    
C43   C44   A    
C8    H4    S    
C29   C30   D    
C27   H21   S    
C13   H8    S    
C4    C22   S    
C19   O1    S    
C1    C44   A    
N16   Ni1   S    
C40   H35   S    
C17   C37   S    
N11   N13   A    
C5    C14   A    
N14   Ni4   S    
C36   H30   S    
N9    Ni2   S    
N4    Ni4   S    
C9    C17   A    
C15   C24   S    
C20   C22   S    
N11   Ni4   S    
C13   C15   A    
C25   H14   S    
N8    Ni3   S    
C10   H6    S    
N7    N16   A    
C30   H25   S    
N2    Ni2   S    
C35   H29   S    
C6    H2    S    
C18   C22   S    
C12   N9    A    
C7    C16   A    
C34   N11   A    
N3    N6    A    
N10   Ni3   S    
C3    C40   A    
C39   C44   S    
C8    C17   A    
C2    C30   S    
C8    N4    A    
N1    N15   A    
C20   H19   S    
C36   C38   S    
C19   C24   S    
C26   H18   S    
C9    N5    A    
C10   C16   A    
C11   N7    A    
C1    H1    S    
C2    C42   A    
N13   Ni1   S    
C33   C35   D    
C3    C32   S    
N7    Ni4   S    
C12   H11   S    
C11   H7    S    
C18   H10   S    
C41   N13   A    
C4    C41   A    
C27   C28   D    
C43   H38   S    
C40   N12   A    
C20   H13   S    
N12   Ni2   S    
N3    Ni3   S    
