data_mof_unit_52502.cif
_audit_creation_date              2012-12-10T18:32:46-0500
_audit_creation_method            fapswitch 2.2
_symmetry_space_group_name_H-M    P1
_symmetry_Int_Tables_number       1
_space_group_crystal_system       triclinic
_cell_length_a                    14.988329
_cell_length_b                    15.446709
_cell_length_c                    15.721448
_cell_angle_alpha                 89.536814
_cell_angle_beta                  104.876742
_cell_angle_gamma                 82.362471
_cell_volume                      3483.23556455

loop_
_atom_site_label
_atom_site_type_symbol
_atom_type_description
_atom_site_fract_x
_atom_site_fract_y
_atom_site_fract_z
_atom_type_partial_charge
C1    C     C_R   0.441758 0.662334 0.484924 0.854884
C2    C     C_3   0.392683 0.496121 0.020776 0.234956
C3    C     C_3   0.493123 0.497331 0.080904 0.143436
C4    C     C_3   0.556734 0.413757 0.065274 0.314345
C5    C     C_3   0.568312 0.419111 0.970353 -0.418304
C6    C     C_1   0.492526 0.498616 0.172430 -0.038787
C7    C     C_1   0.502869 0.496779 0.826628 -0.065029
C8    C     C_1   0.504014 0.498488 0.751482 -0.193844
C9    C     C_R   0.407120 0.754699 0.461096 -0.063236
C10   C     C_R   0.591878 0.245736 0.501920 -0.061113
C11   C     C_R   0.283133 0.874765 0.408439 -0.209621
C12   C     C_R   0.501336 0.499802 0.661811 0.903897
C13   C     C_R   0.311841 0.786752 0.434662 -0.202093
C14   C     C_R   0.472582 0.810328 0.458808 -0.277873
C15   C     C_R   0.445908 0.898212 0.432154 0.126176
C16   C     C_R   0.349540 0.931042 0.408736 0.180413
C17   C     C_R   0.513215 0.955294 0.435113 0.001859
C18   C     C_R   0.483596 0.046187 0.429081 0.067421
C19   C     C_R   0.386943 0.077054 0.399359 -0.222448
C20   C     C_R   0.321088 0.019898 0.388133 -0.242377
C21   C     C_R   0.609172 0.924821 0.446810 -0.336191
C22   C     C_R   0.675565 0.981916 0.462107 0.466794
C23   C     C_R   0.558079 0.337719 0.510092 0.856048
C24   C     C_R   0.647910 0.070641 0.472643 0.039966
C25   C     C_R   0.551558 0.102870 0.455976 0.014961
C26   C     C_R   0.714686 0.127463 0.501272 -0.186603
C27   C     C_R   0.686688 0.214837 0.514850 -0.210086
C28   C     C_R   0.525818 0.189491 0.473858 -0.211997
C29   C     C_R   0.847149 0.626935 0.640596 -0.366960
C30   C     C_R   0.755436 0.609013 0.614388 0.612881
C31   C     C_R   0.792045 0.517483 0.503807 -0.140782
C32   C     C_R   0.884576 0.536850 0.524450 -0.039208
C33   C     C_R   0.912498 0.590787 0.596525 0.009905
C34   C     C_R   0.498551 0.500013 0.338183 0.893101
C35   C     C_R   0.950325 0.501854 0.478320 0.026507
C36   C     C_R   0.044851 0.516400 0.508631 0.033153
C37   C     C_R   0.070419 0.567029 0.582960 -0.354587
C38   C     C_R   0.005227 0.606814 0.625316 0.514190
C39   C     C_R   0.924343 0.452831 0.402790 -0.316026
C40   C     C_R   0.989235 0.415110 0.360083 0.520692
C41   C     C_R   0.083931 0.422319 0.394382 -0.010523
C42   C     C_R   0.111910 0.476852 0.465766 -0.031212
C43   C     C_R   0.150893 0.376632 0.357445 -0.413752
C44   C     C_R   0.243747 0.391333 0.385342 0.630977
C45   C     C_3   0.397667 0.485648 0.923315 0.280382
C46   C     C_R   0.206496 0.489809 0.490646 -0.152375
C47   C     C_3   0.525900 0.582578 0.957258 -0.501838
C48   C     C_3   0.531425 0.579812 0.056369 -0.350403
C49   C     C_1   0.494940 0.499461 0.248374 -0.221113
C50   C     C_3   0.498423 0.495643 0.917064 0.164025
H1    H     H_    0.365586 0.437527 0.041433 0.081687
H2    H     H_    0.738955 0.257881 0.535567 0.164380
H3    H     H_    0.209273 0.899196 0.389580 0.135040
H4    H     H_    0.259935 0.744158 0.434452 0.155781
H5    H     H_    0.545125 0.784342 0.480987 0.151580
H6    H     H_    0.346863 0.538869 0.881883 0.109789
H7    H     H_    0.635019 0.856862 0.442666 0.157304
H8    H     H_    0.788533 0.104604 0.513498 0.172842
H9    H     H_    0.233304 0.535112 0.538971 0.151805
H10   H     H_    0.867038 0.667835 0.695871 0.199520
H11   H     H_    0.766308 0.472688 0.454429 0.153895
H12   H     H_    0.141797 0.574010 0.612048 0.146152
H13   H     H_    0.853196 0.443826 0.373194 0.156694
H14   H     H_    0.131281 0.330790 0.306603 0.186843
H15   H     H_    0.491074 0.640316 0.072741 0.206212
H16   H     H_    0.556676 0.355973 0.938622 0.172467
H17   H     H_    0.640800 0.429474 0.971715 0.199251
H18   H     H_    0.519277 0.356880 0.071108 0.064981
N1    N     N_R   0.731690 0.552720 0.548990 -0.133621
N2    N     N_R   0.268300 0.447240 0.450950 -0.129604
O1    O     O_R   0.383120 0.605620 0.475300 -0.625217
O2    O     O_R   0.531890 0.639510 0.506740 -0.603364
O3    O     O_R   0.425580 0.483050 0.607130 -0.633236
O4    O     O_R   0.574360 0.516930 0.638570 -0.549689
O5    O     O_R   0.468110 0.360490 0.493260 -0.576381
O6    O     O_R   0.616880 0.394380 0.524700 -0.624542
O7    O     O_R   0.425640 0.483070 0.361430 -0.600852
O8    O     O_R   0.574420 0.516950 0.392870 -0.616263
Zn1   Zn    Zn3+2 0.400660 0.477370 0.479010 0.961483
Zn2   Zn    Zn3+2 0.599340 0.522630 0.520990 0.976212
O9    O     O_3   0.334928 0.575789 0.026383 -0.659703
C51   C     C_3   0.265994 0.563976 0.070767 0.090373
H19   H     H_    0.244101 0.628329 0.095617 0.175356
H20   H     H_    0.293280 0.518262 0.129638 0.116793
C52   C     C_3   0.180733 0.533865 0.007524 -0.360080
H21   H     H_    0.158015 0.577723 0.947288 0.234541
H22   H     H_    0.199437 0.466361 0.988042 0.212845
C53   C     C_3   0.099715 0.534919 0.049882 -0.976381
H23   H     H_    0.120121 0.490694 0.109658 0.250049
H24   H     H_    0.039625 0.512202 0.002494 0.271808
H25   H     H_    0.077688 0.602217 0.068097 0.266798
O10   O     O_3   0.376699 0.400851 0.897931 -0.681116
C54   C     C_3   0.319492 0.400542 0.810979 0.079722
H26   H     H_    0.340125 0.337113 0.783658 0.184228
H27   H     H_    0.329071 0.452456 0.765895 0.126206
C55   C     C_3   0.216843 0.407575 0.811609 -0.384077
H28   H     H_    0.209469 0.364332 0.865536 0.239346
H29   H     H_    0.191181 0.476042 0.823465 0.213024
C56   C     C_3   0.157324 0.380877 0.724278 -0.904209
H30   H     H_    0.172122 0.415189 0.668280 0.267591
H31   H     H_    0.082261 0.397682 0.721716 0.272885
H32   H     H_    0.172747 0.309271 0.717617 0.259092
O11   O     O_3   0.645462 0.406427 0.127108 -0.643119
C57   C     C_3   0.681081 0.318133 0.153959 0.066559
H33   H     H_    0.758372 0.312303 0.173519 0.184447
H34   H     H_    0.662879 0.272570 0.099446 0.125465
C58   C     C_3   0.648281 0.291463 0.233878 -0.331434
H35   H     H_    0.671991 0.334877 0.288792 0.230517
H36   H     H_    0.570922 0.298838 0.216867 0.207709
C59   C     C_3   0.686586 0.196763 0.264504 -0.971017
H37   H     H_    0.665682 0.152309 0.209956 0.260070
H38   H     H_    0.657793 0.178445 0.319313 0.276775
H39   H     H_    0.763838 0.188606 0.288013 0.269036
H40   H     H_    0.247666 0.045920 0.367282 0.146909
H41   H     H_    0.453890 0.213704 0.469127 0.184398
O12   O     O_3   0.768798 0.948022 0.477503 -0.655785
C60   C     C_3   0.797908 0.955918 0.399290 0.059321
H42   H     H_    0.872312 0.966101 0.418886 0.167342
H43   H     H_    0.759677 0.013611 0.355499 0.130630
C61   C     C_3   0.790080 0.871751 0.348606 -0.347254
H44   H     H_    0.827114 0.814800 0.393329 0.232319
H45   H     H_    0.715589 0.862972 0.324195 0.214239
C62   C     C_3   0.832058 0.874491 0.270054 -0.959687
H46   H     H_    0.795284 0.930435 0.223938 0.265157
H47   H     H_    0.824698 0.812984 0.234433 0.265749
H48   H     H_    0.907330 0.880998 0.292658 0.261739
H49   H     H_    0.360304 0.145244 0.383620 0.164026
O13   O     O_3   0.032247 0.651448 0.702530 -0.659168
C63   C     C_3   0.095349 0.710901 0.697658 0.081464
H50   H     H_    0.067466 0.775110 0.718716 0.164456
H51   H     H_    0.102515 0.723427 0.629888 0.124276
C64   C     C_3   0.190447 0.679763 0.761792 -0.351025
H52   H     H_    0.183014 0.680125 0.830326 0.232727
H53   H     H_    0.216177 0.611786 0.748665 0.207972
C65   C     C_3   0.262628 0.738205 0.754008 -0.955447
H54   H     H_    0.273189 0.736719 0.686595 0.262047
H55   H     H_    0.330141 0.714228 0.801896 0.262030
H56   H     H_    0.239591 0.806556 0.768520 0.267965
O14   O     O_3   0.312495 0.346729 0.351172 -0.632131
C66   C     C_3   0.290553 0.357307 0.258029 0.069789
H57   H     H_    0.348834 0.384189 0.240419 0.171249
H58   H     H_    0.226537 0.404208 0.228312 0.102915
C67   C     C_3   0.282982 0.268417 0.216720 -0.372742
H59   H     H_    0.350276 0.224846 0.241496 0.231185
H60   H     H_    0.227628 0.237721 0.235792 0.218026
C68   C     C_3   0.260371 0.277500 0.116436 -0.956133
H61   H     H_    0.192967 0.320340 0.089868 0.265929
H62   H     H_    0.254873 0.212116 0.088340 0.271317
H63   H     H_    0.316430 0.305604 0.095879 0.258953
O15   O     O_3   0.958402 0.367815 0.286329 -0.658482
C69   C     C_3   0.950116 0.419337 0.208890 0.037346
H64   H     H_    0.943679 0.374318 0.153552 0.177733
H65   H     H_    0.013520 0.450676 0.211477 0.128917
C70   C     C_3   0.863290 0.489062 0.189181 -0.359896
H66   H     H_    0.803126 0.460202 0.200246 0.269346
H67   H     H_    0.876205 0.543471 0.234558 0.205215
C71   C     C_3   0.838850 0.526206 0.094522 -0.920211
H68   H     H_    0.898174 0.555832 0.082143 0.262545
H69   H     H_    0.777145 0.577476 0.083238 0.259870
H70   H     H_    0.821784 0.473846 0.047479 0.264950
O16   O     O_3   0.691089 0.639354 0.660489 -0.613634
C72   C     C_3   0.677021 0.731932 0.660545 0.061563
H71   H     H_    0.601267 0.753999 0.634032 0.173567
H72   H     H_    0.713056 0.764977 0.618143 0.124138
C73   C     C_3   0.705391 0.761857 0.755030 -0.356464
H73   H     H_    0.664430 0.732908 0.794920 0.230850
H74   H     H_    0.780432 0.738981 0.785075 0.220076
C74   C     C_3   0.687888 0.861317 0.757511 -0.934308
H75   H     H_    0.729532 0.891610 0.719323 0.275897
H76   H     H_    0.708683 0.881126 0.826770 0.262635
H77   H     H_    0.612753 0.885686 0.729388 0.264975
H78   H     H_    0.594611 0.593995 0.947764 0.197892
H79   H     H_    0.473398 0.638333 0.923646 0.191522
H80   H     H_    0.605133 0.578717 0.094913 0.205366

loop_
_geom_bond_atom_site_label_1
_geom_bond_atom_site_label_2
_ccdc_geom_bond_type
C10   C27   A    
C67   C68   S    
C4    O11   S    
C73   H73   S    
C12   O4    A    
C46   H9    S    
C65   H56   S    
C41   C43   A    
C41   C42   A    
C31   H11   S    
C36   C42   A    
C35   C36   A    
C66   C67   S    
C23   O6    A    
C5    H17   S    
C3    C6    S    
O13   C63   S    
O1    Zn1   S    
O16   C72   S    
C7    C8    T    
C52   H21   S    
C61   H44   S    
C25   C28   A    
C26   C27   A    
C1    O1    A    
C62   H46   S    
C36   C37   A    
C24   C26   A    
C72   H71   S    
C60   H43   S    
C34   O7    A    
O8    Zn2   S    
C62   H47   S    
C15   C16   A    
C72   C73   S    
C55   C56   S    
C29   C33   A    
C3    C48   S    
C71   H70   S    
O12   C60   S    
C65   H55   S    
C18   C19   A    
C42   C46   A    
C69   C70   S    
C45   O10   S    
C9    C13   A    
C59   H37   S    
C71   H68   S    
C47   C48   S    
C45   H6    S    
C22   O12   S    
C64   H52   S    
C55   H29   S    
C58   H35   S    
C29   H10   S    
C44   N2    A    
C48   H15   S    
C29   C30   A    
C68   H62   S    
C11   H3    S    
C61   C62   S    
C8    C12   S    
C63   C64   S    
C74   H76   S    
C14   H5    S    
C69   H64   S    
C73   H74   S    
O4    Zn2   S    
C21   C22   A    
C58   H36   S    
C18   C25   A    
C57   H34   S    
C57   H33   S    
C61   H45   S    
C43   H14   S    
C47   H78   S    
C47   C50   S    
C72   H72   S    
O7    Zn1   S    
C2    C45   S    
C1    O2    A    
C68   H61   S    
C52   H22   S    
C32   C35   A    
C65   H54   S    
C1    C9    S    
C24   C25   A    
C70   C71   S    
C60   C61   S    
C39   C40   A    
C4    H18   S    
C5    H16   S    
C62   H48   S    
O9    C51   S    
C71   H69   S    
C35   C39   A    
C9    C14   A    
C21   H7    S    
C37   C38   A    
C28   H41   S    
C68   H63   S    
C11   C16   A    
C31   C32   A    
C53   H25   S    
C16   C20   A    
C55   H28   S    
C17   C18   A    
O3    Zn1   S    
C40   O15   S    
C54   H26   S    
C66   H57   S    
C26   H8    S    
C59   H39   S    
C70   H66   S    
C47   H79   S    
C48   H80   S    
C40   C41   A    
C56   H31   S    
C53   H24   S    
C44   O14   S    
C51   H20   S    
C43   C44   A    
C58   C59   S    
C22   C24   A    
C5    C50   S    
C3    C4    S    
C30   N1    A    
C27   H2    S    
C63   H50   S    
C52   C53   S    
C10   C28   A    
C67   H60   S    
C74   H75   S    
C34   C49   S    
N2    Zn1   S    
C14   C15   A    
C70   H67   S    
O6    Zn2   S    
C7    C50   S    
C23   O5    A    
C4    C5    S    
N1    Zn2   S    
C38   O13   S    
O14   C66   S    
C15   C17   A    
C73   C74   S    
C66   H58   S    
C10   C23   S    
C54   C55   S    
C51   C52   S    
C39   H13   S    
C13   H4    S    
C33   C38   A    
C56   H30   S    
C32   C33   A    
C19   C20   A    
C2    C3    S    
O2    Zn2   S    
C60   H42   S    
C34   O8    A    
C20   H40   S    
C11   C13   A    
C54   H27   S    
C45   C50   S    
C64   C65   S    
C19   H49   S    
O10   C54   S    
C69   H65   S    
C6    C49   T    
C59   H38   S    
C46   N2    A    
C2    H1    S    
C31   N1    A    
C56   H32   S    
C53   H23   S    
C64   H53   S    
C51   H19   S    
O11   C57   S    
C37   H12   S    
O15   C69   S    
C2    O9    S    
C74   H77   S    
C30   O16   S    
C12   O3    A    
O5    Zn1   S    
C57   C58   S    
C67   H59   S    
C63   H51   S    
C17   C21   A    
