data_mof_unit_38355.cif
_audit_creation_date              2012-12-11T17:06:28-0500
_audit_creation_method            fapswitch 2.2
_symmetry_space_group_name_H-M    P1
_symmetry_Int_Tables_number       1
_space_group_crystal_system       triclinic
_cell_length_a                    6.979177
_cell_length_b                    14.505822
_cell_length_c                    15.964065
_cell_angle_alpha                 90.409558
_cell_angle_beta                  89.68472
_cell_angle_gamma                 89.686414
_cell_volume                      1616.09086152

loop_
_atom_site_label
_atom_site_type_symbol
_atom_type_description
_atom_site_fract_x
_atom_site_fract_y
_atom_site_fract_z
_atom_type_partial_charge
O1    O     O_R   0.494400 0.415450 0.412630 -0.536001
O2    O     O_R   0.823940 0.405730 0.586760 -0.518036
O3    O     O_R   0.994240 0.584550 0.587370 -0.532809
C1    C     C_R   0.655240 0.383045 0.614705 0.791655
O4    O     O_R   0.824110 0.404430 0.413240 -0.558278
O5    O     O_R   0.994420 0.583240 0.412620 -0.506894
C2    C     C_R   0.656182 0.382209 0.384296 0.770737
O6    O     O_R   0.494230 0.416760 0.587380 -0.542265
O7    O     O_3   0.660800 0.558670 0.500000 -0.370545
V1    V     V_3+5 0.935650 0.489120 0.500000 1.545843
O8    O     O_R   0.324140 0.594270 0.413240 -0.534459
C3    C     C_R   0.154861 0.616577 0.384867 0.734024
O9    O     O_R   0.323960 0.595570 0.586760 -0.556570
C4    C     C_R   0.154633 0.617756 0.615185 0.800195
V2    V     V_3+5 0.435660 0.510880 0.500000 1.521284
O10   O     O_3   0.160640 0.441330 0.500000 -0.386489
C5    C     C_3   0.057282 0.667423 0.772823 -0.282761
C6    C     C_3   0.230115 0.717281 0.812632 0.710442
H1    H     H_    0.995744 0.600998 0.793786 0.198322
C7    C     C_3   0.122737 0.809947 0.809858 -0.269044
C8    C     C_3   0.950508 0.761023 0.769341 0.535318
C9    C     C_3   0.036705 0.779860 0.682553 0.426187
C10   C     C_3   0.210223 0.829370 0.722079 -0.377658
C11   C     C_3   0.318578 0.735314 0.725320 -0.157306
C12   C     C_3   0.143720 0.687167 0.685264 -0.246996
H2    H     H_    0.273435 0.895606 0.701592 0.170822
H3    H     H_    0.470015 0.723053 0.706752 0.208956
C13   C     C_R   0.240527 0.826713 0.249515 -0.080705
C14   C     C_R   0.118116 0.813932 0.181484 -0.143204
C15   C     C_R   0.989314 0.739670 0.186415 -0.138698
H4    H     H_    0.885055 0.729221 0.137287 0.183559
C16   C     C_R   0.002327 0.674173 0.251713 0.551700
C17   C     C_R   0.139408 0.685168 0.316765 -0.150582
C18   C     C_R   0.246257 0.766912 0.316743 -0.239084
C19   C     C_3   0.451804 0.789843 0.335103 0.830863
C20   C     C_3   0.446467 0.851500 0.257599 1.081745
C21   C     C_R   0.514553 0.323809 0.748644 -0.123825
C22   C     C_R   0.648449 0.315375 0.683405 -0.244825
C23   C     C_R   0.784872 0.243247 0.689072 0.614797
C24   C     C_R   0.771930 0.177438 0.753465 -0.212104
H5    H     H_    0.872485 0.120326 0.753708 0.193131
C25   C     C_R   0.624364 0.182258 0.814080 -0.190837
C26   C     C_R   0.503286 0.259458 0.812373 -0.047434
C27   C     C_3   0.290730 0.269032 0.818941 0.871523
C28   C     C_3   0.303269 0.339891 0.748490 0.405539
H6    H     H_    0.233133 0.318645 0.689155 0.107686
C29   C     C_R   0.476868 0.301279 0.271030 -0.084530
C30   C     C_R   0.647846 0.315287 0.313664 -0.085339
C31   C     C_R   0.798657 0.254388 0.295556 -0.274665
H7    H     H_    0.921335 0.254959 0.334622 0.111104
C32   C     C_R   0.782410 0.185870 0.233354 0.635462
C33   C     C_R   0.619612 0.181326 0.182222 -0.119307
C34   C     C_R   0.463911 0.238548 0.203643 -0.213752
C35   C     C_3   0.276871 0.204884 0.236439 0.624847
C36   C     C_3   0.300236 0.266918 0.312372 0.271904
H8    H     H_    0.158969 0.225497 0.194103 -0.004923
H9    H     H_    0.195379 0.324334 0.320599 -0.023853
O11   O     O_R   0.771650 0.079500 0.908680 -0.563936
O12   O     O_R   0.441690 0.091800 0.082800 -0.530857
O13   O     O_R   0.271460 0.912980 0.083410 -0.514472
C37   C     C_R   0.609497 0.112841 0.112772 0.803344
O14   O     O_R   0.441930 0.090510 0.909280 -0.519518
O15   O     O_R   0.271690 0.911670 0.908660 -0.529506
C38   C     C_R   0.610878 0.112354 0.880651 0.710136
O16   O     O_R   0.771410 0.080810 0.083440 -0.527806
O17   O     O_3   0.605100 0.937580 0.996050 -0.349462
V3    V     V_3+5 0.330220 0.007110 0.996030 1.660366
O18   O     O_R   0.941980 0.900620 0.909250 -0.528685
C39   C     C_R   0.111331 0.878814 0.880471 0.762383
O19   O     O_R   0.941740 0.901920 0.082770 -0.521876
C40   C     C_R   0.110543 0.880060 0.111449 0.818223
V4    V     V_3+5 0.830220 0.985300 0.996000 1.638383
O20   O     O_3   0.105210 0.054870 0.996020 -0.385149
F1    F     F_    0.331524 0.685400 0.880798 -0.621515
O21   O     O_3   0.477515 0.843306 0.408852 -0.547709
C41   C     C_3   0.452686 0.788993 0.480872 -0.067374
H10   H     H_    0.558239 0.731540 0.482594 0.187270
H11   H     H_    0.303518 0.763250 0.485827 0.100846
H12   H     H_    0.477632 0.832783 0.536927 0.135255
F2    F     F_    0.557127 0.818869 0.191425 -0.679462
F3    F     F_    0.473211 0.944298 0.274221 -0.596288
F4    F     F_    0.922648 0.232379 0.629427 -0.706686
O22   O     O_3   0.236346 0.306286 0.897749 -0.551925
C42   C     C_3   0.034950 0.308887 0.904965 -0.087144
H13   H     H_    0.977903 0.238410 0.914405 0.149425
H14   H     H_    0.966193 0.341736 0.849846 0.150115
H15   H     H_    0.995725 0.350524 0.961090 0.131905
F5    F     F_    0.198622 0.187954 0.796724 -0.739122
F6    F     F_    0.258610 0.428851 0.774276 -0.663841
F7    F     F_    0.914587 0.117296 0.229486 -0.638933
F8    F     F_    0.282294 0.111827 0.255577 -0.549937
O23   O     O_3   0.352051 0.217939 0.385718 -0.521860
C43   C     C_3   0.190462 0.198964 0.435477 -0.020458
H16   H     H_    0.111481 0.263001 0.453131 0.122521
H17   H     H_    0.239823 0.167008 0.494531 0.167543
H18   H     H_    0.096159 0.148194 0.403843 0.186851
F9    F     F_    0.761244 0.774649 0.792350 -0.667185
O24   O     O_3   0.934398 0.807808 0.610997 -0.551657
C44   C     C_3   0.862302 0.897749 0.623725 -0.185602
H19   H     H_    0.979808 0.948191 0.632968 0.142900
H20   H     H_    0.759764 0.900658 0.677238 0.161154
H21   H     H_    0.783415 0.918805 0.566810 0.186507
O25   O     O_3   0.879504 0.599714 0.251300 -0.511478
C45   C     C_3   0.965248 0.527665 0.204403 -0.225843
H22   H     H_    0.103256 0.505115 0.232542 0.100493
H23   H     H_    0.987394 0.547895 0.137932 0.147625
H24   H     H_    0.867661 0.467542 0.204881 0.154364
F10   F     F_    0.577970 0.716082 0.326760 -0.656188

loop_
_geom_bond_atom_site_label_1
_geom_bond_atom_site_label_2
_ccdc_geom_bond_type
C43   H16   S    
C9    O24   S    
C19   C20   S    
C41   H12   S    
C1    O6    A    
C27   O22   S    
C45   H23   S    
C34   C35   S    
C33   C34   A    
C19   O21   S    
C36   O23   S    
O14   V3    S    
C6    C11   S    
C13   C14   A    
C21   C22   A    
C42   H14   S    
C33   C37   S    
C32   F7    S    
O5    C3    A    
C15   H4    S    
V2    O10   S    
C18   C19   S    
C10   H2    S    
O14   C38   A    
C19   F10   S    
O12   V3    S    
O8    V2    S    
O17   V4    S    
C44   H19   S    
O13   V3    S    
O18   C39   A    
C31   C32   A    
C9    C12   S    
C10   C11   S    
C42   H15   S    
O19   C40   A    
O1    V2    S    
C28   F6    S    
O7    V1    S    
C29   C34   A    
C24   C25   A    
O17   V3    S    
C13   C18   A    
C6    F1    S    
C8    C9    S    
C45   H22   S    
C5    C6    S    
O15   V3    S    
C41   H10   S    
O11   C38   A    
C35   H8    S    
O12   C37   A    
C32   C33   A    
C29   C30   A    
O15   C39   A    
C11   C12   S    
C20   F2    S    
C23   C24   A    
O4    C2    A    
O13   C40   A    
C28   H6    S    
C5    C8    S    
C21   C26   A    
O2    C1    A    
O21   C41   S    
C14   C15   A    
C8    F9    S    
O22   C42   S    
C7    C10   S    
C20   F3    S    
O18   V4    S    
C11   H3    S    
C17   C18   A    
C16   O25   S    
C42   H13   S    
O3    C4    A    
V3    O20   S    
C30   C31   A    
C44   H20   S    
C1    C22   S    
O24   C44   S    
O6    V2    S    
C36   H9    S    
C26   C27   S    
C7    C39   S    
C25   C26   A    
C21   C28   S    
O2    V1    S    
C25   C38   S    
C27   C28   S    
C29   C36   S    
C35   C36   S    
C24   H5    S    
O1    C2    A    
C23   F4    S    
C41   H11   S    
V4    O20   S    
O5    V1    S    
O8    C3    A    
C43   H18   S    
O16   V4    S    
C5    C12   S    
C16   C17   A    
O9    V2    S    
O7    V2    S    
O4    V1    S    
O3    V1    S    
V1    O10   S    
C2    C30   S    
C15   C16   A    
O11   V4    S    
C22   C23   A    
O23   C43   S    
C5    H1    S    
C6    C7    S    
C4    C12   S    
C27   F5    S    
C37   O16   A    
C35   F8    S    
C44   H21   S    
C7    C8    S    
C13   C20   S    
C43   H17   S    
C31   H7    S    
O25   C45   S    
C9    C10   S    
O19   V4    S    
C3    C17   S    
O9    C4    A    
C45   H24   S    
C14   C40   S    
