data_mof_unit_7264.cif
_audit_creation_date              2013-03-05T15:53:20-0500
_audit_creation_method            fapswitch 2.2
_symmetry_space_group_name_H-M    P1
_symmetry_Int_Tables_number       1
_space_group_crystal_system       triclinic
_cell_length_a                    27.234547
_cell_length_b                    7.223665
_cell_length_c                    22.697043
_cell_angle_alpha                 89.99989
_cell_angle_beta                  101.374508
_cell_angle_gamma                 89.992315
_cell_volume                      4377.56071337

loop_
_atom_site_label
_atom_site_type_symbol
_atom_site_description
_atom_site_fract_x
_atom_site_fract_y
_atom_site_fract_z
_atom_type_partial_charge
O1    O     O_R   0.207310 0.594030 0.676830 -0.605326
O2    O     O_R   0.792690 0.405970 0.323170 -0.590459
O3    O     O_R   0.292690 0.094030 0.823170 -0.605315
O4    O     O_R   0.707310 0.905970 0.176830 -0.590931
O5    O     O_R   0.197320 0.262370 0.795700 -0.575991
O6    O     O_R   0.802680 0.737630 0.204300 -0.563116
O7    O     O_R   0.302680 0.762370 0.704300 -0.576001
O8    O     O_R   0.697320 0.237630 0.295700 -0.562614
C1    C     C_R   0.184257 0.433386 0.811534 0.897362
C2    C     C_R   0.815850 0.566349 0.188665 0.896053
C3    C     C_R   0.315744 0.933371 0.688466 0.897254
C4    C     C_R   0.684183 0.066358 0.311383 0.895880
O9    O     O_R   0.201410 0.264250 0.675590 -0.581233
O10   O     O_R   0.798590 0.735750 0.324410 -0.601693
O11   O     O_R   0.298590 0.764250 0.824410 -0.581156
O12   O     O_R   0.701410 0.235750 0.175590 -0.601727
O13   O     O_R   0.296810 0.094940 0.702210 -0.530516
O14   O     O_R   0.703190 0.905060 0.297790 -0.540138
O15   O     O_R   0.203190 0.594940 0.797790 -0.530491
O16   O     O_R   0.796810 0.405060 0.202210 -0.539380
C5    C     C_R   0.189792 0.432945 0.653322 1.009915
C6    C     C_R   0.809982 0.567535 0.346888 1.020386
C7    C     C_R   0.310215 0.932929 0.846674 1.009878
C8    C     C_R   0.690019 0.067564 0.153106 1.020291
O17   O     O_3   0.281300 0.427390 0.758870 -0.248326
O18   O     O_3   0.718700 0.572610 0.241130 -0.251335
O19   O     O_3   0.218700 0.927390 0.741130 -0.248343
O20   O     O_3   0.781300 0.072610 0.258870 -0.250514
V1    V     V_3+5 0.244190 0.152150 0.748350 1.263688
V2    V     V_3+5 0.755810 0.847850 0.251650 1.259174
V3    V     V_3+5 0.255810 0.652150 0.751650 1.263788
V4    V     V_3+5 0.744190 0.347850 0.248350 1.259812
C9    C     C_R   0.655010 0.061315 0.094205 -0.279668
C10   C     C_R   0.345359 0.942101 0.905405 -0.285797
C11   C     C_R   0.844987 0.561125 0.405782 -0.279595
C12   C     C_R   0.154661 0.442191 0.594584 -0.285750
C13   C     C_R   0.638630 0.103989 0.986207 -0.354699
C14   C     C_R   0.359828 0.946741 0.014183 -0.331544
C15   C     C_R   0.861285 0.602381 0.513833 -0.354167
C16   C     C_R   0.140218 0.447563 0.485811 -0.331645
C17   C     C_R   0.670705 0.122323 0.042113 0.556288
C18   C     C_R   0.326812 0.956336 0.958774 0.558474
C19   C     C_R   0.829205 0.621011 0.457939 0.555981
C20   C     C_R   0.173220 0.456847 0.541234 0.558447
C21   C     C_R   0.604994 0.003588 0.090207 -0.317150
C22   C     C_R   0.397507 0.940618 0.908346 -0.301208
C23   C     C_R   0.895049 0.504018 0.409732 -0.316902
C24   C     C_R   0.102511 0.440501 0.591622 -0.301237
C25   C     C_R   0.570118 0.005218 0.034298 0.123980
C26   C     C_R   0.431872 0.950527 0.964507 0.124388
C27   C     C_R   0.929900 0.505184 0.465660 0.123974
C28   C     C_R   0.068155 0.450675 0.535459 0.124371
C29   C     C_R   0.588853 0.047392 0.981893 0.126074
C30   C     C_R   0.411796 0.944241 0.017524 0.119954
C31   C     C_R   0.911113 0.546421 0.518101 0.126004
C32   C     C_R   0.088249 0.444938 0.482448 0.120121
C33   C     C_R   0.517297 0.972462 0.028531 0.067106
C34   C     C_R   0.485102 0.970802 0.970086 0.068687
C35   C     C_R   0.982738 0.472773 0.471419 0.067266
C36   C     C_R   0.014914 0.470679 0.529874 0.068664
C37   C     C_R   0.506864 0.000126 0.919399 -0.194757
C38   C     C_R   0.495186 0.952453 0.079368 -0.193127
C39   C     C_R   0.993117 0.499221 0.580577 -0.194693
C40   C     C_R   0.004875 0.453410 0.420578 -0.193359
C41   C     C_R   0.557482 0.039623 0.925406 -0.191792
C42   C     C_R   0.443567 0.940977 0.073834 -0.189125
C43   C     C_R   0.942473 0.538275 0.574589 -0.191858
C44   C     C_R   0.056497 0.442084 0.426127 -0.189363
H1    H     H_    0.572030 0.068946 0.885231 0.137899
H2    H     H_    0.428248 0.933245 0.114384 0.137056
H3    H     H_    0.927891 0.566909 0.614787 0.137879
H4    H     H_    0.071831 0.434793 0.385579 0.136907
H5    H     H_    0.409930 0.932007 0.866183 0.136221
H6    H     H_    0.594357 0.961298 0.131486 0.143224
H7    H     H_    0.090083 0.431584 0.633775 0.136220
H8    H     H_    0.905731 0.462493 0.368404 0.143034
H9    H     H_    0.652322 0.142309 0.946150 0.149505
H10   H     H_    0.344668 0.947530 0.054904 0.145877
H11   H     H_    0.847543 0.639906 0.553928 0.149354
H12   H     H_    0.155389 0.448690 0.445098 0.145830
H13   H     H_    0.485261 0.002440 0.874230 0.140460
H14   H     H_    0.516692 0.953879 0.124598 0.140209
H15   H     H_    0.014701 0.501151 0.625757 0.140424
H16   H     H_    0.983386 0.455158 0.375342 0.139987
C45   C     C_R   0.625041 0.876048 0.363016 0.381659
C46   C     C_R   0.373904 0.121635 0.634903 0.411614
C47   C     C_R   0.874694 0.375992 0.136602 0.382050
C48   C     C_R   0.126094 0.621699 0.865096 0.411711
C49   C     C_R   0.589071 0.865955 0.399381 -0.285411
C50   C     C_R   0.409530 0.130758 0.598107 -0.283745
C51   C     C_R   0.910550 0.365899 0.100093 -0.286926
C52   C     C_R   0.090464 0.630850 0.901887 -0.283759
H17   H     H_    0.575897 0.730741 0.409926 0.142941
H18   H     H_    0.422140 0.265806 0.586552 0.140496
H19   H     H_    0.923444 0.230622 0.089159 0.142525
H20   H     H_    0.077850 0.765907 0.913442 0.140480
C53   C     C_R   0.570782 0.025982 0.422579 0.085151
C54   C     C_R   0.428438 0.970027 0.576095 0.081899
C55   C     C_R   0.929173 0.526044 0.077367 0.086059
C56   C     C_R   0.071541 0.470130 0.923877 0.081908
C57   C     C_R   0.588849 0.198407 0.407610 -0.144472
C58   C     C_R   0.411300 0.797912 0.592705 -0.134381
C59   C     C_R   0.911524 0.698552 0.092921 -0.144742
C60   C     C_R   0.088676 0.298002 0.907257 -0.134411
H21   H     H_    0.575564 0.325417 0.424416 0.133495
H22   H     H_    0.425203 0.670369 0.576996 0.134543
H23   H     H_    0.925121 0.825654 0.076547 0.133405
H24   H     H_    0.074767 0.170466 0.922953 0.134548
C61   C     C_R   0.624693 0.209578 0.371056 -0.140979
C62   C     C_R   0.375743 0.787855 0.629719 -0.184756
C63   C     C_R   0.875741 0.709702 0.129562 -0.142496
C64   C     C_R   0.124247 0.287919 0.870263 -0.184842
H25   H     H_    0.637712 0.343646 0.361082 0.232278
H26   H     H_    0.363639 0.653855 0.641264 0.231160
H27   H     H_    0.863124 0.843874 0.140107 0.232113
H28   H     H_    0.136352 0.153910 0.858716 0.231155
C65   C     C_R   0.644095 0.050229 0.348469 -0.297398
C66   C     C_R   0.355611 0.948101 0.650961 -0.305212
C67   C     C_R   0.855979 0.550244 0.151636 -0.296460
C68   C     C_R   0.144388 0.448150 0.849036 -0.305121
N1    N     N_R   0.515247 0.165488 0.485040 -0.079482
N2    N     N_R   0.483877 0.829886 0.513501 -0.079534
N3    N     N_R   0.984901 0.665628 0.015166 -0.079524
N4    N     N_R   0.015889 0.329964 0.986183 -0.079552
N5    N     N_R   0.482111 0.151887 0.520955 -0.077211
N6    N     N_R   0.517013 0.843493 0.477559 -0.077556
N7    N     N_R   0.018045 0.652035 0.979261 -0.077216
N8    N     N_R   0.982740 0.343560 0.022108 -0.077550
C69   C     C_R   0.465666 0.983903 0.536069 0.132876
C70   C     C_R   0.533464 0.011536 0.462469 0.131174
C71   C     C_R   0.034303 0.484019 0.963890 0.132870
C72   C     C_R   0.966480 0.511631 0.037460 0.131043
O21   O     O_3   0.276055 0.974130 0.957340 -0.645978
C73   C     C_3   0.262488 0.163881 0.951465 0.267823
H29   H     H_    0.225232 0.172800 0.921362 0.159601
H30   H     H_    0.288180 0.250772 0.930206 0.069136
C74   C     C_3   0.258410 0.245567 0.012528 -0.391725
H31   H     H_    0.232439 0.159833 0.033219 0.229006
H32   H     H_    0.295824 0.244559 0.042759 0.202159
C75   C     C_3   0.239043 0.444440 0.006111 -0.910204
H33   H     H_    0.264358 0.532820 0.985288 0.279989
H34   H     H_    0.237454 0.501197 0.051153 0.268069
H35   H     H_    0.200781 0.448660 0.977937 0.268162
O22   O     O_3   0.718143 0.194443 0.044955 -0.635742
C76   C     C_3   0.714951 0.390316 0.042469 0.228262
H36   H     H_    0.718067 0.445299 0.088787 0.129387
H37   H     H_    0.679210 0.442510 0.014462 0.071116
C77   C     C_3   0.757933 0.467212 0.015576 -0.311750
H38   H     H_    0.794064 0.412508 0.040699 0.231910
H39   H     H_    0.753388 0.421018 0.968098 0.202765
C78   C     C_3   0.759111 0.678581 0.017743 -0.932903
H40   H     H_    0.723964 0.736452 0.990784 0.266781
H41   H     H_    0.791246 0.729955 0.998954 0.275663
H42   H     H_    0.763519 0.728100 0.064831 0.274638
O23   O     O_3   0.223978 0.474725 0.542697 -0.645942
C79   C     C_3   0.237516 0.664480 0.548620 0.267995
H43   H     H_    0.274774 0.673352 0.578719 0.159496
H44   H     H_    0.211815 0.751249 0.569913 0.069155
C80   C     C_3   0.241573 0.746380 0.487579 -0.392114
H45   H     H_    0.267543 0.660736 0.466848 0.229063
H46   H     H_    0.204155 0.745460 0.457359 0.202139
C81   C     C_3   0.260927 0.945245 0.494054 -0.909770
H47   H     H_    0.235622 0.033525 0.514933 0.279958
H48   H     H_    0.262485 0.002176 0.449026 0.268060
H49   H     H_    0.299199 0.949388 0.522200 0.268138
O24   O     O_3   0.781685 0.692343 0.455161 -0.636559
C82   C     C_3   0.784671 0.888223 0.457869 0.227965
H50   H     H_    0.781566 0.943781 0.411621 0.129230
H51   H     H_    0.820331 0.940594 0.486005 0.071348
C83   C     C_3   0.741559 0.964047 0.484751 -0.309786
H52   H     H_    0.705497 0.909520 0.459388 0.231607
H53   H     H_    0.746007 0.916841 0.532116 0.202651
C84   C     C_3   0.740297 0.175444 0.483043 -0.936049
H54   H     H_    0.775344 0.233052 0.510306 0.267152
H55   H     H_    0.708035 0.226062 0.501742 0.275436
H56   H     H_    0.736059 0.225991 0.436086 0.274419
N9    N     N_R   0.642461 0.706019 0.342713 0.220934
O25   O     O_R   0.619100 0.632059 0.292743 -0.426338
O26   O     O_R   0.683730 0.632303 0.371951 -0.408740
N10   N     N_R   0.356710 0.291982 0.655053 0.218085
O27   O     O_R   0.378915 0.361820 0.706226 -0.426290
O28   O     O_R   0.315198 0.364218 0.626069 -0.416357
N11   N     N_R   0.857137 0.205937 0.156691 0.220408
O29   O     O_R   0.879392 0.134696 0.207624 -0.425532
O30   O     O_R   0.816217 0.131535 0.126801 -0.408982
N12   N     N_R   0.143282 0.792030 0.844942 0.218064
O31   O     O_R   0.121072 0.861877 0.793769 -0.426289
O32   O     O_R   0.184800 0.864214 0.873913 -0.416437

loop_
_geom_bond_atom_site_label_1
_geom_bond_atom_site_label_2
_geom_bond_distance
_ccdc_geom_bond_type
O17   V3    1.760583 S    
C55   C59   1.405466 A    
O1    C5    1.328941 A    
C47   C51   1.401715 A    
N3    C72   1.358496 A    
O19   V1    1.760756 S    
C9    C21   1.410312 A    
O3    C7    1.328949 A    
C10   C18   1.405127 A    
C77   C78   1.527787 S    
C56   C60   1.405479 A    
N1    C70   1.358479 A    
O15   V3    1.978225 S    
C62   C66   1.406106 A    
C73   C74   1.530372 S    
C76   H36   1.111277 S    
C56   C71   1.492198 S    
C61   C65   1.404896 A    
C33   C38   1.410317 A    
C82   H51   1.117853 S    
C5    C12   1.481251 S    
C42   H2    1.084304 S    
C84   H54   1.110980 S    
O7    C3    1.353565 A    
C6    C11   1.481606 S    
C74   H32   1.110556 S    
C35   C40   1.410322 A    
C26   C30   1.417229 A    
C55   C72   1.492144 S    
C18   O21   1.382263 S    
C40   C44   1.388970 A    
O2    V4    1.979956 S    
O9    V1    1.995299 S    
C79   H43   1.107707 S    
C75   H34   1.110201 S    
C23   H8    1.078013 S    
C14   C18   1.396012 A    
N11   O30   1.301157 A    
C47   N11   1.425370 S    
O4    C8    1.331972 A    
C25   C29   1.416802 A    
C84   H56   1.110859 S    
C43   H3    1.084354 S    
C83   H52   1.108244 S    
N6    C70   1.360968 A    
C57   C61   1.402590 A    
C39   H15   1.076810 S    
C60   H24   1.082820 S    
O1    V3    1.979951 S    
O13   V1    1.978140 S    
C31   C43   1.394560 A    
C59   C63   1.402679 A    
C78   H42   1.110858 S    
O3    V1    1.979879 S    
C40   H16   1.076947 S    
C2    C67   1.508827 S    
C28   C36   1.437645 A    
C1    O15   1.337427 A    
C15   C31   1.400858 A    
C48   C52   1.401022 A    
C2    O16   1.335632 A    
N9    O26   1.301102 A    
O2    C6    1.331856 A    
C78   H40   1.110985 S    
C80   H46   1.110543 S    
C58   H22   1.082819 S    
C10   C22   1.408622 A    
C48   C68   1.422758 A    
C11   C19   1.404962 A    
C62   H26   1.071661 S    
N2    C69   1.358757 A    
O5    V1    1.989765 S    
C44   H4    1.084305 S    
N4    N8    1.334118 A    
C13   C29   1.400821 A    
C34   C37   1.410206 A    
O11   C7    1.333147 A    
C38   H14   1.076967 S    
C11   C23   1.410244 A    
C35   C36   1.438695 A    
O12   C8    1.330547 A    
C49   H17   1.083521 S    
C24   H7    1.077879 S    
C47   C67   1.424449 A    
O10   V2    1.995300 S    
N8    C72   1.360977 A    
C46   N10   1.423707 S    
C76   H37   1.117850 S    
N10   O28   1.299892 A    
C50   H18   1.083541 S    
C82   C83   1.527521 S    
C81   H48   1.110202 S    
C84   H55   1.110341 S    
C52   H20   1.083541 S    
C57   H21   1.082826 S    
C74   C75   1.527322 S    
C39   C43   1.387948 A    
O7    V3    1.989901 S    
C38   C42   1.389018 A    
C26   C34   1.437625 A    
C75   H33   1.111264 S    
C17   O22   1.382760 S    
C46   C50   1.401017 A    
C82   H50   1.111315 S    
C60   C64   1.403451 A    
C45   C49   1.401840 A    
O18   V4    1.760583 S    
C15   C19   1.397724 A    
C14   H10   1.084089 S    
C16   C32   1.402443 A    
C32   C44   1.395118 A    
C13   H9    1.084442 S    
O4    V2    1.979875 S    
N4    C71   1.358750 A    
C49   C53   1.401756 A    
C21   H6    1.078034 S    
O8    V4    1.989901 S    
C37   H13   1.076822 S    
N2    N6    1.334155 A    
N11   O29   1.300822 A    
N1    N5    1.333676 A    
C37   C41   1.387943 A    
C81   H49   1.110320 S    
C63   H27   1.071020 S    
N3    N7    1.333684 A    
C80   H45   1.111543 S    
C14   C30   1.402475 A    
C21   C25   1.427295 A    
O8    C4    1.354904 A    
C7    C10   1.481269 S    
C16   H12   1.084086 S    
C80   C81   1.527320 S    
O9    C5    1.333174 A    
C46   C66   1.422758 A    
C77   H38   1.108215 S    
C75   H35   1.110337 S    
C45   C65   1.424498 A    
O14   V2    1.978145 S    
C63   C67   1.404991 A    
O6    V2    1.989766 S    
C16   C20   1.395984 A    
C36   C39   1.410219 A    
O21   C73   1.418991 S    
C12   C20   1.405132 A    
C27   C35   1.438192 A    
N12   O32   1.299886 A    
C64   H28   1.071664 S    
C76   C77   1.527564 S    
C29   C41   1.394567 A    
N10   O27   1.300876 A    
C52   C56   1.401493 A    
C64   C68   1.406094 A    
C81   H47   1.111264 S    
O16   V4    1.978221 S    
C19   O24   1.382745 S    
C3    O13   1.337409 A    
C20   O23   1.382256 S    
C79   C80   1.530395 S    
C77   H39   1.111432 S    
O22   C76   1.418017 S    
C53   C70   1.492152 S    
C25   C33   1.438196 A    
C23   C27   1.427259 A    
O11   V3    1.995431 S    
C73   H29   1.107725 S    
C30   C42   1.395152 A    
C61   H25   1.070813 S    
O12   V4    1.995428 S    
C74   H31   1.111545 S    
C22   C26   1.426648 A    
C8    C9    1.481740 S    
C9    C17   1.405064 A    
O10   C6    1.330621 A    
C79   H44   1.117887 S    
O20   V2    1.760755 S    
C54   C58   1.405469 A    
C33   C34   1.438698 A    
O24   C82   1.417952 S    
C83   H53   1.111434 S    
C41   H1    1.084355 S    
C54   C69   1.492205 S    
C48   N12   1.423697 S    
C73   H30   1.117891 S    
C12   C24   1.408615 A    
C27   C31   1.416822 A    
C78   H41   1.110342 S    
C13   C17   1.397708 A    
N7    C71   1.360737 A    
C58   C62   1.403460 A    
O6    C2    1.354815 A    
C51   H19   1.083549 S    
C4    C65   1.508836 S    
N5    C69   1.360706 A    
C24   C28   1.426654 A    
C45   N9    1.425511 S    
N9    O25   1.300771 A    
C4    O14   1.335514 A    
O23   C79   1.418971 S    
C1    C68   1.509776 S    
C59   H23   1.082861 S    
O5    C1    1.353571 A    
C51   C55   1.401754 A    
N12   O31   1.300875 A    
C3    C66   1.509781 S    
C50   C54   1.401500 A    
C22   H5    1.077893 S    
C53   C57   1.405362 A    
C28   C32   1.417240 A    
C15   H11   1.084441 S    
C83   C84   1.527763 S    
