data_mof_unit_66543.cif
_audit_creation_date              2012-12-11T15:26:34-0500
_audit_creation_method            fapswitch 2.2
_symmetry_space_group_name_H-M    P1
_symmetry_Int_Tables_number       1
_space_group_crystal_system       triclinic
_cell_length_a                    7.378155
_cell_length_b                    12.202058
_cell_length_c                    29.598367
_cell_angle_alpha                 91.012605
_cell_angle_beta                  90.799392
_cell_angle_gamma                 89.530749
_cell_volume                      2663.94222925

loop_
_atom_site_label
_atom_site_type_symbol
_atom_type_description
_atom_site_fract_x
_atom_site_fract_y
_atom_site_fract_z
_atom_type_partial_charge
O1    O     O_R   0.647170 0.849180 0.201220 -0.529739
O2    O     O_R   0.352830 0.150820 0.798780 -0.533571
O3    O     O_R   0.352830 0.150820 0.701220 -0.533818
O4    O     O_R   0.647170 0.849180 0.298780 -0.535650
O5    O     O_R   0.147170 0.650820 0.298780 -0.542159
O6    O     O_R   0.852830 0.349180 0.701220 -0.534385
O7    O     O_R   0.852830 0.349180 0.798780 -0.528686
O8    O     O_R   0.147170 0.650820 0.201220 -0.527801
O9    O     O_R   0.317430 0.862210 0.298450 -0.543931
O10   O     O_R   0.682570 0.137790 0.701550 -0.537459
O11   O     O_R   0.682570 0.137790 0.798450 -0.545603
O12   O     O_R   0.317430 0.862210 0.201550 -0.541493
O13   O     O_R   0.817430 0.637790 0.201550 -0.537359
O14   O     O_R   0.182570 0.362210 0.798450 -0.541953
O15   O     O_R   0.182570 0.362210 0.701550 -0.542424
O16   O     O_R   0.817430 0.637790 0.298450 -0.542657
H1    H     H_    0.153234 0.247579 0.451864 0.178613
H2    H     H_    0.732443 0.725629 0.544395 0.171286
H3    H     H_    0.003116 0.769633 0.961487 0.183099
H4    H     H_    0.948501 0.222950 0.036793 0.178518
H5    H     H_    0.589164 0.269856 0.043896 0.200865
H6    H     H_    0.462581 0.731517 0.954080 0.172638
H7    H     H_    0.222329 0.775825 0.541164 0.166579
H8    H     H_    0.704225 0.232797 0.459791 0.168902
C1    C     C_R   0.485848 0.881581 0.315486 0.728319
C2    C     C_R   0.513339 0.111112 0.686483 0.710860
C3    C     C_R   0.514912 0.117032 0.814974 0.729107
C4    C     C_R   0.484793 0.886450 0.185924 0.718216
C5    C     C_R   0.985614 0.608404 0.187032 0.716040
C6    C     C_R   0.015063 0.386982 0.814242 0.714463
C7    C     C_R   0.012696 0.382537 0.684940 0.730809
C8    C     C_R   0.985858 0.621740 0.316031 0.739051
H9    H     H_    0.050250 0.340424 0.596661 0.225455
H10   H     H_    0.976107 0.667542 0.406246 0.226626
H11   H     H_    0.943097 0.649312 0.100463 0.216182
H12   H     H_    0.099468 0.349952 0.900492 0.217520
H13   H     H_    0.601577 0.150988 0.903034 0.230805
H14   H     H_    0.454479 0.845288 0.097852 0.223164
H15   H     H_    0.452738 0.831777 0.403545 0.215613
H16   H     H_    0.549361 0.150538 0.599357 0.210215
O17   O     O_3   0.480630 0.680630 0.250000 -0.390568
O18   O     O_3   0.519370 0.319370 0.750000 -0.391112
O19   O     O_3   0.980630 0.819370 0.250000 -0.390088
O20   O     O_3   0.019370 0.180630 0.750000 -0.394832
V1    V     V_3+5 0.205800 0.762860 0.250000 1.440867
V2    V     V_3+5 0.794200 0.237140 0.750000 1.435355
V3    V     V_3+5 0.705800 0.737140 0.250000 1.441516
V4    V     V_3+5 0.294200 0.262860 0.750000 1.432487
C9    C     C_R   0.995083 0.544292 0.354572 -0.170052
C10   C     C_R   0.993203 0.461068 0.646381 -0.184610
C11   C     C_R   0.007072 0.467442 0.853732 -0.195329
C12   C     C_R   0.991640 0.525013 0.147880 -0.192569
C13   C     C_R   0.494559 0.967720 0.147839 -0.182695
C14   C     C_R   0.499517 0.039144 0.853657 -0.191110
C15   C     C_R   0.499037 0.028979 0.647795 -0.204190
C16   C     C_R   0.497732 0.957233 0.355687 -0.183105
C17   C     C_R   0.017325 0.355483 0.380599 0.294112
C18   C     C_R   0.889791 0.641005 0.618725 0.250653
C19   C     C_R   0.931966 0.649315 0.886484 0.286965
C20   C     C_R   0.989042 0.336972 0.115097 0.290336
C21   C     C_R   0.540497 0.155012 0.120250 0.257945
C22   C     C_R   0.408048 0.860330 0.881779 0.279842
C23   C     C_R   0.394753 0.851563 0.616486 0.317179
C24   C     C_R   0.542333 0.141133 0.388230 0.291041
C25   C     C_R   0.996821 0.431439 0.345506 0.219640
C26   C     C_R   0.926703 0.567982 0.654571 0.256278
C27   C     C_R   0.958093 0.578948 0.847997 0.265848
C28   C     C_R   0.004873 0.409004 0.153669 0.227497
C29   C     C_R   0.508042 0.081895 0.156932 0.226959
C30   C     C_R   0.421340 0.935447 0.846312 0.246597
C31   C     C_R   0.447814 0.918368 0.654509 0.268834
C32   C     C_R   0.529924 0.069698 0.350174 0.220047
C33   C     C_R   0.983397 0.580457 0.399759 -0.134930
C34   C     C_R   0.019797 0.425971 0.601498 -0.155407
C35   C     C_R   0.039563 0.430305 0.897524 -0.122680
C36   C     C_R   0.977281 0.564024 0.103541 -0.129275
C37   C     C_R   0.491624 0.929533 0.102654 -0.135192
C38   C     C_R   0.537045 0.072858 0.898477 -0.141540
C39   C     C_R   0.522566 0.064641 0.603520 -0.119756
C40   C     C_R   0.475642 0.918342 0.399641 -0.118118
C41   C     C_R   0.986802 0.504696 0.435860 0.070767
C42   C     C_R   0.987816 0.496472 0.564245 0.074141
C43   C     C_R   0.005822 0.497369 0.936210 0.065237
C44   C     C_R   0.996560 0.494402 0.064689 0.060780
C45   C     C_R   0.520345 0.999370 0.065312 0.065427
C46   C     C_R   0.497218 0.005316 0.936034 0.072039
C47   C     C_R   0.494680 0.994002 0.565501 0.060125
C48   C     C_R   0.495728 0.989601 0.437914 0.081698
C49   C     C_R   0.029902 0.394486 0.425620 -0.082975
C50   C     C_R   0.905369 0.600079 0.573645 -0.085882
C51   C     C_R   0.974300 0.609797 0.929775 -0.090649
C52   C     C_R   0.987153 0.380288 0.071171 -0.070933
C53   C     C_R   0.544043 0.112671 0.074957 -0.062582
C54   C     C_R   0.451451 0.894844 0.926658 -0.087309
C55   C     C_R   0.406097 0.893839 0.572633 -0.061626
C56   C     C_R   0.557208 0.096147 0.430932 -0.081629
C57   C     C_R   0.953264 0.534256 0.481978 -0.030045
C58   C     C_R   0.019784 0.465006 0.517674 -0.031365
C59   C     C_R   0.999807 0.457345 0.981298 -0.015660
C60   C     C_R   0.010864 0.533593 0.019253 -0.018144
C61   C     C_R   0.518054 0.962176 0.018395 -0.034897
C62   C     C_R   0.511015 0.041336 0.982584 -0.032181
C63   C     C_R   0.533114 0.023975 0.520138 -0.018088
C64   C     C_R   0.457776 0.960300 0.483043 -0.012083
C65   C     C_R   0.112543 0.367037 0.504417 0.450834
C66   C     C_R   0.842076 0.624845 0.493411 0.443847
C67   C     C_R   0.034983 0.645766 0.009475 0.452719
C68   C     C_R   0.969300 0.345607 0.989966 0.453354
C69   C     C_R   0.515692 0.153415 0.994962 0.444145
C70   C     C_R   0.520045 0.849848 0.005176 0.462662
C71   C     C_R   0.334450 0.876621 0.492501 0.436986
C72   C     C_R   0.642104 0.115195 0.509760 0.447542
C73   C     C_R   0.095791 0.327350 0.460103 -0.202488
C74   C     C_R   0.824749 0.658021 0.537991 -0.209053
C75   C     C_R   0.996856 0.682638 0.966419 -0.177899
C76   C     C_R   0.970572 0.309433 0.033561 -0.211157
C77   C     C_R   0.559112 0.184605 0.038773 -0.216400
C78   C     C_R   0.468925 0.818536 0.961443 -0.214040
C79   C     C_R   0.317280 0.841268 0.536149 -0.182446
C80   C     C_R   0.635101 0.156800 0.466506 -0.173134
N1    N     N_2   0.903336 0.602236 0.699660 -0.538909
H17   H     H_    0.020648 0.590303 0.717798 0.236131
C81   C     C_3   0.738887 0.567026 0.721261 -0.462626
H18   H     H_    0.684527 0.635105 0.741927 0.188960
H19   H     H_    0.768413 0.501853 0.745667 0.230061
H20   H     H_    0.634764 0.538072 0.696362 0.185819
N2    N     N_2   0.979844 0.394142 0.300419 -0.525305
H21   H     H_    0.088803 0.419303 0.282173 0.246218
C82   C     C_3   0.805951 0.414994 0.278439 -0.497390
H22   H     H_    0.744500 0.336990 0.269048 0.189287
H23   H     H_    0.821796 0.463601 0.247671 0.219845
H24   H     H_    0.708783 0.458819 0.300488 0.197157
N3    N     N_2   0.045899 0.368892 0.197674 -0.540662
H25   H     H_    0.158743 0.404447 0.212330 0.232131
C83   C     C_3   0.005957 0.257614 0.211370 -0.502966
H26   H     H_    0.030160 0.248245 0.247705 0.199512
H27   H     H_    0.097377 0.196124 0.197095 0.223562
H28   H     H_    0.865330 0.235363 0.203000 0.215153
N4    N     N_2   0.959755 0.618540 0.803184 -0.527176
H29   H     H_    0.065903 0.583083 0.786049 0.226752
C84   C     C_3   0.949258 0.734107 0.794643 -0.534559
H30   H     H_    0.973841 0.747979 0.758670 0.183733
H31   H     H_    0.054260 0.776828 0.814872 0.260698
H32   H     H_    0.812128 0.767050 0.800841 0.216830
N5    N     N_2   0.382364 0.899556 0.801761 -0.525720
H33   H     H_    0.496867 0.906089 0.783011 0.232822
C85   C     C_3   0.220340 0.943046 0.780038 -0.430510
H34   H     H_    0.159207 0.879680 0.758303 0.177360
H35   H     H_    0.254474 0.005888 0.755371 0.226552
H36   H     H_    0.120063 0.974513 0.804909 0.186677
N6    N     N_2   0.455498 0.118548 0.201342 -0.538299
H37   H     H_    0.351042 0.073769 0.214303 0.241382
C86   C     C_3   0.446453 0.232402 0.215482 -0.571585
H38   H     H_    0.381648 0.241772 0.248870 0.196545
H39   H     H_    0.364454 0.280044 0.191926 0.237234
H40   H     H_    0.581918 0.266170 0.218605 0.205729
N7    N     N_2   0.543658 0.110695 0.306163 -0.528387
H41   H     H_    0.432070 0.089053 0.287004 0.249483
C87   C     C_3   0.713504 0.083487 0.284357 -0.463323
H42   H     H_    0.777467 0.159038 0.273395 0.191950
H43   H     H_    0.690381 0.030205 0.254175 0.212836
H44   H     H_    0.809561 0.039872 0.307216 0.195974
N8    N     N_2   0.457699 0.878657 0.699549 -0.533174
H45   H     H_    0.571949 0.907534 0.715968 0.220511
C88   C     C_3   0.418847 0.765800 0.710062 -0.513203
H46   H     H_    0.449183 0.749252 0.745850 0.182568
H47   H     H_    0.504042 0.710594 0.689819 0.235962
H48   H     H_    0.274266 0.746925 0.704900 0.218231
N9    N     N_2   0.995005 0.241089 0.371333 -0.521092
H49   H     H_    0.943172 0.194007 0.396618 0.263601
C89   C     C_3   0.122655 0.185664 0.342201 -0.463969
H50   H     H_    0.188791 0.118659 0.361108 0.202222
H51   H     H_    0.224093 0.242436 0.328787 0.225715
H52   H     H_    0.051457 0.148064 0.313070 0.173107
N10   N     N_2   0.836723 0.754749 0.626114 -0.522315
H53   H     H_    0.859429 0.804938 0.599218 0.261320
C90   C     C_3   0.879220 0.814771 0.667490 -0.508976
H54   H     H_    0.848628 0.903279 0.663047 0.191426
H55   H     H_    0.024036 0.807619 0.676202 0.199511
H56   H     H_    0.794901 0.787556 0.695408 0.234766
N11   N     N_2   0.818854 0.744541 0.883277 -0.528488
H57   H     H_    0.703933 0.736453 0.901948 0.278987
C91   C     C_3   0.895641 0.853491 0.888185 -0.552965
H58   H     H_    0.850748 0.904335 0.859372 0.202894
H59   H     H_    0.044737 0.851523 0.889436 0.217598
H60   H     H_    0.846631 0.894632 0.919526 0.212690
N12   N     N_2   0.963270 0.221734 0.120267 -0.535088
H61   H     H_    0.856712 0.190836 0.102151 0.281389
C92   C     C_3   0.117682 0.151732 0.113238 -0.581608
H62   H     H_    0.087025 0.067373 0.124190 0.226005
H63   H     H_    0.225924 0.184513 0.134129 0.243616
H64   H     H_    0.160891 0.148808 0.077568 0.213441
N13   N     N_2   0.569392 0.270361 0.128456 -0.551379
H65   H     H_    0.664617 0.295180 0.151816 0.281743
C93   C     C_3   0.451139 0.355733 0.110791 -0.535014
H66   H     H_    0.532996 0.414763 0.091730 0.227749
H67   H     H_    0.387277 0.402815 0.138736 0.196790
H68   H     H_    0.344800 0.321844 0.088033 0.223129
N14   N     N_2   0.338317 0.752784 0.872613 -0.532113
H69   H     H_    0.273458 0.714545 0.898349 0.253258
C94   C     C_3   0.435099 0.678727 0.842576 -0.484118
H70   H     H_    0.494103 0.609720 0.862002 0.196907
H71   H     H_    0.544763 0.720285 0.824920 0.215615
H72   H     H_    0.340182 0.644841 0.816804 0.198510
N15   N     N_2   0.311512 0.747840 0.622385 -0.544522
H73   H     H_    0.178120 0.749144 0.612802 0.265058
C95   C     C_3   0.405019 0.650546 0.605596 -0.528772
H74   H     H_    0.328459 0.576792 0.615080 0.211500
H75   H     H_    0.540677 0.643584 0.621022 0.228652
H76   H     H_    0.418195 0.649934 0.568379 0.217015
N16   N     N_2   0.485517 0.253005 0.385973 -0.536172
H77   H     H_    0.435201 0.289544 0.414920 0.278347
C96   C     C_3   0.576729 0.325994 0.356907 -0.501056
H78   H     H_    0.634312 0.395154 0.377175 0.205256
H79   H     H_    0.477842 0.359108 0.331993 0.187567
H80   H     H_    0.686808 0.282625 0.339241 0.270534
Cl1   Cl    Cl    0.277670 0.299184 0.537680 -0.679993
Cl2   Cl    Cl    0.689059 0.687430 0.455141 -0.691992
Cl3   Cl    Cl    0.135319 0.744096 0.046287 -0.675957
Cl4   Cl    Cl    0.900126 0.244640 0.949825 -0.688406
Cl5   Cl    Cl    0.430743 0.261041 0.961161 -0.661020
Cl6   Cl    Cl    0.617518 0.743903 0.037642 -0.668374
Cl7   Cl    Cl    0.169204 0.827756 0.453646 -0.688382
Cl8   Cl    Cl    0.809740 0.171815 0.546142 -0.670748

loop_
_geom_bond_atom_site_label_1
_geom_bond_atom_site_label_2
_ccdc_geom_bond_type
C48   C64   A    
C83   H28   S    
C6    C11   S    
C48   C56   A    
O9    V1    S    
C61   C62   A    
C94   H71   S    
N9    H49   S    
C18   N10   S    
C1    C16   S    
C71   Cl7   S    
C89   H50   S    
C13   C29   A    
C2    C15   S    
H2    C74   S    
C39   C47   A    
O4    C1    A    
C17   C49   A    
C3    C14   S    
O9    C1    A    
C81   H18   S    
N10   C90   S    
C96   H78   S    
C82   H23   S    
C59   C68   A    
C89   H51   S    
C88   H46   S    
C58   C65   A    
C31   N8    S    
C66   C74   A    
O8    C5    A    
C25   N2    S    
O13   C5    A    
C28   N3    S    
C85   H35   S    
C11   C35   A    
C22   N14   S    
O11   V2    S    
C91   H59   S    
H7    C79   S    
C21   C53   A    
C81   H19   S    
H4    C76   S    
C23   C55   A    
O3    V4    S    
C16   C32   A    
C95   H75   S    
C22   C30   A    
C71   C79   A    
C94   H70   S    
C92   H63   S    
O8    V1    S    
H5    C77   S    
C46   C54   A    
C19   C27   A    
C45   C53   A    
C18   C26   A    
N7    H41   S    
C85   H34   S    
C51   C75   A    
N13   C93   S    
C47   C55   A    
O10   V2    S    
O1    C4    A    
N6    H37   S    
C87   H43   S    
C24   N16   S    
O2    C3    A    
N15   H73   S    
O11   C3    A    
C86   H39   S    
C27   N4    S    
C72   Cl8   S    
C12   C28   A    
C93   H68   S    
C41   C49   A    
C38   C46   A    
C24   C32   A    
O6    C7    A    
C37   C45   A    
N14   H69   S    
N7    C87   S    
O7    C6    A    
C43   C59   A    
N6    C86   S    
C42   C58   A    
C36   C44   A    
C53   C77   A    
O15   V4    S    
C34   C42   A    
C82   H24   S    
O16   V3    S    
C33   C41   A    
N5    C85   S    
O20   V2    S    
C57   C58   A    
C17   N9    S    
C20   C52   A    
C5    C12   S    
C89   H52   S    
C49   C73   A    
H11   C36   S    
H8    C80   S    
N12   C92   S    
H1    C73   S    
C95   H74   S    
C44   C60   A    
O7    V2    S    
C83   H26   S    
C85   H36   S    
H16   C39   S    
C24   C56   A    
C84   H32   S    
C72   C80   A    
O1    V3    S    
C81   H20   S    
O14   V4    S    
C55   C79   A    
C61   C70   A    
N11   H57   S    
O5    V1    S    
O5    C8    A    
C32   N7    S    
C63   C72   A    
C84   H31   S    
C29   N6    S    
C69   C77   A    
C92   H64   S    
C13   C37   A    
C91   H58   S    
N2    C82   S    
N16   H77   S    
H12   C35   S    
C70   Cl6   S    
C95   H76   S    
C15   C39   A    
C87   H42   S    
C14   C30   A    
H3    C75   S    
C16   C40   A    
C4    C13   S    
C90   H56   S    
C26   N1    S    
O10   C2    A    
O17   V3    S    
C87   H44   S    
C30   N5    S    
O18   V4    S    
N4    C84   S    
C86   H40   S    
C70   C78   A    
O19   V1    S    
C67   C75   A    
N1    H17   S    
C23   C31   A    
C9    C25   A    
C18   C50   A    
C47   C63   A    
C57   C66   A    
N16   C96   S    
O12   C4    A    
C90   H54   S    
C88   H48   S    
C65   Cl1   S    
C22   C54   A    
N3    H25   S    
C94   H72   S    
C67   Cl3   S    
C91   H60   S    
C7    C10   S    
N2    H21   S    
C46   C62   A    
C21   N13   S    
N5    H33   S    
C45   C61   A    
O13   V3    S    
C82   H22   S    
C19   C51   A    
C96   H80   S    
C21   C29   A    
C83   H27   S    
H6    C78   S    
C60   C67   A    
O6    V2    S    
N8    C88   S    
C56   C80   A    
O3    C2    A    
C69   Cl5   S    
C17   C25   A    
O12   V1    S    
C12   C36   A    
C65   C73   A    
C64   C71   A    
N4    H29   S    
C10   C26   A    
O15   C7    A    
H14   C37   S    
O16   C8    A    
C43   C51   A    
H13   C38   S    
C42   C50   A    
C59   C60   A    
C19   N11   S    
O2    V4    S    
H15   C40   S    
C68   C76   A    
C10   C34   A    
C96   H79   S    
O14   C6    A    
N12   H61   S    
C40   C48   A    
N10   H53   S    
C84   H30   S    
C68   Cl4   S    
C20   N12   S    
C54   C78   A    
C35   C43   A    
C11   C27   A    
C41   C57   A    
C90   H55   S    
C9    C33   A    
C50   C74   A    
C92   H62   S    
N14   C94   S    
C8    C9    S    
N1    C81   S    
N8    H45   S    
H10   C33   S    
C93   H66   S    
C66   Cl2   S    
H9    C34   S    
N11   C91   S    
C20   C28   A    
C88   H47   S    
N13   H65   S    
C23   N15   S    
C63   C64   A    
N3    C83   S    
C62   C69   A    
C44   C52   A    
C14   C38   A    
C86   H38   S    
N15   C95   S    
O4    V3    S    
C15   C31   A    
C93   H67   S    
N9    C89   S    
C52   C76   A    
