data_mof_unit_60316.cif
_audit_creation_date              2013-03-05T16:11:54-0500
_audit_creation_method            fapswitch 2.2
_symmetry_space_group_name_H-M    P1
_symmetry_Int_Tables_number       1
_space_group_crystal_system       triclinic
_cell_length_a                    18.128696
_cell_length_b                    18.186366
_cell_length_c                    51.344429
_cell_angle_alpha                 89.999831
_cell_angle_beta                  89.985751
_cell_angle_gamma                 89.985363
_cell_volume                      16928.0056064

loop_
_atom_site_label
_atom_site_type_symbol
_atom_site_description
_atom_site_fract_x
_atom_site_fract_y
_atom_site_fract_z
_atom_type_partial_charge
Zn1   Zn    Zn3+2 0.088070 0.500110 0.728590 1.066573
Zn2   Zn    Zn3+2 0.911930 0.499890 0.271410 1.066282
Zn3   Zn    Zn3+2 0.499890 0.088070 0.728590 1.071107
Zn4   Zn    Zn3+2 0.500110 0.911930 0.271410 1.087861
Zn5   Zn    Zn3+2 0.911930 0.499890 0.728590 1.072733
Zn6   Zn    Zn3+2 0.088070 0.500110 0.271410 1.066173
Zn7   Zn    Zn3+2 0.500110 0.911930 0.728590 1.075988
Zn8   Zn    Zn3+2 0.499890 0.088070 0.271410 1.091700
Zn9   Zn    Zn3+2 0.588070 0.000110 0.228590 1.056326
Zn10  Zn    Zn3+2 0.411930 0.999890 0.771410 1.061043
Zn11  Zn    Zn3+2 0.999890 0.588070 0.228590 1.085454
Zn12  Zn    Zn3+2 0.000110 0.411930 0.771410 1.068217
Zn13  Zn    Zn3+2 0.411930 0.999890 0.228590 1.059374
Zn14  Zn    Zn3+2 0.588070 0.000110 0.771410 1.067404
Zn15  Zn    Zn3+2 0.000110 0.411930 0.228590 1.087945
Zn16  Zn    Zn3+2 0.999890 0.588070 0.771410 1.072796
O1    O     O_3   0.000000 0.500000 0.750000 -0.550272
O2    O     O_3   0.000000 0.500000 0.250000 -0.555880
O3    O     O_3   0.500000 0.000000 0.750000 -0.547216
O4    O     O_3   0.500000 1.000000 0.250000 -0.551540
O5    O     O_R   0.000220 0.561630 0.808380 -0.624927
O6    O     O_R   0.999780 0.438370 0.191620 -0.618304
O7    O     O_R   0.438370 0.000220 0.808380 -0.645552
O8    O     O_R   0.561630 0.999780 0.191620 -0.643313
O9    O     O_R   0.999780 0.438370 0.808380 -0.631122
O10   O     O_R   0.000220 0.561630 0.191620 -0.619291
O11   O     O_R   0.561630 0.999780 0.808380 -0.640658
O12   O     O_R   0.438370 0.000220 0.191620 -0.644757
O13   O     O_R   0.500220 0.061630 0.308380 -0.618740
O14   O     O_R   0.499780 0.938370 0.691620 -0.624924
O15   O     O_R   0.938370 0.500220 0.308380 -0.623982
O16   O     O_R   0.061630 0.499780 0.691620 -0.632558
O17   O     O_R   0.499780 0.938370 0.308380 -0.619132
O18   O     O_R   0.500220 0.061630 0.691620 -0.631119
O19   O     O_R   0.061630 0.499780 0.308380 -0.623729
O20   O     O_R   0.938370 0.500220 0.691620 -0.627389
O21   O     O_R   0.086770 0.352080 0.765560 -0.603032
O22   O     O_R   0.913230 0.647920 0.234440 -0.591569
O23   O     O_R   0.647920 0.086770 0.765560 -0.596229
O24   O     O_R   0.352080 0.913230 0.234440 -0.609217
O25   O     O_R   0.913230 0.647920 0.765560 -0.592671
O26   O     O_R   0.086770 0.352080 0.234440 -0.590923
O27   O     O_R   0.352080 0.913230 0.765560 -0.605801
O28   O     O_R   0.647920 0.086770 0.234440 -0.612273
O29   O     O_R   0.586770 0.852080 0.265560 -0.591771
O30   O     O_R   0.413230 0.147920 0.734440 -0.602544
O31   O     O_R   0.147920 0.586770 0.265560 -0.604429
O32   O     O_R   0.852080 0.413230 0.734440 -0.592989
O33   O     O_R   0.413230 0.147920 0.265560 -0.592405
O34   O     O_R   0.586770 0.852080 0.734440 -0.592236
O35   O     O_R   0.852080 0.413230 0.265560 -0.605182
O36   O     O_R   0.147920 0.586770 0.734440 -0.603070
O37   O     O_R   0.852120 0.586630 0.735130 -0.639327
O38   O     O_R   0.147880 0.413370 0.264870 -0.642023
O39   O     O_R   0.413370 0.852120 0.735130 -0.634059
O40   O     O_R   0.586630 0.147880 0.264870 -0.615263
O41   O     O_R   0.147880 0.413370 0.735130 -0.635312
O42   O     O_R   0.852120 0.586630 0.264870 -0.641578
O43   O     O_R   0.586630 0.147880 0.735130 -0.636295
O44   O     O_R   0.413370 0.852120 0.264870 -0.617143
O45   O     O_R   0.352120 0.086630 0.235130 -0.631777
O46   O     O_R   0.647880 0.913370 0.764870 -0.640907
O47   O     O_R   0.913370 0.352120 0.235130 -0.616240
O48   O     O_R   0.086630 0.647880 0.764870 -0.634803
O49   O     O_R   0.647880 0.913370 0.235130 -0.638268
O50   O     O_R   0.352120 0.086630 0.764870 -0.637584
O51   O     O_R   0.086630 0.647880 0.235130 -0.619910
O52   O     O_R   0.913370 0.352120 0.764870 -0.637079
C1    C     C_R   0.000005 0.499998 0.820677 0.849355
C2    C     C_R   0.000071 0.500006 0.179297 0.855791
C3    C     C_R   0.499966 0.000209 0.820907 0.884220
C4    C     C_R   0.499923 0.999242 0.179124 0.853308
C5    C     C_R   0.499926 0.999994 0.320701 0.854913
C6    C     C_R   0.499994 0.000002 0.679324 0.848474
C7    C     C_R   0.999992 0.500005 0.320688 0.839772
C8    C     C_R   0.000006 0.500019 0.679245 0.856558
C9    C     C_R   0.141491 0.358524 0.750237 0.962787
C10   C     C_R   0.858372 0.641272 0.249657 0.970139
C11   C     C_R   0.641317 0.141594 0.750388 0.980687
C12   C     C_R   0.358743 0.858279 0.249467 0.949764
C13   C     C_R   0.858367 0.641267 0.750352 0.977119
C14   C     C_R   0.141618 0.358722 0.249657 0.970052
C15   C     C_R   0.358480 0.858541 0.750281 0.964808
C16   C     C_R   0.641314 0.141687 0.249496 0.959097
C17   C     C_R   0.641664 0.858750 0.250362 0.975031
C18   C     C_R   0.358495 0.141466 0.749757 0.964998
C19   C     C_R   0.141161 0.641799 0.250550 0.959133
C20   C     C_R   0.858696 0.358397 0.749608 0.978559
C21   C     C_R   0.358343 0.141253 0.250362 0.977214
C22   C     C_R   0.641650 0.858745 0.749640 0.979559
C23   C     C_R   0.858866 0.358200 0.250587 0.958182
C24   C     C_R   0.141508 0.641469 0.749714 0.962583
C25   C     C_3   0.195315 0.768973 0.767070 -0.288159
C26   C     C_3   0.818395 0.217955 0.251203 -0.300703
C27   C     C_3   0.230896 0.195934 0.767240 -0.291641
C28   C     C_3   0.767776 0.803251 0.232324 -0.315054
C29   C     C_3   0.803677 0.232553 0.767615 -0.318036
C30   C     C_3   0.181656 0.782063 0.249418 -0.295209
C31   C     C_3   0.767750 0.803305 0.767666 -0.318715
C32   C     C_3   0.232282 0.196765 0.232313 -0.310997
C33   C     C_3   0.682085 0.281824 0.249078 -0.299625
C34   C     C_3   0.304643 0.731058 0.732916 -0.287088
C35   C     C_3   0.732311 0.696775 0.267725 -0.317163
C36   C     C_3   0.269065 0.304038 0.732744 -0.290069
C37   C     C_3   0.317967 0.718237 0.250620 -0.308977
C38   C     C_3   0.696366 0.267417 0.732373 -0.315830
C39   C     C_3   0.267622 0.303198 0.267738 -0.317343
C40   C     C_3   0.732296 0.696718 0.732314 -0.316926
C41   C     C_3   0.219828 0.813179 0.742827 0.219240
C42   C     C_3   0.755693 0.209314 0.271424 0.233070
C43   C     C_3   0.186429 0.220074 0.742988 0.222841
C44   C     C_3   0.814314 0.779596 0.256169 0.232912
C45   C     C_3   0.779970 0.186044 0.743799 0.222771
C46   C     C_3   0.241465 0.793365 0.270525 0.242233
C47   C     C_3   0.814291 0.779592 0.743821 0.221971
C48   C     C_3   0.185669 0.220377 0.256153 0.232921
C49   C     C_3   0.744755 0.290420 0.228841 0.234758
C50   C     C_3   0.280134 0.686853 0.757161 0.219628
C51   C     C_3   0.685767 0.720423 0.243882 0.234857
C52   C     C_3   0.313534 0.279904 0.756996 0.221700
C53   C     C_3   0.258209 0.706915 0.229470 0.235324
C54   C     C_3   0.720069 0.313924 0.756190 0.223683
C55   C     C_3   0.314241 0.279594 0.243900 0.234634
C56   C     C_3   0.685753 0.720426 0.756159 0.221360
H1    H     H_    0.151062 0.784597 0.780959 0.235485
H2    H     H_    0.873762 0.191989 0.252171 0.250690
H3    H     H_    0.215207 0.152194 0.781269 0.233127
H4    H     H_    0.782771 0.846170 0.217889 0.233908
H5    H     H_    0.846947 0.217796 0.781993 0.230257
H6    H     H_    0.126266 0.808088 0.248964 0.245116
H7    H     H_    0.782716 0.846272 0.782085 0.227881
H8    H     H_    0.217338 0.153861 0.217868 0.236483
H9    H     H_    0.626740 0.307839 0.248116 0.250665
H10   H     H_    0.348897 0.715433 0.719027 0.236168
H11   H     H_    0.717336 0.653856 0.282163 0.235090
H12   H     H_    0.284759 0.347776 0.718715 0.235593
H13   H     H_    0.373397 0.692284 0.251043 0.251432
H14   H     H_    0.653097 0.282174 0.717995 0.231100
H15   H     H_    0.282548 0.346098 0.282186 0.234761
H16   H     H_    0.717328 0.653751 0.717896 0.230393
C57   C     C_3   0.301423 0.801937 0.749856 -0.252917
C58   C     C_3   0.698661 0.198041 0.249650 -0.259265
C59   C     C_3   0.198139 0.301521 0.749778 -0.252701
C60   C     C_3   0.801588 0.698015 0.249884 -0.241165
C61   C     C_3   0.698132 0.198328 0.750205 -0.241060
C62   C     C_3   0.301344 0.802009 0.249591 -0.257504
C63   C     C_3   0.801583 0.698020 0.750138 -0.239371
C64   C     C_3   0.198396 0.301970 0.249883 -0.241229
C65   C     C_3   0.801780 0.301695 0.250588 -0.259815
C66   C     C_3   0.198541 0.698092 0.750131 -0.251122
C67   C     C_3   0.698485 0.802017 0.250164 -0.241487
C68   C     C_3   0.301829 0.198454 0.750206 -0.252496
C69   C     C_3   0.198290 0.698315 0.250423 -0.259388
C70   C     C_3   0.801906 0.301643 0.749785 -0.239471
C71   C     C_3   0.301523 0.197988 0.250165 -0.243111
C72   C     C_3   0.698455 0.802003 0.749843 -0.239684
C73   C     C_3   0.277805 0.756781 0.773643 0.230783
C74   C     C_3   0.760277 0.207882 0.229405 0.256421
C75   C     C_3   0.243544 0.278253 0.773575 0.233781
C76   C     C_3   0.754125 0.720863 0.226482 0.235065
C77   C     C_3   0.721028 0.245769 0.773577 0.237023
C78   C     C_3   0.242625 0.789552 0.228458 0.249204
C79   C     C_3   0.754118 0.720933 0.773543 0.239501
C80   C     C_3   0.245933 0.279164 0.226487 0.233933
C81   C     C_3   0.740267 0.291884 0.270873 0.245813
C82   C     C_3   0.222151 0.743250 0.726344 0.232582
C83   C     C_3   0.745953 0.779160 0.273568 0.234315
C84   C     C_3   0.256420 0.221719 0.726409 0.232924
C85   C     C_3   0.256899 0.710854 0.271538 0.243616
C86   C     C_3   0.779019 0.254201 0.726412 0.238857
C87   C     C_3   0.253979 0.220802 0.273565 0.234032
C88   C     C_3   0.745925 0.779089 0.726437 0.239492
C89   C     C_R   0.491569 0.931987 0.945235 0.634452
C90   C     C_R   0.486557 0.059315 0.054866 0.631818
C91   C     C_R   0.035238 0.444075 0.945128 0.636725
C92   C     C_R   0.967348 0.556765 0.054775 0.636109
C93   C     C_R   0.499157 0.063275 0.945859 0.634341
C94   C     C_R   0.500189 0.928505 0.054339 0.634084
C95   C     C_R   0.967043 0.556569 0.945133 0.636773
C96   C     C_R   0.035945 0.444514 0.054772 0.635964
C97   C     C_R   0.941753 0.469385 0.445055 0.636920
C98   C     C_R   0.058169 0.531173 0.554652 0.638312
C99   C     C_R   0.532136 0.942976 0.445223 0.636081
C100  C     C_R   0.465022 0.056119 0.554873 0.636809
C101  C     C_R   0.058077 0.531234 0.445038 0.636952
C102  C     C_R   0.941672 0.469633 0.554669 0.638187
C103  C     C_R   0.464291 0.055680 0.445227 0.636223
C104  C     C_R   0.532494 0.943193 0.554867 0.636768
N1    N     N_R   0.495981 0.998092 0.932560 -0.335348
N2    N     N_R   0.493940 0.993550 0.067589 -0.336052
N3    N     N_R   0.001025 0.500252 0.932081 -0.331074
N4    N     N_R   0.001604 0.500617 0.067819 -0.332728
N5    N     N_R   0.999923 0.500283 0.432010 -0.331700
N6    N     N_R   0.999932 0.500393 0.567698 -0.329447
N7    N     N_R   0.498259 0.999353 0.432179 -0.332562
N8    N     N_R   0.498883 0.999730 0.567920 -0.331059
C105  C     C_R   0.495015 0.063792 0.973033 -0.041708
C106  C     C_R   0.496953 0.927765 0.027137 -0.041665
C107  C     C_R   0.966392 0.557777 0.972473 -0.040415
C108  C     C_R   0.036681 0.443355 0.027430 -0.039610
C109  C     C_R   0.493370 0.929543 0.972437 -0.042158
C110  C     C_R   0.489099 0.061799 0.027685 -0.039954
C111  C     C_R   0.036309 0.443125 0.972469 -0.040357
C112  C     C_R   0.966578 0.557897 0.027434 -0.039963
C113  C     C_R   0.059277 0.531932 0.472371 -0.040369
C114  C     C_R   0.940450 0.468982 0.527336 -0.039019
C115  C     C_R   0.463561 0.056841 0.472569 -0.040219
C116  C     C_R   0.533115 0.941970 0.527526 -0.040696
C117  C     C_R   0.940533 0.468776 0.472389 -0.040346
C118  C     C_R   0.059363 0.531826 0.527318 -0.039299
C119  C     C_R   0.532901 0.941839 0.472564 -0.040236
C120  C     C_R   0.463948 0.057072 0.527532 -0.040909
C121  C     C_R   0.493735 0.996188 0.986385 -0.004077
C122  C     C_R   0.493143 0.995241 0.013760 -0.003803
C123  C     C_R   0.001440 0.500506 0.986195 0.000113
C124  C     C_R   0.001582 0.500595 0.013709 0.000082
C125  C     C_R   0.999903 0.500371 0.486100 -0.000260
C126  C     C_R   0.999903 0.500396 0.513607 0.000582
C127  C     C_R   0.498282 0.999372 0.486290 -0.000063
C128  C     C_R   0.498435 0.999464 0.513805 0.000004
C129  C     C_R   0.492413 0.129946 0.987097 -0.092291
C130  C     C_R   0.498021 0.861577 0.013063 -0.092460
C131  C     C_R   0.931749 0.614704 0.986363 -0.093829
C132  C     C_R   0.071359 0.386449 0.013541 -0.094208
C133  C     C_R   0.494951 0.862431 0.985946 -0.091431
C134  C     C_R   0.488164 0.128926 0.014184 -0.092065
C135  C     C_R   0.071150 0.386320 0.986353 -0.094062
C136  C     C_R   0.931817 0.614749 0.013550 -0.093687
C137  C     C_R   0.118246 0.563192 0.486243 -0.093475
C138  C     C_R   0.881504 0.437680 0.513463 -0.095116
C139  C     C_R   0.429263 0.113973 0.486459 -0.093474
C140  C     C_R   0.567373 0.884814 0.513636 -0.093749
C141  C     C_R   0.881558 0.437554 0.486279 -0.093477
C142  C     C_R   0.118301 0.563116 0.513427 -0.094873
C143  C     C_R   0.567289 0.884762 0.486448 -0.093550
C144  C     C_R   0.429478 0.114101 0.513647 -0.093605
O53   O     O_2   0.485420 0.869007 0.931505 -0.471048
O54   O     O_2   0.477023 0.121978 0.068544 -0.475837
O55   O     O_2   0.067759 0.389226 0.931655 -0.481155
O56   O     O_2   0.934445 0.611378 0.068253 -0.481330
O57   O     O_2   0.506571 0.127209 0.932773 -0.472331
O58   O     O_2   0.510026 0.864996 0.067481 -0.473386
O59   O     O_2   0.934324 0.611297 0.931663 -0.481963
O60   O     O_2   0.068852 0.389909 0.068246 -0.481543
O61   O     O_2   0.885219 0.439715 0.431583 -0.480210
O62   O     O_2   0.114459 0.561299 0.568125 -0.484451
O63   O     O_2   0.564673 0.888146 0.431745 -0.481223
O64   O     O_2   0.432856 0.111174 0.568346 -0.480553
O65   O     O_2   0.114621 0.560861 0.431548 -0.480088
O66   O     O_2   0.885395 0.439505 0.568158 -0.485835
O67   O     O_2   0.431751 0.110505 0.431754 -0.481091
O68   O     O_2   0.564875 0.888265 0.568337 -0.481422
H17   H     H_    0.492780 0.182581 0.977226 0.213139
H18   H     H_    0.500420 0.809010 0.022943 0.213065
H19   H     H_    0.904428 0.659371 0.976282 0.210659
H20   H     H_    0.098717 0.341805 0.023622 0.209897
H21   H     H_    0.495085 0.810497 0.975620 0.213333
H22   H     H_    0.485481 0.180808 0.024500 0.213112
H23   H     H_    0.098361 0.341585 0.976269 0.210545
H24   H     H_    0.904543 0.659446 0.023635 0.210225
H25   H     H_    0.164548 0.587788 0.476152 0.210489
H26   H     H_    0.835163 0.413156 0.523554 0.209930
H27   H     H_    0.402200 0.158796 0.476379 0.210682
H28   H     H_    0.594403 0.839970 0.523717 0.210936
H29   H     H_    0.835257 0.412938 0.476202 0.210489
H30   H     H_    0.164644 0.587655 0.523504 0.210077
H31   H     H_    0.594263 0.839884 0.476363 0.210625
H32   H     H_    0.402566 0.159016 0.523732 0.211093
C145  C     C_R   0.957501 0.552512 0.609301 0.330576
C146  C     C_R   0.980043 0.564427 0.390427 0.335199
C147  C     C_R   0.563164 0.021467 0.609420 0.334920
C148  C     C_R   0.435399 0.976895 0.390463 0.337261
C149  C     C_R   0.042481 0.448058 0.609242 0.329736
C150  C     C_R   0.019867 0.435932 0.390467 0.335247
C151  C     C_R   0.435391 0.978416 0.609605 0.335893
C152  C     C_R   0.562223 0.022468 0.390724 0.337098
C153  C     C_R   0.437872 0.961992 0.109511 0.335586
C154  C     C_R   0.437146 0.028286 0.891046 0.337338
C155  C     C_R   0.064335 0.523564 0.109522 0.338009
C156  C     C_R   0.936898 0.478176 0.890575 0.335033
C157  C     C_R   0.556814 0.024697 0.108270 0.337280
C158  C     C_R   0.558917 0.971165 0.891471 0.337785
C159  C     C_R   0.937855 0.477062 0.109282 0.337724
C160  C     C_R   0.064429 0.521931 0.890404 0.336132
C161  C     C_R   0.958911 0.554024 0.636779 -0.029146
C162  C     C_R   0.978526 0.564293 0.362948 -0.025182
C163  C     C_R   0.563379 0.022965 0.636908 -0.030745
C164  C     C_R   0.435943 0.975553 0.362971 -0.051728
C165  C     C_R   0.041106 0.446356 0.636719 -0.020655
C166  C     C_R   0.021418 0.435927 0.362988 -0.024981
C167  C     C_R   0.435721 0.977078 0.637093 -0.026775
C168  C     C_R   0.562485 0.024219 0.363241 -0.054371
C169  C     C_R   0.439738 0.961044 0.136906 -0.048229
C170  C     C_R   0.438502 0.031616 0.863678 -0.019274
C171  C     C_R   0.063822 0.524905 0.137013 -0.052968
C172  C     C_R   0.936708 0.476692 0.863087 -0.030930
C173  C     C_R   0.558111 0.028442 0.135634 -0.061143
C174  C     C_R   0.560059 0.969725 0.864061 -0.019574
C175  C     C_R   0.937627 0.475335 0.136765 -0.053496
C176  C     C_R   0.064119 0.523266 0.862917 -0.026985
C177  C     C_R   0.000011 0.500134 0.650482 -0.072076
C178  C     C_R   0.999974 0.500073 0.349336 -0.057372
C179  C     C_R   0.499706 0.000005 0.650648 -0.064659
C180  C     C_R   0.499444 0.999946 0.349424 -0.065260
C181  C     C_R   0.499348 0.996222 0.150198 -0.087734
C182  C     C_R   0.499636 0.000635 0.849894 -0.091597
C183  C     C_R   0.000515 0.500056 0.150573 -0.065861
C184  C     C_R   0.000270 0.499994 0.849353 -0.065315
C185  C     C_R   0.999977 0.500327 0.595710 0.017580
C186  C     C_R   0.999944 0.500214 0.404001 0.015661
C187  C     C_R   0.499148 0.999880 0.595947 0.015856
C188  C     C_R   0.498624 0.999559 0.404156 0.022609
C189  C     C_R   0.496329 0.993113 0.095483 0.023395
C190  C     C_R   0.497345 0.999130 0.904658 0.015877
C191  C     C_R   0.001268 0.500426 0.095841 0.022549
C192  C     C_R   0.000783 0.500110 0.904054 0.015817
N9    N     N_R   0.185443 0.881617 0.734371 0.251396
O69   O     O_R   0.114647 0.883974 0.730404 -0.219671
O70   O     O_R   0.224901 0.940362 0.730612 -0.339459
N10   N     N_R   0.762747 0.165396 0.295036 0.251067
O71   O     O_R   0.814049 0.180855 0.311856 -0.262805
O72   O     O_R   0.722454 0.107034 0.298345 -0.395645
N11   N     N_R   0.117569 0.185929 0.734693 0.251758
O73   O     O_R   0.114876 0.115277 0.730936 -0.222112
O74   O     O_R   0.058801 0.225460 0.730847 -0.343522
N12   N     N_R   0.883725 0.814209 0.263605 0.253180
O75   O     O_R   0.885863 0.884682 0.267804 -0.267318
O76   O     O_R   0.943068 0.775116 0.266856 -0.369823
N13   N     N_R   0.815012 0.117017 0.736327 0.253529
O77   O     O_R   0.885684 0.115226 0.732043 -0.232431
O78   O     O_R   0.776102 0.057639 0.733166 -0.339320
N14   N     N_R   0.231332 0.840089 0.293314 0.251512
O79   O     O_R   0.177311 0.827168 0.309331 -0.259553
O80   O     O_R   0.272699 0.897613 0.296825 -0.389444
N15   N     N_R   0.883682 0.814236 0.736361 0.254206
O81   O     O_R   0.885787 0.884711 0.732158 -0.231563
O82   O     O_R   0.943051 0.775175 0.733109 -0.332040
N16   N     N_R   0.116245 0.185736 0.263568 0.253937
O83   O     O_R   0.114113 0.115257 0.267755 -0.263677
O84   O     O_R   0.056878 0.224807 0.266809 -0.370976
N17   N     N_R   0.737605 0.334302 0.205218 0.251853
O85   O     O_R   0.686017 0.319017 0.188488 -0.265095
O86   O     O_R   0.778055 0.392520 0.201828 -0.395863
N18   N     N_R   0.314523 0.618417 0.765617 0.252051
O87   O     O_R   0.385325 0.616055 0.769570 -0.218073
O88   O     O_R   0.275063 0.559682 0.769392 -0.338374
N19   N     N_R   0.616373 0.685745 0.236465 0.254880
O89   O     O_R   0.614311 0.615284 0.232236 -0.266148
O90   O     O_R   0.556906 0.724733 0.233340 -0.364564
N20   N     N_R   0.382387 0.314082 0.765280 0.252888
O91   O     O_R   0.385034 0.384728 0.769056 -0.220308
O92   O     O_R   0.441229 0.274607 0.769055 -0.338135
N21   N     N_R   0.268932 0.659521 0.206882 0.261253
O93   O     O_R   0.324949 0.670378 0.191536 -0.265447
O94   O     O_R   0.226597 0.602822 0.203139 -0.390200
N22   N     N_R   0.685022 0.382947 0.763664 0.254355
O95   O     O_R   0.614347 0.384734 0.767943 -0.230396
O96   O     O_R   0.723929 0.442320 0.766839 -0.338028
N23   N     N_R   0.383648 0.314300 0.236502 0.255000
O97   O     O_R   0.385700 0.384766 0.232282 -0.265711
O98   O     O_R   0.443137 0.275334 0.233387 -0.363256
N24   N     N_R   0.616372 0.685747 0.763610 0.255342
O99   O     O_R   0.614310 0.615279 0.767831 -0.229667
O100  O     O_R   0.556936 0.724751 0.766793 -0.326974
N25   N     N_R   0.310083 0.763964 0.799490 0.241774
O101  O     O_R   0.268747 0.780730 0.819319 -0.322383
O102  O     O_R   0.380637 0.754956 0.802750 -0.291864
N26   N     N_R   0.770899 0.162606 0.206318 0.254827
O103  O     O_R   0.831623 0.125537 0.203257 -0.305857
O104  O     O_R   0.720168 0.159981 0.188471 -0.347947
N27   N     N_R   0.236728 0.311048 0.799345 0.243542
O105  O     O_R   0.220079 0.270341 0.819316 -0.318557
O106  O     O_R   0.245914 0.381434 0.802395 -0.306692
N28   N     N_R   0.755645 0.689101 0.200416 0.256752
O107  O     O_R   0.712717 0.715503 0.182415 -0.284166
O108  O     O_R   0.797898 0.633270 0.195145 -0.352674
N29   N     N_R   0.689529 0.244104 0.799696 0.255725
O109  O     O_R   0.715947 0.287114 0.817644 -0.302427
O110  O     O_R   0.634006 0.201497 0.805083 -0.339628
N30   N     N_R   0.234102 0.833739 0.204944 0.236789
O111  O     O_R   0.240707 0.803904 0.182053 -0.314077
O112  O     O_R   0.214820 0.902414 0.206799 -0.315996
N31   N     N_R   0.755632 0.689292 0.799626 0.257228
O113  O     O_R   0.712817 0.715884 0.817634 -0.293542
O114  O     O_R   0.797792 0.633408 0.804908 -0.352543
N32   N     N_R   0.244479 0.310966 0.200427 0.257342
O115  O     O_R   0.287464 0.284602 0.182428 -0.282141
O116  O     O_R   0.202230 0.366797 0.195160 -0.352030
N33   N     N_R   0.730197 0.337265 0.293986 0.255282
O117  O     O_R   0.669173 0.373636 0.297341 -0.299880
O118  O     O_R   0.782182 0.341606 0.311364 -0.296976
N34   N     N_R   0.189853 0.736069 0.700499 0.242526
O119  O     O_R   0.231198 0.719427 0.680659 -0.318013
O120  O     O_R   0.119278 0.744958 0.697250 -0.301327
N35   N     N_R   0.744470 0.810871 0.299642 0.258105
O121  O     O_R   0.787444 0.784450 0.317627 -0.298226
O122  O     O_R   0.702156 0.866636 0.304939 -0.351902
N36   N     N_R   0.263218 0.188919 0.700639 0.242324
O123  O     O_R   0.279786 0.229632 0.680661 -0.315626
O124  O     O_R   0.254033 0.118532 0.697593 -0.308216
N37   N     N_R   0.263710 0.668427 0.295486 0.254840
O125  O     O_R   0.324234 0.632750 0.300486 -0.300404
O126  O     O_R   0.209231 0.665928 0.311942 -0.300718
N38   N     N_R   0.810563 0.255860 0.700299 0.257086
O127  O     O_R   0.784117 0.212909 0.682339 -0.302272
O128  O     O_R   0.866255 0.298284 0.694945 -0.344496
N39   N     N_R   0.255396 0.189052 0.299632 0.258447
O129  O     O_R   0.212366 0.215435 0.317615 -0.298516
O130  O     O_R   0.297708 0.133288 0.304926 -0.351048
N40   N     N_R   0.744436 0.810714 0.700352 0.258311
O131  O     O_R   0.787323 0.784161 0.682357 -0.298939
O132  O     O_R   0.702223 0.866548 0.695055 -0.352538
N41   N     N_R   0.912400 0.603348 0.594984 0.220646
O133  O     O_R   0.940945 0.643614 0.576624 -0.328235
O134  O     O_R   0.841621 0.605866 0.599103 -0.300767
N42   N     N_R   0.962103 0.629672 0.404812 0.217731
O135  O     O_R   0.909359 0.628657 0.421993 -0.329402
O136  O     O_R   0.003867 0.687590 0.402892 -0.282584
N43   N     N_R   0.627857 0.041231 0.594918 0.217227
O137  O     O_R   0.687082 0.001101 0.596638 -0.282494
O138  O     O_R   0.625013 0.093755 0.577747 -0.332738
N44   N     N_R   0.370720 0.955858 0.404744 0.216143
O139  O     O_R   0.374015 0.903071 0.421802 -0.329139
O140  O     O_R   0.310902 0.995073 0.402941 -0.281418
N45   N     N_R   0.087562 0.397320 0.594866 0.220341
O141  O     O_R   0.058976 0.357126 0.576500 -0.329123
O142  O     O_R   0.158355 0.394818 0.598943 -0.298466
N46   N     N_R   0.037792 0.370761 0.404894 0.217737
O143  O     O_R   0.090507 0.371868 0.422075 -0.329510
O144  O     O_R   0.996045 0.312825 0.403006 -0.283023
N47   N     N_R   0.370415 0.958569 0.595288 0.217241
O145  O     O_R   0.311300 0.998838 0.597073 -0.283068
O146  O     O_R   0.372879 0.905814 0.578198 -0.332555
N48   N     N_R   0.626472 0.043340 0.405265 0.215771
O147  O     O_R   0.622685 0.095963 0.422375 -0.329790
O148  O     O_R   0.686369 0.004194 0.403597 -0.282033
N49   N     N_R   0.375503 0.933508 0.095563 0.212595
O149  O     O_R   0.335023 0.977595 0.081642 -0.325388
O150  O     O_R   0.366480 0.862812 0.093322 -0.288988
N50   N     N_R   0.373724 0.052618 0.905411 0.211149
O151  O     O_R   0.335828 0.005557 0.919011 -0.326761
O152  O     O_R   0.361312 0.122591 0.908389 -0.297585
N51   N     N_R   0.128827 0.545093 0.095229 0.215908
O153  O     O_R   0.188909 0.506266 0.096985 -0.285915
O154  O     O_R   0.125121 0.597928 0.078199 -0.325768
N52   N     N_R   0.872315 0.458032 0.905072 0.216897
O155  O     O_R   0.875445 0.405477 0.922225 -0.331138
O156  O     O_R   0.812890 0.497873 0.903375 -0.284608
N53   N     N_R   0.617272 0.052123 0.093040 0.210115
O157  O     O_R   0.654775 0.007314 0.078382 -0.328104
O158  O     O_R   0.626803 0.122661 0.090449 -0.294171
N54   N     N_R   0.620782 0.945370 0.906342 0.210733
O159  O     O_R   0.656717 0.990793 0.921237 -0.329676
O160  O     O_R   0.633464 0.875158 0.908300 -0.295552
N55   N     N_R   0.873755 0.455699 0.094749 0.215234
O161  O     O_R   0.813609 0.494474 0.096382 -0.286657
O162  O     O_R   0.877907 0.403025 0.077669 -0.327402
N56   N     N_R   0.129272 0.542155 0.904729 0.216905
O163  O     O_R   0.126492 0.594928 0.921806 -0.331275
O164  O     O_R   0.188597 0.502182 0.902975 -0.285379
C193  C     C_3   0.920011 0.615021 0.651521 -0.606931
H33   H     H_    0.903701 0.661581 0.638847 0.281615
H34   H     H_    0.869770 0.593059 0.661116 0.254814
H35   H     H_    0.957362 0.638553 0.666502 0.224100
C194  C     C_3   0.953803 0.631666 0.347901 -0.634049
H36   H     H_    0.935709 0.677621 0.360512 0.287849
H37   H     H_    0.999700 0.651699 0.335456 0.241053
H38   H     H_    0.905985 0.617543 0.335372 0.239604
C195  C     C_3   0.630562 0.049228 0.651828 -0.626161
H39   H     H_    0.676169 0.068016 0.639135 0.285992
H40   H     H_    0.615505 0.096780 0.664287 0.236641
H41   H     H_    0.651758 0.004092 0.664324 0.254996
C196  C     C_3   0.369736 0.947933 0.347859 -0.574920
H42   H     H_    0.323983 0.928662 0.360393 0.282939
H43   H     H_    0.348237 0.992490 0.335169 0.259473
H44   H     H_    0.386073 0.900363 0.335617 0.248532
C197  C     C_3   0.080033 0.385271 0.651395 -0.617524
H45   H     H_    0.096388 0.338826 0.638673 0.278997
H46   H     H_    0.130250 0.407195 0.661009 0.256452
H47   H     H_    0.042680 0.361600 0.666355 0.225904
C198  C     C_3   0.046184 0.368488 0.347984 -0.635989
H48   H     H_    0.064283 0.322605 0.360624 0.288021
H49   H     H_    0.000309 0.348374 0.335553 0.239825
H50   H     H_    0.094008 0.382567 0.335444 0.239809
C199  C     C_3   0.368763 0.951073 0.652207 -0.639120
H51   H     H_    0.322825 0.932419 0.639648 0.285513
H52   H     H_    0.383921 0.903501 0.664638 0.236047
H53   H     H_    0.347976 0.996317 0.664747 0.251271
C200  C     C_3   0.629019 0.052279 0.348422 -0.570706
H54   H     H_    0.674387 0.071417 0.361148 0.282830
H55   H     H_    0.650971 0.008039 0.335685 0.258772
H56   H     H_    0.612810 0.100062 0.336267 0.250982
C201  C     C_3   0.378114 0.922727 0.151697 -0.562918
H57   H     H_    0.341662 0.888954 0.139272 0.277980
H58   H     H_    0.401671 0.884613 0.166411 0.231761
H59   H     H_    0.342150 0.964085 0.161258 0.262014
C202  C     C_3   0.374682 0.068090 0.849478 -0.619499
H60   H     H_    0.336418 0.098334 0.862365 0.272084
H61   H     H_    0.395954 0.109132 0.835330 0.237707
H62   H     H_    0.340992 0.025877 0.839384 0.256067
C203  C     C_3   0.129868 0.552980 0.152108 -0.571063
H63   H     H_    0.175509 0.572460 0.139564 0.283129
H64   H     H_    0.113260 0.600510 0.164324 0.250076
H65   H     H_    0.151636 0.508599 0.164819 0.258416
C204  C     C_3   0.869661 0.450100 0.848163 -0.625906
H66   H     H_    0.824108 0.431167 0.860852 0.286098
H67   H     H_    0.848295 0.495107 0.835645 0.254791
H68   H     H_    0.884938 0.402568 0.835728 0.236638
C205  C     C_3   0.621832 0.066927 0.149083 -0.544181
H69   H     H_    0.659535 0.096132 0.135704 0.274486
H70   H     H_    0.600139 0.108912 0.162791 0.249328
H71   H     H_    0.656250 0.026129 0.159597 0.258217
C206  C     C_3   0.625753 0.935524 0.850222 -0.621554
H72   H     H_    0.665033 0.907417 0.863327 0.270642
H73   H     H_    0.606592 0.893350 0.836120 0.242709
H74   H     H_    0.657971 0.978860 0.840121 0.253694
C207  C     C_3   0.871274 0.446868 0.151591 -0.571868
H75   H     H_    0.825986 0.427522 0.138871 0.282229
H76   H     H_    0.887756 0.399140 0.163727 0.251274
H77   H     H_    0.849100 0.490958 0.164346 0.258690
C208  C     C_3   0.130961 0.549617 0.847813 -0.638705
H78   H     H_    0.176821 0.568425 0.860379 0.285662
H79   H     H_    0.151950 0.504509 0.835254 0.251035
H80   H     H_    0.115595 0.597169 0.835404 0.236166

loop_
_geom_bond_atom_site_label_1
_geom_bond_atom_site_label_2
_geom_bond_distance
_ccdc_geom_bond_type
N8    C187  1.439063 S    
C38   C86   1.547967 S    
N45   O141  1.301005 A    
Zn7   O39   1.941446 S    
Zn8   O40   1.941446 S    
C111  C135  1.405095 A    
C157  N53   1.435729 S    
C90   N2    1.369352 A    
C39   C87   1.547987 S    
C195  H39   1.106757 S    
C196  H44   1.109521 S    
C109  C133  1.404146 A    
C54   C77   1.527601 S    
C37   C85   1.548123 S    
C71   C87   1.535486 S    
C111  C123  1.408793 A    
C97   O61   1.349340 S    
C21   C71   1.457830 S    
Zn5   O20   1.957680 S    
C194  H38   1.109789 S    
Zn6   O19   1.957680 S    
C70   C86   1.535294 S    
C89   C109  1.397772 A    
C137  C142  1.395748 A    
C104  O68   1.349313 S    
C50   N18   1.458062 S    
C171  C203  1.515174 S    
O34   C22   1.270461 A    
N46   O144  1.301079 A    
C13   C63   1.457591 S    
C19   C69   1.459332 S    
Zn3   O3    1.942619 S    
C139  C144  1.395956 A    
C98   N6    1.369904 A    
C34   C57   1.556120 S    
C60   C76   1.535280 S    
C51   N19   1.458093 S    
C164  C196  1.515163 S    
C160  C192  1.407053 A    
C158  N54   1.435625 S    
N41   O134  1.301191 A    
C100  O64   1.349311 S    
Zn13  O45   1.943146 S    
C25   C66   1.556115 S    
C149  C165  1.411339 A    
Zn6   O38   1.943146 S    
N26   O103  1.300234 A    
C30   C78   1.548499 S    
N48   O147  1.300903 A    
C130  H18   1.083127 S    
C81   N33   1.456919 S    
N11   O73   1.300235 A    
N4    C191  1.438810 S    
C87   N39   1.457906 S    
N34   O120  1.300347 A    
N56   O163  1.300918 A    
C23   C65   1.458605 S    
C120  C128  1.408792 A    
Zn3   O18   1.958169 S    
C172  C184  1.415787 A    
C48   C87   1.527564 S    
C146  N42   1.434896 S    
C153  N49   1.435402 S    
C123  C124  1.412705 A    
C17   C67   1.457795 S    
C153  C189  1.400744 A    
C194  H37   1.110512 S    
C18   C68   1.459261 S    
C207  H77   1.110451 S    
N42   O136  1.301079 A    
C169  C201  1.520004 S    
C16   C58   1.460067 S    
C31   C72   1.554570 S    
C5    C180  1.474764 S    
C49   C65   1.535646 S    
C53   N21   1.457934 S    
C6    C179  1.472343 S    
C29   C70   1.554958 S    
C110  C122  1.407715 A    
C147  C163  1.411641 A    
C158  C190  1.400844 A    
C116  C140  1.405085 A    
C32   C71   1.554660 S    
O17   C5    1.286951 A    
C146  C186  1.406969 A    
Zn7   O3    1.942626 S    
C201  H58   1.110680 S    
N33   O117  1.300227 A    
O9    C1    1.286399 A    
O39   C15   1.268287 A    
N31   O113  1.300267 A    
C106  C122  1.407964 A    
C149  C185  1.407099 A    
O11   C3    1.289592 A    
C132  H20   1.083064 S    
C40   H16   1.110167 S    
C195  H41   1.110429 S    
C151  C187  1.407084 A    
N52   O156  1.301080 A    
Zn13  O4    1.938664 S    
Zn14  O3    1.938659 S    
Zn15  O26   1.934543 S    
C74   N26   1.456009 S    
C47   C88   1.527528 S    
C32   H8    1.110166 S    
C45   C86   1.527627 S    
C170  C182  1.430365 A    
C33   H9    1.110277 S    
Zn3   O30   1.934422 S    
C160  N56   1.434836 S    
N42   O135  1.300910 A    
C125  C126  1.412331 A    
C117  C125  1.408856 A    
C197  H46   1.109853 S    
N25   O101  1.300231 A    
C172  C204  1.516289 S    
C175  C183  1.416058 A    
C205  H69   1.105058 S    
C61   C77   1.535309 S    
C67   C83   1.535502 S    
C37   C62   1.553842 S    
C119  C143  1.405072 A    
C58   C74   1.536175 S    
N5    C186  1.438132 S    
Zn1   O16   1.957911 S    
C103  O67   1.349307 S    
N20   O91   1.300238 A    
Zn9   O49   1.943238 S    
N51   O154  1.300899 A    
C30   C46   1.546940 S    
C41   C82   1.528158 S    
C101  O65   1.349337 S    
N15   O81   1.300288 A    
Zn4   O4    1.942618 S    
C159  C175  1.411485 A    
C95   N3    1.370065 A    
C149  N45   1.436476 S    
O5    C1    1.286447 A    
N23   O97   1.300251 A    
N55   O162  1.300899 A    
C96   O60   1.349306 S    
C78   N30   1.458524 S    
C27   C68   1.555650 S    
C167  C199  1.516301 S    
C95   O59   1.349316 S    
O31   C19   1.269048 A    
N30   O111  1.300000 A    
Zn15  O2    1.942626 S    
C93   O57   1.349614 S    
Zn11  O2    1.942619 S    
C35   C83   1.547986 S    
Zn16  O5    1.958169 S    
C39   C64   1.554493 S    
C82   N34   1.456468 S    
O27   C15   1.272012 A    
C113  C137  1.405005 A    
N43   O137  1.301080 A    
N48   O148  1.301069 A    
N31   O114  1.300149 A    
N37   O125  1.300224 A    
N47   O146  1.300919 A    
N10   O72   1.299750 A    
C193  H33   1.108088 S    
Zn12  O52   1.941582 S    
C113  C125  1.408854 A    
C95   C107  1.404006 A    
C107  C123  1.408799 A    
Zn8   O13   1.958169 S    
C147  N43   1.434872 S    
C10   C60   1.457465 S    
O14   C6    1.286433 A    
C83   N35   1.457908 S    
N19   O90   1.300141 A    
N24   O99   1.300291 A    
Zn14  O46   1.943146 S    
C98   C118  1.403645 A    
C169  C181  1.429547 A    
Zn11  O51   1.941582 S    
N9    O70   1.300244 A    
N28   O107  1.300218 A    
C148  N44   1.434815 S    
C43   C59   1.536510 S    
C56   C79   1.527524 S    
O35   C23   1.267941 A    
C34   C82   1.549053 S    
C93   C105  1.397281 A    
C203  H63   1.106721 S    
N13   O78   1.300173 A    
Zn4   O44   1.941582 S    
C3    C182  1.488367 S    
C173  C181  1.427338 A    
C114  C138  1.405007 A    
C120  C144  1.405096 A    
C46   N14   1.457618 S    
Zn4   O29   1.934422 S    
N17   O86   1.299750 A    
C143  H31   1.083066 S    
Zn5   O32   1.937016 S    
C129  H17   1.083137 S    
C204  H67   1.110441 S    
Zn6   O31   1.937016 S    
C102  C114  1.403638 A    
C64   C80   1.535267 S    
C65   C81   1.536109 S    
N14   O79   1.300138 A    
N7    C188  1.438854 S    
C15   C57   1.459673 S    
C52   N20   1.458074 S    
C130  C133  1.393488 A    
N53   O158  1.301285 A    
C168  C200  1.514628 S    
C44   C83   1.527562 S    
C72   C88   1.535495 S    
C161  C177  1.417936 A    
C202  H61   1.110665 S    
C20   C70   1.458038 S    
C25   C73   1.549008 S    
C9    C59   1.459212 S    
C41   N9    1.458055 S    
C199  H51   1.106740 S    
C96   C108  1.404037 A    
Zn1   O41   1.943238 S    
C150  C166  1.411187 A    
C33   C58   1.553276 S    
N47   O145  1.301079 A    
C156  C192  1.407149 A    
C38   C54   1.547878 S    
N22   O96   1.300172 A    
C198  H48   1.106859 S    
C36   C59   1.555590 S    
C207  H76   1.109452 S    
C200  H55   1.110447 S    
N40   O131  1.300302 A    
N12   O75   1.300243 A    
C31   C79   1.548043 S    
C75   N27   1.456594 S    
N16   O84   1.300160 A    
C40   C88   1.548013 S    
N44   O139  1.300902 A    
N36   O124  1.300364 A    
C103  C115  1.404062 A    
C85   N37   1.456871 S    
N46   O143  1.300911 A    
O8    C4    1.289793 A    
C144  H32   1.083066 S    
C193  H35   1.110720 S    
N15   O82   1.300169 A    
C139  H27   1.083064 S    
Zn4   O17   1.958169 S    
O44   C12   1.272415 A    
C140  H28   1.083065 S    
C49   C74   1.527424 S    
C102  N6    1.369904 A    
Zn7   O34   1.934543 S    
N54   O159  1.300873 A    
C49   N17   1.457672 S    
O50   C18   1.268862 A    
C14   C64   1.457513 S    
C136  H24   1.083066 S    
C150  N46   1.434898 S    
C196  H43   1.110426 S    
C119  C127  1.408812 A    
C112  C124  1.408819 A    
C29   C77   1.547909 S    
O29   C17   1.270301 A    
C56   C72   1.536036 S    
C63   C79   1.535405 S    
C91   O55   1.349310 S    
C12   C62   1.459672 S    
C108  C124  1.408831 A    
N39   O130  1.300162 A    
C1    C184  1.472382 S    
C39   H15   1.110163 S    
C2    C183  1.474848 S    
N29   O110  1.300134 A    
C150  C186  1.406984 A    
C141  H29   1.083092 S    
N18   O87   1.300234 A    
N53   O157  1.300866 A    
C203  H65   1.110431 S    
N12   O76   1.300162 A    
C94   O58   1.349470 S    
C22   C72   1.457716 S    
Zn16  O25   1.934543 S    
O6    C2    1.287181 A    
N49   O149  1.300834 A    
C25   C41   1.546985 S    
C46   C85   1.527250 S    
C171  C183  1.416335 A    
C138  H26   1.083090 S    
N41   O133  1.301006 A    
C151  N47   1.434844 S    
C165  C177  1.417848 A    
C92   C112  1.403996 A    
N30   O112  1.300352 A    
C208  H80   1.109658 S    
C32   C48   1.547937 S    
C39   C55   1.547868 S    
C152  C188  1.406534 A    
C167  C179  1.415788 A    
C134  H22   1.083133 S    
N26   O104  1.299334 A    
N21   O93   1.300327 A    
C110  C134  1.403979 A    
C55   C71   1.536022 S    
C121  C122  1.405713 A    
C155  C191  1.406539 A    
C62   C78   1.537041 S    
C38   C61   1.554997 S    
C53   C69   1.536652 S    
C42   N10   1.457443 S    
N43   O138  1.300921 A    
N6    C185  1.438271 S    
C146  C162  1.411181 A    
C199  H53   1.110545 S    
C98   O62   1.349335 S    
C31   C47   1.547955 S    
C207  H75   1.106734 S    
C94   N2    1.369279 A    
C42   C81   1.527649 S    
Zn5   O1    1.938664 S    
C56   N24   1.458178 S    
N27   O105  1.300228 A    
C173  C205  1.517205 S    
C90   C110  1.397083 A    
C198  H50   1.109788 S    
C161  C193  1.516625 S    
N50   O151  1.300838 A    
C28   H4    1.110160 S    
O37   C13   1.269292 A    
C45   C61   1.535837 S    
Zn12  O21   1.934422 S    
C50   C66   1.536272 S    
C8    C177  1.476816 S    
Zn13  O24   1.937016 S    
C154  N50   1.435638 S    
N21   O94   1.299885 A    
Zn14  O23   1.937016 S    
Zn15  O6    1.958169 S    
Zn16  O1    1.942621 S    
Zn9   O28   1.937101 S    
Zn12  O1    1.942618 S    
C99   N7    1.369991 A    
O32   C20   1.270949 A    
Zn13  O12   1.957680 S    
C80   N32   1.457940 S    
Zn14  O11   1.957680 S    
C36   H12   1.110166 S    
N49   O150  1.301217 A    
N55   O161  1.301067 A    
C26   C74   1.548230 S    
Zn7   O14   1.958169 S    
C201  H57   1.105154 S    
N45   O142  1.301190 A    
O12   C4    1.287167 A    
C145  N41   1.436486 S    
N1    C190  1.432934 S    
C68   C84   1.532929 S    
O40   C16   1.272062 A    
C195  H40   1.109692 S    
C206  H73   1.110631 S    
O41   C9    1.268844 A    
C166  C198  1.516201 S    
C11   C61   1.458111 S    
O43   C11   1.268859 A    
C127  C128  1.412736 A    
C48   C64   1.535870 S    
C100  N8    1.370081 A    
O21   C9    1.271430 A    
C129  C134  1.392997 A    
C26   C42   1.547305 S    
C84   N36   1.456595 S    
O23   C11   1.270932 A    
Zn11  O22   1.934422 S    
C154  C190  1.400252 A    
C197  H45   1.108078 S    
O7    C3    1.288783 A    
Zn9   O4    1.938212 S    
O15   C7    1.283612 A    
Zn10  O3    1.938211 S    
C88   N40   1.457864 S    
C30   H6    1.110259 S    
C32   C80   1.548052 S    
C99   O63   1.349312 S    
C33   C81   1.548872 S    
C109  C121  1.407816 A    
C47   N15   1.458180 S    
C4    C181  1.486218 S    
O18   C6    1.286383 A    
C92   O56   1.349313 S    
C54   C70   1.535800 S    
C137  H25   1.083092 S    
C24   C66   1.459608 S    
O10   C2    1.286972 A    
C27   C75   1.549155 S    
O36   C24   1.272022 A    
C107  C131  1.405086 A    
O48   C24   1.268246 A    
C157  C173  1.406877 A    
C132  C135  1.395945 A    
O38   C14   1.269191 A    
C105  C121  1.407860 A    
C205  H70   1.110278 S    
C145  C161  1.411358 A    
C170  C202  1.519924 S    
C104  C116  1.404037 A    
C115  C127  1.408827 A    
C162  C178  1.415392 A    
C43   N11   1.458074 S    
N34   O119  1.300228 A    
O28   C16   1.268585 A    
C205  H71   1.109563 S    
N35   O121  1.300287 A    
Zn2   O42   1.943238 S    
C59   C75   1.532889 S    
C163  C195  1.516263 S    
C174  C206  1.519662 S    
O22   C10   1.270336 A    
C193  H34   1.109851 S    
C105  C129  1.403932 A    
C47   C63   1.535978 S    
C33   C49   1.547356 S    
C206  H74   1.109665 S    
N25   O102  1.300321 A    
N32   O115  1.300216 A    
C91   C111  1.404033 A    
C151  C167  1.411564 A    
C155  N51   1.434801 S    
C55   C80   1.527560 S    
N24   O100  1.300158 A    
C53   C78   1.529996 S    
C160  C176  1.411546 A    
C40   C56   1.547925 S    
C89   O53   1.349556 S    
C118  C142  1.405009 A    
Zn1   O36   1.937101 S    
C25   H1    1.110181 S    
C102  O66   1.349338 S    
C92   N4    1.369973 A    
Zn2   O35   1.937101 S    
O42   C10   1.269065 A    
C133  H21   1.083126 S    
C27   H3    1.110187 S    
C199  H52   1.109675 S    
C201  H59   1.109672 S    
C69   C85   1.535228 S    
N33   O118  1.300376 A    
C50   C73   1.528135 S    
C159  C191  1.406481 A    
C43   C84   1.528036 S    
Zn8   O33   1.934543 S    
C76   N28   1.457944 S    
C36   C52   1.547047 S    
C154  C170  1.406708 A    
C116  C128  1.408795 A    
N52   O155  1.300919 A    
Zn2   O2    1.938211 S    
N13   O77   1.300292 A    
N32   O116  1.300170 A    
O26   C14   1.270499 A    
C35   C60   1.554471 S    
C162  C194  1.516217 S    
Zn10  O50   1.943238 S    
N17   O85   1.300139 A    
C114  C126  1.408864 A    
C26   C65   1.552678 S    
C28   C44   1.547943 S    
O19   C7    1.283596 A    
C204  H66   1.106747 S    
Zn8   O4    1.942621 S    
N56   O164  1.301078 A    
N20   O92   1.300229 A    
Zn5   O37   1.943146 S    
C106  C130  1.404097 A    
N38   O128  1.300166 A    
C206  H72   1.105052 S    
C197  H47   1.110727 S    
C90   O54   1.349695 S    
C91   N3    1.370078 A    
C142  H30   1.083092 S    
O13   C5    1.287147 A    
C99   C119  1.404022 A    
C138  C141  1.395744 A    
C97   C117  1.403641 A    
C202  H60   1.105039 S    
C42   C58   1.536717 S    
C35   H11   1.110161 S    
O20   C8    1.285273 A    
C156  C172  1.411624 A    
N50   O152  1.301251 A    
C51   C76   1.527557 S    
N27   O106  1.300367 A    
O16   C8    1.285369 A    
C52   C75   1.528034 S    
C101  N5    1.369815 A    
N39   O129  1.300286 A    
O24   C12   1.268308 A    
C166  C178  1.415370 A    
C112  C136  1.405070 A    
C200  H54   1.106745 S    
N40   O132  1.300145 A    
C34   C50   1.546997 S    
C135  H23   1.083067 S    
C40   C63   1.554478 S    
C176  C184  1.415842 A    
C94   C106  1.397982 A    
C30   C69   1.553422 S    
O25   C13   1.270450 A    
C163  C179  1.415729 A    
N44   O140  1.301070 A    
C164  C180  1.416246 A    
O47   C23   1.271983 A    
C157  C189  1.401423 A    
C73   N25   1.456426 S    
N37   O126  1.300386 A    
O45   C21   1.269386 A    
C100  C120  1.404055 A    
C145  C185  1.407104 A    
C26   H2    1.110284 S    
C51   C67   1.536022 S    
Zn6   O2    1.938659 S    
C52   C68   1.536538 S    
C66   C82   1.532712 S    
C93   N1    1.369260 A    
C108  C132  1.405076 A    
C101  C113  1.403649 A    
C159  N55   1.434818 S    
C46   C62   1.535551 S    
N54   O160  1.301275 A    
C96   N4    1.369974 A    
C175  C207  1.514688 S    
C131  C136  1.395923 A    
C152  N48   1.434838 S    
Zn11  O10   1.958169 S    
C196  H42   1.106728 S    
C28   C67   1.554630 S    
C37   H13   1.110302 S    
C140  C143  1.395938 A    
Zn2   O15   1.957911 S    
N11   O74   1.300242 A    
C148  C188  1.406608 A    
C45   N13   1.458126 S    
C36   C84   1.549139 S    
C147  C187  1.407185 A    
C194  H36   1.106856 S    
C37   C53   1.547859 S    
N23   O98   1.300138 A    
C7    C178  1.470946 S    
C77   N29   1.457775 S    
N29   O109  1.300292 A    
C174  C182  1.430058 A    
N2    C189  1.432868 S    
C55   N23   1.458085 S    
C44   N12   1.458087 S    
C54   N22   1.458133 S    
C28   C76   1.548046 S    
C38   H14   1.110168 S    
N18   O88   1.300246 A    
N3    C192  1.439035 S    
C203  H64   1.109512 S    
O52   C20   1.268805 A    
C29   C45   1.547856 S    
C158  C174  1.407737 A    
C208  H78   1.106727 S    
C57   C73   1.532709 S    
N38   O127  1.300292 A    
C204  H68   1.109673 S    
C103  N7    1.369988 A    
Zn10  O27   1.937101 S    
C35   C51   1.547882 S    
O33   C21   1.270480 A    
C41   C57   1.536323 S    
Zn9   O8    1.957911 S    
O49   C17   1.269279 A    
C176  C208  1.516319 S    
Zn10  O7    1.957911 S    
C148  C164  1.411779 A    
O51   C19   1.271491 A    
C118  C126  1.408868 A    
C31   H7    1.110183 S    
Zn12  O9    1.958169 S    
C202  H62   1.109699 S    
C86   N38   1.457812 S    
N10   O71   1.300133 A    
C44   C60   1.535860 S    
C29   H5    1.110169 S    
N51   O153  1.301066 A    
C208  H79   1.110549 S    
C27   C43   1.547076 S    
C79   N31   1.457872 S    
N35   O122  1.300166 A    
C115  C139  1.405081 A    
O46   C22   1.269349 A    
C89   N1    1.369395 A    
N22   O95   1.300289 A    
C198  H49   1.110502 S    
N28   O108  1.300172 A    
C156  N52   1.434862 S    
C168  C180  1.415960 A    
C155  C171  1.411743 A    
N9    O69   1.300237 A    
C200  H56   1.109464 S    
C117  C141  1.405001 A    
N19   O89   1.300247 A    
C34   H10   1.110183 S    
C152  C168  1.411486 A    
C131  H19   1.083067 S    
N14   O80   1.299918 A    
C153  C169  1.407086 A    
Zn1   O1    1.938212 S    
C104  N8    1.370070 A    
N16   O83   1.300248 A    
Zn15  O47   1.941446 S    
N36   O123  1.300225 A    
C48   N16   1.458078 S    
C97   N5    1.369815 A    
Zn16  O48   1.941446 S    
Zn3   O43   1.941582 S    
O30   C18   1.271443 A    
C165  C197  1.516529 S    
