data_mof_unit_40361.cif
_audit_creation_date              2012-10-26T18:28:21-0400
_audit_creation_method            fapswitch 2.2
_symmetry_space_group_name_H-M    P1
_symmetry_Int_Tables_number       1
_space_group_crystal_system       triclinic
_cell_length_a                    27.806812
_cell_length_b                    11.037337
_cell_length_c                    9.808331
_cell_angle_alpha                 111.090928
_cell_angle_beta                  97.921041
_cell_angle_gamma                 91.005936
_cell_volume                      2774.49631256

loop_
_atom_site_label
_atom_site_type_symbol
_atom_type_description
_atom_site_fract_x
_atom_site_fract_y
_atom_site_fract_z
_atom_type_partial_charge
C1    C     C_R   0.496484 0.254102 0.440669 0.564497
C2    C     C_R   0.869819 0.383007 0.464450 0.022148
C3    C     C_R   0.354741 0.500719 0.505658 -0.009010
C4    C     C_R   0.645305 0.499780 0.494805 -0.009199
C5    C     C_R   0.972285 0.382743 0.474112 0.017950
C6    C     C_R   0.026576 0.613904 0.500891 0.018103
C7    C     C_R   0.975415 0.614264 0.500605 0.018096
C8    C     C_R   0.023821 0.384889 0.484161 0.018246
C9    C     C_R   0.948514 0.498195 0.485431 0.033055
C10   C     C_R   0.050569 0.499893 0.495307 0.033186
C11   C     C_R   0.943363 0.268496 0.452413 -0.141652
C12   C     C_R   0.503507 0.745898 0.559332 0.564455
C13   C     C_R   0.054875 0.723963 0.506269 -0.140985
C14   C     C_R   0.893257 0.269023 0.448134 -0.114999
C15   C     C_R   0.104978 0.723341 0.510568 -0.112966
C16   C     C_R   0.407505 0.500159 0.501687 0.553968
C17   C     C_R   0.592505 0.499937 0.498372 0.554171
C18   C     C_R   0.049874 0.275917 0.484832 -0.141295
C19   C     C_R   0.949980 0.727419 0.516215 -0.142086
C20   C     C_2   0.494557 0.114826 0.407193 -0.122735
C21   C     C_2   0.505415 0.885174 0.592811 -0.122854
C22   C     C_2   0.500879 0.069551 0.516664 -0.155939
C23   C     C_R   0.101974 0.500883 0.500898 -0.027799
C24   C     C_2   0.499067 0.930449 0.483342 -0.155592
C25   C     C_2   0.504180 0.510462 0.081208 -0.025714
C26   C     C_2   0.495784 0.489629 0.918809 -0.026342
C27   C     C_R   0.177191 0.392351 0.502594 0.391553
C28   C     C_R   0.822641 0.610047 0.496551 0.385383
C29   C     C_R   0.179658 0.611796 0.513811 0.387625
C30   C     C_R   0.819347 0.385172 0.463957 0.390929
C31   C     C_R   0.286783 0.530364 0.645261 0.061607
C32   C     C_R   0.728533 0.523956 0.624026 0.060561
C33   C     C_R   0.336975 0.529203 0.640365 -0.129298
C34   C     C_R   0.897203 0.497688 0.482107 -0.028521
C35   C     C_R   0.678201 0.523797 0.625500 -0.125684
C36   C     C_R   0.321748 0.473292 0.374726 -0.147806
C37   C     C_R   0.663246 0.476069 0.361325 -0.150534
C38   C     C_R   0.271924 0.474171 0.378247 -0.068483
C39   C     C_R   0.713180 0.476072 0.358530 -0.067274
C40   C     C_R   0.254155 0.502514 0.512216 0.257493
C41   C     C_R   0.745935 0.499787 0.488673 0.258221
C42   C     C_3   0.762572 0.552043 0.767910 -0.262020
C43   C     C_3   0.760634 0.438087 0.820860 -0.425716
C44   C     C_3   0.269290 0.564490 0.793128 -0.257350
C45   C     C_R   0.126500 0.389636 0.498151 0.023339
C46   C     C_3   0.277305 0.456178 0.854494 -0.427859
C47   C     C_R   0.873149 0.611980 0.497008 0.021268
C48   C     C_R   0.100083 0.278391 0.491176 -0.114716
C49   C     C_R   0.899949 0.725926 0.514165 -0.115532
C50   C     C_R   0.128989 0.613013 0.508864 0.022976
Cu1   Cu    Cu3+1 0.508480 0.521810 0.644910 0.940781
Cu2   Cu    Cu3+1 0.491520 0.478190 0.355090 0.942548
H1    H     H_    0.334370 0.451017 0.269303 0.133487
H2    H     H_    0.726583 0.457407 0.254791 0.122365
H3    H     H_    0.118166 0.192138 0.490865 0.164197
H4    H     H_    0.882357 0.815371 0.527037 0.164768
H5    H     H_    0.664843 0.543261 0.729502 0.132133
H6    H     H_    0.362133 0.551780 0.742380 0.129155
H7    H     H_    0.872924 0.179105 0.432326 0.165706
H8    H     H_    0.124864 0.810306 0.514918 0.166309
H9    H     H_    0.958072 0.175696 0.436328 0.106825
H10   H     H_    0.039536 0.812506 0.505311 0.105898
H11   H     H_    0.032790 0.186941 0.482812 0.105545
H12   H     H_    0.638737 0.457366 0.258932 0.132203
H13   H     H_    0.967601 0.820293 0.532917 0.106148
H14   H     H_    0.492477 0.864714 0.368193 0.156943
H15   H     H_    0.507458 0.135286 0.631813 0.156790
H16   H     H_    0.723423 0.419717 0.841583 0.148525
H17   H     H_    0.771355 0.348734 0.736907 0.203781
H18   H     H_    0.786286 0.461042 0.925624 0.145250
H19   H     H_    0.800819 0.572152 0.757129 0.167016
H20   H     H_    0.752165 0.640893 0.853593 0.147721
H21   H     H_    0.257465 0.363783 0.776356 0.205255
H22   H     H_    0.316669 0.441045 0.873506 0.141836
H23   H     H_    0.512020 0.951194 0.707763 0.105564
H24   H     H_    0.263400 0.483242 0.961642 0.140151
H25   H     H_    0.289315 0.656180 0.872707 0.145991
H26   H     H_    0.230041 0.582422 0.785121 0.169372
H27   H     H_    0.487963 0.048805 0.292240 0.105529
H28   H     H_    0.467433 0.417609 0.846031 0.146143
H29   H     H_    0.532509 0.582541 0.154000 0.147217
H30   H     H_    0.547936 0.622268 0.934216 0.203595
H31   H     H_    0.452076 0.377695 0.065775 0.202154
H32   H     H_    0.246860 0.452802 0.276335 0.123025
N1    N     N_R   0.202562 0.502561 0.510866 -0.404027
N2    N     N_R   0.797064 0.498052 0.481810 -0.403265
N3    N     N_2   0.478780 0.445430 0.137360 -0.353451
N4    N     N_2   0.521220 0.554570 0.862640 -0.353180
O1    O     O_R   0.504520 0.332330 0.577400 -0.496351
O2    O     O_2   0.799286 0.719305 0.512140 -0.496497
O3    O     O_2   0.792743 0.275763 0.446730 -0.502445
O4    O     O_2   0.205894 0.718747 0.521533 -0.494866
O5    O     O_R   0.495480 0.667670 0.422600 -0.496345
O6    O     O_R   0.490210 0.295500 0.332650 -0.487633
O7    O     O_R   0.509790 0.704500 0.667350 -0.487713
O8    O     O_R   0.437420 0.518430 0.622370 -0.501913
O9    O     O_R   0.562580 0.481570 0.377630 -0.498841
O10   O     O_R   0.423110 0.481600 0.377610 -0.493120
O11   O     O_R   0.576890 0.518400 0.622390 -0.495507
O12   O     O_2   0.200952 0.285689 0.497881 -0.503643

loop_
_geom_bond_atom_site_label_1
_geom_bond_atom_site_label_2
_ccdc_geom_bond_type
C48   H3    S    
H31   N3    S    
C28   C47   A    
C33   H6    S    
C23   C45   A    
C15   H8    S    
C16   O10   A    
C46   H24   S    
C47   C49   A    
C41   N2    S    
C44   H25   S    
C5    C11   A    
C11   C14   A    
C18   H11   S    
C39   H2    S    
C3    C33   A    
Cu2   O9    S    
C25   N3    D    
C31   C40   A    
C15   C50   A    
Cu2   O10   S    
C27   N1    A    
C36   H1    S    
C13   H10   S    
C43   H16   S    
C32   C41   A    
C31   C33   A    
C12   O7    A    
Cu2   O6    S    
C30   N2    A    
C29   N1    A    
C24   H14   S    
Cu1   O8    S    
C27   C45   A    
C4    C35   A    
C43   H17   S    
C25   H29   S    
C44   C46   S    
C29   C50   A    
Cu1   O11   S    
C27   O12   S    
C16   O8    A    
C31   C44   S    
Cu1   Cu2   S    
C32   C35   A    
C39   C41   A    
C1    O6    A    
C23   C50   A    
C25   C26   S    
C12   C21   S    
C26   H28   S    
C40   N1    S    
C5    C9    A    
C14   H7    S    
C19   C49   A    
C42   H20   S    
Cu2   O5    S    
C17   O11   A    
C4    C17   S    
C8    C10   A    
C20   C22   D    
C43   H18   S    
C7    C19   A    
C13   C15   A    
C28   N2    A    
C9    C34   A    
C22   C24   S    
C12   O5    A    
C42   C43   S    
C46   H22   S    
C37   H12   S    
C45   C48   A    
C7    C9    A    
C1    C20   S    
C1    O1    A    
C20   H27   S    
C38   H32   S    
Cu2   N3    S    
C30   O3    S    
C11   H9    S    
C18   C48   A    
Cu1   N4    S    
C6    C10   A    
C5    C8    A    
C6    C7    A    
C10   C23   A    
C49   H4    S    
C21   H23   S    
C35   H5    S    
C2    C30   A    
C36   C38   A    
C37   C39   A    
Cu1   O1    S    
C6    C13   A    
C38   C40   A    
C2    C34   A    
C3    C36   A    
H30   N4    S    
C44   H26   S    
C42   H19   S    
C19   H13   S    
C29   O4    S    
C2    C14   A    
C8    C18   A    
C22   H15   S    
C4    C37   A    
C26   N4    D    
C21   C24   D    
C32   C42   S    
C28   O2    S    
C34   C47   A    
C17   O9    A    
C46   H21   S    
C3    C16   S    
Cu1   O7    S    
