data_mof_unit_13139.cif
_audit_creation_date              2012-10-26T20:59:14-0400
_audit_creation_method            fapswitch 2.2
_symmetry_space_group_name_H-M    P1
_symmetry_Int_Tables_number       1
_space_group_crystal_system       triclinic
_cell_length_a                    15.879919
_cell_length_b                    9.112517
_cell_length_c                    7.822803
_cell_angle_alpha                 89.655082
_cell_angle_beta                  91.579081
_cell_angle_gamma                 89.523084
_cell_volume                      1131.51557804

loop_
_atom_site_label
_atom_site_type_symbol
_atom_type_description
_atom_site_fract_x
_atom_site_fract_y
_atom_site_fract_z
_atom_type_partial_charge
C1    C     C_1   0.500019 0.065363 0.500432 -0.044598
C2    C     C_3   0.970844 0.626451 0.561772 -0.022550
C3    C     C_1   0.249882 0.506754 0.489905 -0.027951
C4    C     C_1   0.750118 0.493246 0.510095 -0.027951
C5    C     C_3   0.035920 0.524644 0.654782 -0.020811
C6    C     C_3   0.964080 0.475356 0.345218 -0.020812
C7    C     C_3   0.082583 0.508754 0.484796 -0.005288
C8    C     C_3   0.917416 0.491246 0.515205 -0.005288
C9    C     C_1   0.174409 0.509885 0.482849 -0.047763
C10   C     C_1   0.825591 0.490114 0.517151 -0.047762
C11   C     C_1   0.065293 0.238217 0.369555 0.189523
C12   C     C_1   0.499980 0.934637 0.499568 -0.044598
C13   C     C_1   0.934707 0.761782 0.630445 0.189524
C14   C     C_1   0.961933 0.264741 0.717757 0.196254
C15   C     C_1   0.038067 0.735259 0.282243 0.196254
C16   C     C_R   0.912149 0.438163 0.187415 0.029907
C17   C     C_R   0.888390 0.546909 0.067255 -0.088836
C18   C     C_R   0.826154 0.518375 0.942464 -0.102278
C19   C     C_R   0.787592 0.381144 0.935831 -0.081159
C20   C     C_R   0.811621 0.271778 0.053173 -0.076350
C21   C     C_R   0.873708 0.299850 0.178192 -0.066193
C22   C     C_R   0.087850 0.561837 0.812585 0.029907
C23   C     C_R   0.500054 0.220134 0.500317 0.551144
C24   C     C_R   0.126293 0.700149 0.821807 -0.066193
C25   C     C_R   0.188380 0.728221 0.946826 -0.076350
C26   C     C_R   0.212408 0.618855 0.064168 -0.081159
C27   C     C_R   0.173845 0.481625 0.057538 -0.102278
C28   C     C_R   0.111609 0.453092 0.932746 -0.088836
C29   C     C_R   0.499946 0.779866 0.499683 0.551144
C30   C     C_R   0.339476 0.501971 0.497437 0.541525
C31   C     C_R   0.660524 0.498029 0.502563 0.541525
C32   C     C_3   0.982324 0.388933 0.607070 -0.022732
C33   C     C_3   0.017676 0.611067 0.392930 -0.022733
C34   C     C_3   0.029156 0.373549 0.438228 -0.022550
Cu1   Cu    Cu3+1 0.500010 0.500000 0.669080 1.022559
Cu2   Cu    Cu3+1 0.499990 0.500000 0.330920 1.022559
H1    H     H_    0.914460 0.655754 0.073856 0.140957
H2    H     H_    0.085538 0.344247 0.926146 0.140957
H3    H     H_    0.806467 0.604059 0.853457 0.136157
H4    H     H_    0.738771 0.359326 0.840675 0.137874
H5    H     H_    0.781387 0.165810 0.048640 0.130091
H6    H     H_    0.888953 0.215831 0.272769 0.131442
H7    H     H_    0.111048 0.784168 0.727229 0.131442
H8    H     H_    0.218615 0.834189 0.951358 0.130091
H9    H     H_    0.261229 0.640673 0.159325 0.137874
H10   H     H_    0.193531 0.395942 0.146545 0.136158
N1    N     N_1   0.499990 0.500000 0.076820 -0.081341
N2    N     N_1   0.500010 0.500000 0.923180 -0.081341
N3    N     N_1   0.094383 0.132111 0.315361 -0.269035
N4    N     N_1   0.905617 0.867889 0.684639 -0.269035
N5    N     N_1   0.946802 0.166219 0.805148 -0.257863
N6    N     N_1   0.053198 0.833780 0.194851 -0.257862
O1    O     O_R   0.500000 0.288400 0.642760 -0.496311
O2    O     O_R   0.500000 0.711600 0.357240 -0.496311
O3    O     O_R   0.500000 0.288400 0.357240 -0.494240
O4    O     O_R   0.500000 0.711600 0.642760 -0.494240
O5    O     O_R   0.379080 0.500000 0.642760 -0.488314
O6    O     O_R   0.620920 0.500000 0.357240 -0.488314
O7    O     O_R   0.379070 0.500000 0.357190 -0.513823
O8    O     O_R   0.620930 0.500000 0.642810 -0.513823

loop_
_geom_bond_atom_site_label_1
_geom_bond_atom_site_label_2
_ccdc_geom_bond_type
C31   O8    A    
C3    C30   S    
C6    C8    S    
C18   H3    S    
C23   O3    A    
C16   C21   A    
C3    C9    T    
C29   O4    A    
C12   C29   S    
Cu1   O1    S    
C5    C7    S    
N1    N2    T    
C6    C33   S    
C28   H2    S    
Cu1   O5    S    
C5    C32   S    
C30   O7    A    
Cu2   O7    S    
C1    C23   S    
C17   C18   A    
C25   C26   A    
Cu2   O3    S    
C22   C28   A    
C15   N6    T    
C24   C25   A    
C7    C33   S    
C26   C27   A    
C1    C12   T    
C11   N3    T    
Cu1   N2    S    
C31   O6    A    
C23   O1    A    
C20   H5    S    
Cu2   O6    S    
C14   N5    T    
C25   H8    S    
C7    C34   S    
C22   C24   A    
C4    C31   S    
Cu2   O2    S    
C19   H4    S    
C4    C10   T    
C13   N4    T    
C2    C5    S    
C30   O5    A    
C6    C34   S    
C2    C13   S    
C20   C21   A    
C27   H10   S    
Cu2   N1    S    
C8    C10   S    
C18   C19   A    
C29   O2    A    
C14   C32   S    
C27   C28   A    
C7    C9    S    
C24   H7    S    
C16   C17   A    
C17   H1    S    
C21   H6    S    
C26   H9    S    
C32   C34   S    
Cu1   O4    S    
C6    C16   S    
C15   C33   S    
C11   C34   S    
C2    C8    S    
C5    C22   S    
C19   C20   A    
C2    C33   S    
Cu1   O8    S    
Cu1   Cu2   S    
C8    C32   S    
