data_mof_unit_55168.cif
_audit_creation_date              2013-03-05T15:43:42-0500
_audit_creation_method            fapswitch 2.2
_symmetry_space_group_name_H-M    P1
_symmetry_Int_Tables_number       1
_space_group_crystal_system       triclinic
_cell_length_a                    14.632483
_cell_length_b                    14.639487
_cell_length_c                    26.423341
_cell_angle_alpha                 90.319737
_cell_angle_beta                  90.727461
_cell_angle_gamma                 120.490511
_cell_volume                      4876.59937615

loop_
_atom_site_label
_atom_site_type_symbol
_atom_site_description
_atom_site_fract_x
_atom_site_fract_y
_atom_site_fract_z
_atom_type_partial_charge
O1    O     O_R   0.137150 0.468200 0.553200 -0.488569
O2    O     O_R   0.531800 0.668950 0.553200 -0.480825
O3    O     O_R   0.331050 0.862850 0.553200 -0.482510
O4    O     O_R   0.173970 0.688730 0.549930 -0.506603
O5    O     O_R   0.311270 0.485240 0.549930 -0.502171
O6    O     O_R   0.514760 0.826030 0.549930 -0.501169
C1    C     C_R   0.267492 0.763176 0.572519 0.521963
C2    C     C_R   0.237709 0.503858 0.572447 0.521630
C3    C     C_R   0.514650 0.744274 0.574732 0.516012
O7    O     O_R   0.140110 0.470540 0.446010 -0.478825
O8    O     O_R   0.529460 0.669570 0.446010 -0.476899
O9    O     O_R   0.330430 0.859890 0.446010 -0.479166
O10   O     O_R   0.176710 0.690910 0.450560 -0.506240
O11   O     O_R   0.309090 0.485800 0.450560 -0.505532
O12   O     O_R   0.514200 0.823290 0.450560 -0.506015
C4    C     C_R   0.231044 0.788562 0.433721 0.569984
C5    C     C_R   0.209874 0.441668 0.434081 0.567982
C6    C     C_R   0.556739 0.768128 0.433576 0.567909
Cr1   Cr    Cr6+3 0.164410 0.584450 0.499910 1.026870
Cr2   Cr    Cr6+3 0.415550 0.579960 0.499910 1.030507
Cr3   Cr    Cr6+3 0.420040 0.835590 0.499910 1.031310
O13   O     O_3   0.333333 0.666667 0.499990 -0.367703
C7    C     C_3   0.497470 0.804118 0.763644 -0.238023
C8    C     C_3   0.182672 0.698305 0.764937 -0.249883
C9    C     C_3   0.267224 0.489274 0.768443 -0.245838
C10   C     C_3   0.686940 0.899521 0.739471 -0.099315
C11   C     C_3   0.102487 0.767416 0.703839 -0.075070
C12   C     C_3   0.213226 0.335847 0.711827 -0.073369
C13   C     C_3   0.714249 0.918843 0.798358 0.161726
C14   C     C_3   0.047540 0.778474 0.752359 0.195408
C15   C     C_3   0.179278 0.269033 0.761297 0.176969
H1    H     H_    0.503326 0.881332 0.756328 0.146165
H2    H     H_    0.113511 0.621986 0.754033 0.148600
H3    H     H_    0.344648 0.493532 0.766469 0.147630
H4    H     H_    0.668754 0.961014 0.726826 0.156863
H5    H     H_    0.054549 0.683739 0.690215 0.162013
H6    H     H_    0.300321 0.369870 0.708319 0.157293
C16   C     C_1   0.699341 0.849028 0.922097 0.100540
C17   C     C_1   0.094534 0.894421 0.889677 0.053221
C18   C     C_1   0.084964 0.203481 0.890095 0.093839
C19   C     C_3   0.579871 0.792362 0.729815 0.019934
C20   C     C_3   0.210303 0.777704 0.719358 0.013166
C21   C     C_3   0.199386 0.433163 0.719279 0.015164
C22   C     C_3   0.519515 0.798140 0.822395 0.072076
C23   C     C_3   0.153659 0.738035 0.815370 0.065493
C24   C     C_3   0.210562 0.426048 0.817878 0.063431
C25   C     C_3   0.632835 0.813768 0.827756 0.086999
C26   C     C_3   0.132440 0.829006 0.799722 0.094784
C27   C     C_3   0.123327 0.308427 0.800589 0.092773
C28   C     C_3   0.635197 0.714046 0.804203 0.044431
C29   C     C_3   0.242473 0.928160 0.780243 0.044716
C30   C     C_3   0.027851 0.313916 0.770371 0.084648
C31   C     C_3   0.582102 0.691460 0.749727 -0.086239
C32   C     C_3   0.294283 0.890070 0.740273 -0.077407
C33   C     C_3   0.081138 0.402891 0.729499 -0.078411
C34   C     C_1   0.662393 0.827083 0.880727 0.052504
C35   C     C_1   0.101355 0.864859 0.847047 0.056434
C36   C     C_1   0.093719 0.242598 0.848094 0.085179
C37   C     C_1   0.551699 0.778367 0.674391 -0.056617
C38   C     C_1   0.248828 0.754717 0.671944 -0.062523
C39   C     C_1   0.236030 0.493134 0.671786 -0.060463
C40   C     C_1   0.536013 0.763659 0.628873 -0.024264
C41   C     C_1   0.265429 0.755395 0.627094 -0.051203
C42   C     C_1   0.244193 0.509054 0.626844 -0.047000
H7    H     H_    0.498430 0.630509 0.753746 0.138942
H8    H     H_    0.353278 0.879085 0.761185 0.150897
H9    H     H_    0.087598 0.472516 0.747473 0.146172
H10   H     H_    0.416396 0.742408 0.751782 0.100183
H11   H     H_    0.250259 0.688169 0.771983 0.094490
H12   H     H_    0.284843 0.570613 0.769746 0.094571
O14   O     O_R   0.176750 0.985260 0.074180 -0.471376
O15   O     O_R   0.014740 0.191490 0.074180 -0.470328
O16   O     O_R   0.808510 0.823250 0.074180 -0.481944
O17   O     O_R   0.146100 0.172630 0.068980 -0.495667
O18   O     O_R   0.827370 0.973470 0.068980 -0.510229
O19   O     O_R   0.026530 0.853900 0.068980 -0.493526
C43   C     C_R   0.105859 0.222709 0.086995 0.588167
C44   C     C_R   0.778198 0.882909 0.086971 0.554563
C45   C     C_R   0.117932 0.894799 0.086540 0.588814
Cr4   Cr    Cr6+3 0.155170 0.075460 0.019960 1.096729
Cr5   Cr    Cr6+3 0.924540 0.079710 0.019960 1.084603
Cr6   Cr    Cr6+3 0.920290 0.844830 0.019960 1.084380
C46   C     C_R   0.070056 0.165013 0.942311 0.554074
C47   C     C_R   0.765151 0.879215 0.964603 0.558487
C48   C     C_R   0.090893 0.926214 0.942155 0.542684
O20   O     O_3   0.000000 0.000000 0.020040 -0.312219
O21   O     O_R   0.148270 0.170520 0.969620 -0.480816
O22   O     O_R   0.829480 0.977750 0.969620 -0.494595
O23   O     O_R   0.022250 0.851730 0.969620 -0.472923
C49   C     C_R   0.635979 0.904199 0.366936 -0.035607
C50   C     C_R   0.091868 0.731089 0.366849 -0.036037
C51   C     C_R   0.261925 0.354313 0.369811 -0.034545
C52   C     C_R   0.644467 0.909194 0.313828 0.033440
C53   C     C_R   0.085721 0.735345 0.313698 0.033695
C54   C     C_R   0.259995 0.346490 0.316707 0.032181
C55   C     C_R   0.669769 0.922622 0.206995 0.037059
C56   C     C_R   0.074303 0.748414 0.206695 0.037325
C57   C     C_R   0.252037 0.325682 0.209506 0.037401
C58   C     C_R   0.647776 0.993924 0.233704 0.029459
C59   C     C_R   0.999960 0.655344 0.232343 0.027210
C60   C     C_R   0.343815 0.344443 0.237611 0.026842
C61   C     C_R   0.619533 0.974959 0.284917 0.025155
C62   C     C_R   0.017778 0.644703 0.283806 0.024746
C63   C     C_R   0.351787 0.370833 0.289360 0.022630
C64   C     C_R   0.683510 0.924605 0.153303 -0.036031
C65   C     C_R   0.074559 0.759321 0.152959 -0.038650
C66   C     C_R   0.242499 0.314875 0.155498 -0.040294
C67   C     C_R   0.710507 0.854000 0.131648 0.025332
C68   C     C_R   0.146675 0.857247 0.132052 0.021858
C69   C     C_R   0.146132 0.291140 0.132363 0.020052
C70   C     C_R   0.679792 0.766277 0.370227 0.106392
C71   C     C_R   0.230636 0.914367 0.371936 0.108423
C72   C     C_R   0.081179 0.315156 0.370542 0.106882
C73   C     C_R   0.691740 0.769363 0.317188 0.028612
C74   C     C_R   0.228011 0.923787 0.318984 0.028466
C75   C     C_R   0.073157 0.303016 0.317318 0.028974
C76   C     C_R   0.672227 0.841405 0.288845 -0.006448
C77   C     C_R   0.154986 0.831921 0.289649 -0.007192
C78   C     C_R   0.165446 0.321356 0.290270 -0.007427
C79   C     C_R   0.712246 0.697568 0.290575 0.089460
C80   C     C_R   0.301797 0.016651 0.293621 0.089413
C81   C     C_R   0.981953 0.284640 0.289456 0.090969
C82   C     C_R   0.708348 0.695243 0.238192 -0.103534
C83   C     C_R   0.304611 0.015663 0.241298 -0.107108
C84   C     C_R   0.985875 0.290812 0.237169 -0.105598
C85   C     C_R   0.691459 0.766480 0.210570 -0.001663
C86   C     C_R   0.232594 0.927223 0.212539 -0.002352
C87   C     C_R   0.075194 0.307804 0.210825 -0.002215
C88   C     C_R   0.678963 0.844524 0.235512 0.008838
C89   C     C_R   0.152965 0.836018 0.236305 0.009282
C90   C     C_R   0.163984 0.316982 0.236881 0.008653
C91   C     C_R   0.691729 0.763402 0.158095 0.074427
C92   C     C_R   0.236656 0.930684 0.160072 0.070192
C93   C     C_R   0.074737 0.310763 0.158392 0.073253
C94   C     C_R   0.631298 0.817563 0.391692 0.009640
C95   C     C_R   0.179390 0.813706 0.392462 0.010988
C96   C     C_R   0.181212 0.362425 0.393289 0.011113
H13   H     H_    0.721866 0.637918 0.219103 0.161445
H14   H     H_    0.363673 0.086841 0.223225 0.160516
H15   H     H_    0.916026 0.279246 0.217067 0.160763
O24   O     O_R   0.179100 0.982980 0.967000 -0.464994
O25   O     O_R   0.017020 0.196120 0.967000 -0.465564
O26   O     O_R   0.803880 0.820900 0.967000 -0.495663
I1    I     I_    0.500506 0.900452 0.878714 -0.326474
I2    I     I_    0.028858 0.619791 0.864359 -0.286324
I3    I     I_    0.314443 0.430595 0.880555 -0.300910
C97   C     C_3   0.434580 0.692287 0.842956 -0.362441
H16   H     H_    0.358187 0.685976 0.836333 0.111062
H17   H     H_    0.429527 0.625083 0.823198 0.163076
H18   H     H_    0.445859 0.684054 0.884001 0.199747
C98   C     C_3   0.243172 0.774792 0.854455 -0.345280
H19   H     H_    0.243853 0.708930 0.873949 0.149804
H20   H     H_    0.316179 0.817438 0.834234 0.167382
H21   H     H_    0.239386 0.824276 0.885281 0.197773
C99   C     C_3   0.165709 0.484613 0.847733 -0.343860
H22   H     H_    0.226782 0.552648 0.869752 0.146917
H23   H     H_    0.130772 0.518537 0.822960 0.157832
H24   H     H_    0.109680 0.432839 0.876827 0.204466
C100  C     C_3   0.746386 0.733733 0.801402 -0.309869
H25   H     H_    0.783686 0.794607 0.773967 0.197077
H26   H     H_    0.789423 0.756996 0.838473 0.204118
H27   H     H_    0.747598 0.663604 0.787084 0.209983
C101  C     C_3   0.224798 0.012441 0.758691 -0.313402
H28   H     H_    0.175965 0.986892 0.724505 0.183130
H29   H     H_    0.189072 0.034965 0.789263 0.224964
H30   H     H_    0.299594 0.083263 0.747399 0.186515
C102  C     C_3   0.941178 0.211716 0.743893 -0.327064
H31   H     H_    0.965249 0.194512 0.707517 0.143042
H32   H     H_    0.915611 0.145707 0.769382 0.217344
H33   H     H_    0.869251 0.215159 0.733493 0.166257
C103  C     C_3   0.652266 0.983880 0.116672 -0.356811
H34   H     H_    0.572022 0.968954 0.125356 0.161816
H35   H     H_    0.712528 0.069399 0.116054 0.162738
H36   H     H_    0.644092 0.953835 0.077206 0.148710
C104  C     C_3   0.015664 0.667212 0.116008 -0.356114
H37   H     H_    0.027413 0.600890 0.126911 0.163520
H38   H     H_    0.930745 0.642748 0.112515 0.163250
H39   H     H_    0.048449 0.688038 0.077345 0.157932
C105  C     C_3   0.334531 0.345339 0.120422 -0.354894
H40   H     H_    0.402055 0.424242 0.131395 0.162142
H41   H     H_    0.356712 0.283489 0.118766 0.163761
H42   H     H_    0.314810 0.355847 0.080950 0.162680
C106  C     C_3   0.654183 0.998924 0.398590 -0.331810
H43   H     H_    0.710351 0.073607 0.379823 0.191464
H44   H     H_    0.578819 0.997167 0.405783 0.164949
H45   H     H_    0.691638 0.000576 0.435704 0.171076
C107  C     C_3   0.998645 0.652620 0.397802 -0.331747
H46   H     H_    0.923258 0.634546 0.379230 0.190872
H47   H     H_    0.000122 0.578518 0.403939 0.163913
H48   H     H_    0.999301 0.687234 0.435447 0.171097
C108  C     C_3   0.336129 0.334877 0.402482 -0.331862
H49   H     H_    0.352167 0.276932 0.383789 0.192425
H50   H     H_    0.411879 0.409240 0.410801 0.162829
H51   H     H_    0.298738 0.299472 0.439099 0.169507
C109  C     C_3   0.661126 0.094975 0.211045 -0.377754
H52   H     H_    0.663951 0.150792 0.240327 0.179161
H53   H     H_    0.738336 0.138986 0.191951 0.152202
H54   H     H_    0.593579 0.078601 0.185769 0.155268
C110  C     C_3   0.896584 0.569995 0.208262 -0.380903
H55   H     H_    0.838426 0.520109 0.237037 0.177453
H56   H     H_    0.857632 0.606539 0.187187 0.154159
H57   H     H_    0.908762 0.515033 0.184259 0.154274
C111  C     C_3   0.431541 0.330692 0.215717 -0.380130
H58   H     H_    0.481576 0.324308 0.245679 0.179617
H59   H     H_    0.397316 0.254997 0.194229 0.152515
H60   H     H_    0.486235 0.399631 0.192841 0.153264
C112  C     C_3   0.544008 0.007758 0.304781 -0.380384
H61   H     H_    0.496410 0.013546 0.273282 0.162460
H62   H     H_    0.485019 0.946830 0.330227 0.152069
H63   H     H_    0.588664 0.085645 0.324479 0.193883
C113  C     C_3   0.981883 0.534660 0.302735 -0.378354
H64   H     H_    0.972686 0.480971 0.270777 0.164381
H65   H     H_    0.042933 0.534749 0.328152 0.152562
H66   H     H_    0.904936 0.501875 0.322031 0.193474
C114  C     C_3   0.460538 0.446592 0.311294 -0.378066
H67   H     H_    0.514230 0.495277 0.280782 0.165403
H68   H     H_    0.458377 0.504722 0.337688 0.154063
H69   H     H_    0.493998 0.402613 0.330462 0.194425
I4    I     I_    0.653075 0.618261 0.118620 -0.391713
I5    I     I_    0.381877 0.040115 0.122921 -0.390101
I6    I     I_    0.971844 0.352447 0.118383 -0.383680
I7    I     I_    0.731463 0.573231 0.320308 -0.454871
I8    I     I_    0.429541 0.158633 0.325978 -0.450479
I9    I     I_    0.837632 0.265351 0.317801 -0.452963
I10   I     I_    0.767934 0.731495 0.424243 -0.267408
I11   I     I_    0.265311 0.036764 0.426545 -0.278124
I12   I     I_    0.956477 0.231146 0.423165 -0.279091
C115  C     C_3   0.776953 0.921204 0.703403 -0.385673
H70   H     H_    0.762740 0.946784 0.666030 0.142335
H71   H     H_    0.853430 0.986251 0.717938 0.213280
H72   H     H_    0.781868 0.850398 0.695569 0.186316
C116  C     C_3   0.098386 0.823919 0.654183 -0.364170
H73   H     H_    0.015689 0.801179 0.644099 0.186578
H74   H     H_    0.147908 0.910769 0.654900 0.156251
H75   H     H_    0.120400 0.795604 0.620416 0.157546
C117  C     C_3   0.175802 0.275492 0.659716 -0.367710
H76   H     H_    0.196308 0.212274 0.657489 0.178149
H77   H     H_    0.090240 0.240971 0.652012 0.163344
H78   H     H_    0.219611 0.326085 0.627606 0.154237
I13   I     I_    0.715348 0.064515 0.815879 -0.256109
I14   I     I_    0.904099 0.622815 0.758084 -0.327589
I15   I     I_    0.319391 0.268905 0.789506 -0.300914
I16   I     I_    0.875280 0.980024 0.828719 -0.403630
I17   I     I_    0.963177 0.850721 0.734928 -0.472340
I18   I     I_    0.081331 0.111591 0.742553 -0.489038
C118  C     C_3   0.616946 0.633623 0.711965 -0.396108
H79   H     H_    0.607221 0.560508 0.729521 0.184769
H80   H     H_    0.565358 0.607023 0.677489 0.150107
H81   H     H_    0.700138 0.682129 0.700282 0.171000
C119  C     C_3   0.365861 0.973076 0.700685 -0.395209
H82   H     H_    0.424749 0.048188 0.719982 0.175617
H83   H     H_    0.413281 0.945573 0.679991 0.144879
H84   H     H_    0.319698 0.989903 0.672718 0.155252
C120  C     C_3   0.012059 0.392954 0.682203 -0.391044
H85   H     H_    0.931330 0.373088 0.693569 0.170323
H86   H     H_    0.045805 0.470189 0.662686 0.152088
H87   H     H_    0.005999 0.333135 0.654509 0.156623
I19   I     I_    0.578829 0.575019 0.851247 -0.275633
I20   I     I_    0.360002 0.029066 0.838540 -0.269646
I21   I     I_    0.923735 0.342651 0.818464 -0.259418

loop_
_geom_bond_atom_site_label_1
_geom_bond_atom_site_label_2
_geom_bond_distance
_ccdc_geom_bond_type
O12   C6    1.324418 A    
C46   O21   1.312150 A    
C103  H34   1.107295 S    
O8    C6    1.331636 A    
C74   C80   1.414941 A    
C99   H23   1.090515 S    
O1    C2    1.376518 A    
C8    C20   1.586233 S    
C15   I15   2.173476 S    
C97   H16   1.085693 S    
C18   C46   1.469704 S    
O19   C45   1.237358 A    
C106  H43   1.105109 S    
C9    C21   1.573408 S    
O6    C3    1.367047 A    
C115  H71   1.100075 S    
C59   C110  1.517520 S    
C26   C35   1.515093 S    
C102  H32   1.083600 S    
O5    Cr2   1.980529 S    
C24   C99   1.537773 S    
C111  H59   1.106228 S    
C24   C27   1.596558 S    
O15   C43   1.212295 A    
Cr6   O23   1.975935 S    
C75   C81   1.415601 A    
C13   C25   1.601875 S    
C38   C41   1.211825 T    
C23   I2    2.209989 S    
C8    C23   1.597072 S    
C14   C26   1.635342 S    
C5    C96   1.471157 S    
C101  H29   1.103287 S    
C71   C95   1.387773 A    
C56   C89   1.431667 A    
C120  H87   1.105719 S    
Cr4   O21   1.968747 S    
O3    C1    1.377660 A    
C114  H68   1.110318 S    
C30   C102  1.541640 S    
C109  H53   1.107009 S    
C72   I12   2.140484 S    
O7    C5    1.328388 A    
C119  H83   1.110530 S    
C30   I21   2.192341 S    
C55   C58   1.424642 A    
C58   C109  1.518112 S    
C22   C97   1.520941 S    
C29   I20   2.200422 S    
C117  H76   1.109794 S    
C44   C67   1.470959 S    
C98   H21   1.107506 S    
C51   C108  1.515785 S    
C31   C118  1.553722 S    
O14   Cr4   2.080552 S    
C80   C83   1.383895 A    
C120  H86   1.111134 S    
C83   H14   1.078387 S    
O4    Cr1   1.962918 S    
C26   C29   1.619248 S    
C50   C95   1.399277 A    
O9    C4    1.324350 A    
C10   C115  1.534534 S    
C107  H48   1.111532 S    
O17   C43   1.245832 A    
C57   C90   1.434457 A    
C110  H57   1.106408 S    
C78   C90   1.411191 A    
O16   C44   1.211342 A    
C100  H26   1.111326 S    
C29   C101  1.497147 S    
C27   C36   1.515148 S    
C25   C28   1.600426 S    
C29   C32   1.563281 S    
C31   H7    1.096440 S    
C61   C112  1.509214 S    
C13   I13   2.171730 S    
O15   Cr5   2.050961 S    
C30   C33   1.573975 S    
C9    H3    1.104520 S    
C105  H42   1.110838 S    
C66   C105  1.515998 S    
C27   C30   1.637702 S    
C119  H84   1.105120 S    
C67   C91   1.402983 A    
C98   H19   1.100119 S    
C110  H55   1.107951 S    
C81   I9    2.130178 S    
Cr3   O13   2.131051 S    
C11   C14   1.572337 S    
O11   C5    1.320471 A    
C52   C76   1.412169 A    
C15   C27   1.604621 S    
O4    C1    1.369393 A    
C51   C96   1.397816 A    
O14   C45   1.206857 A    
C115  H70   1.112054 S    
C111  H60   1.106287 S    
C46   O25   1.266249 A    
C8    H11   1.085957 S    
C117  H78   1.103790 S    
C102  H33   1.110132 S    
C84   H15   1.079361 S    
C13   I16   2.190943 S    
C73   C76   1.436533 A    
C103  H36   1.110669 S    
C118  H80   1.109764 S    
O8    Cr2   2.095169 S    
O1    Cr1   2.095291 S    
C28   C31   1.578143 S    
C71   I11   2.140131 S    
C45   C68   1.467802 S    
C68   C92   1.402665 A    
C3    C40   1.455656 S    
C92   I5    2.159056 S    
C75   C78   1.437087 A    
O11   Cr2   1.943314 S    
Cr1   O13   2.130519 S    
C18   C36   1.229739 T    
C19   C37   1.500728 S    
C104  H38   1.107203 S    
C60   C111  1.517480 S    
C106  H45   1.111446 S    
C62   C113  1.509396 S    
C102  H31   1.098743 S    
C48   O23   1.280792 A    
C104  H39   1.110979 S    
O18   Cr5   1.985816 S    
C82   C85   1.395273 A    
C28   I19   2.172231 S    
C47   O26   1.242831 A    
C54   C78   1.411893 A    
C119  H82   1.110249 S    
Cr6   O20   1.957497 S    
O6    Cr3   1.959546 S    
O2    Cr2   2.059932 S    
O9    Cr3   2.075048 S    
C14   I14   2.186164 S    
C116  H75   1.100163 S    
C7    C22   1.593458 S    
C112  H61   1.109476 S    
Cr5   O22   1.938042 S    
C23   C98   1.521814 S    
C79   C82   1.384083 A    
C70   I10   2.141866 S    
C7    H10   1.105236 S    
C59   C62   1.405682 A    
C39   C42   1.207167 T    
C114  H67   1.108819 S    
C108  H50   1.108454 S    
C120  H85   1.109751 S    
C77   C89   1.411701 A    
C93   I6    2.157757 S    
C87   C93   1.386414 A    
C112  H63   1.107555 S    
C103  H35   1.107028 S    
C11   C116  1.571576 S    
C113  H64   1.109645 S    
C82   H13   1.078930 S    
C85   C91   1.387166 A    
O7    Cr1   2.072338 S    
C22   I1    2.223432 S    
C74   C77   1.435375 A    
C1    C41   1.446678 S    
C97   H18   1.111350 S    
C116  H74   1.098373 S    
C32   C119  1.555076 S    
C100  H27   1.100814 S    
C6    C94   1.475522 S    
C64   C67   1.401892 A    
C25   C34   1.442299 S    
C19   C31   1.586529 S    
C105  H40   1.106958 S    
C2    C42   1.438315 S    
C83   C86   1.395837 A    
C48   O24   1.292822 A    
C56   C65   1.429565 A    
C21   C33   1.580558 S    
Cr5   O25   2.104318 S    
C113  H65   1.110235 S    
C12   C117  1.566149 S    
C53   C62   1.415143 A    
C60   C63   1.406038 A    
C28   C100  1.504325 S    
C66   C69   1.400458 A    
C72   C96   1.388429 A    
C114  H69   1.108138 S    
O5    C2    1.378058 A    
C51   C54   1.405973 A    
C20   C38   1.485370 S    
C101  H30   1.105461 S    
C4    C95   1.470104 S    
C87   C90   1.406824 A    
C115  H72   1.093670 S    
O16   Cr6   2.089927 S    
C56   C59   1.422675 A    
C76   C88   1.413305 A    
C54   C63   1.412430 A    
C21   C39   1.478101 S    
C55   C64   1.433814 A    
C110  H56   1.107200 S    
C23   C26   1.569550 S    
C108  H49   1.104045 S    
C69   C93   1.402669 A    
C50   C107  1.515889 S    
C118  H79   1.110765 S    
C37   C40   1.218835 T    
C79   I7    2.130571 S    
C64   C103  1.516435 S    
C16   C47   1.385355 S    
C12   C15   1.565192 S    
C86   C92   1.388468 A    
C63   C114  1.508843 S    
Cr2   O13   2.146673 S    
Cr6   O26   2.076269 S    
O17   Cr4   1.973394 S    
C7    C19   1.587027 S    
C52   C61   1.414639 A    
C65   C104  1.516224 S    
C33   H9    1.081258 S    
C22   C25   1.559033 S    
C72   C75   1.412470 A    
C32   H8    1.098230 S    
C11   H5    1.113055 S    
C57   C60   1.424254 A    
C97   H17   1.079544 S    
C12   C21   1.549233 S    
Cr4   O20   1.957151 S    
C8    H2    1.094103 S    
C85   C88   1.407055 A    
C33   C120  1.556061 S    
Cr5   O20   1.971895 S    
C91   I4    2.159473 S    
C7    H1    1.107706 S    
C80   I8    2.131237 S    
C81   C84   1.385050 A    
C106  H44   1.108809 S    
C100  H25   1.068281 S    
C86   C89   1.408521 A    
C107  H46   1.102837 S    
C104  H37   1.107472 S    
C20   C32   1.562922 S    
C50   C53   1.409914 A    
C49   C94   1.401221 A    
C53   C77   1.414987 A    
C11   C20   1.556107 S    
C70   C94   1.391054 A    
C24   I3    2.211317 S    
C47   O22   1.265385 A    
C12   H6    1.113628 S    
C84   C87   1.396326 A    
O19   Cr6   1.962010 S    
C116  H73   1.108194 S    
C117  H77   1.102097 S    
C70   C73   1.412678 A    
C98   H20   1.076044 S    
C43   C69   1.468843 S    
O18   C44   1.244603 A    
C107  H47   1.108723 S    
C101  H28   1.084000 S    
O3    Cr3   2.098859 S    
C57   C66   1.432151 A    
C109  H52   1.107222 S    
C109  H54   1.105188 S    
C10   H4    1.112218 S    
O12   Cr3   1.981389 S    
C58   C61   1.407494 A    
C16   C34   1.181207 T    
C49   C106  1.516588 S    
C10   C13   1.589153 S    
Cr4   O24   2.094322 S    
O10   C4    1.317745 A    
C99   H22   1.098277 S    
C112  H62   1.110346 S    
O10   Cr1   1.976301 S    
C17   C48   1.470403 S    
C15   I18   2.056410 S    
C14   I17   2.042208 S    
C9    H12   1.083206 S    
C111  H58   1.107728 S    
C105  H41   1.106907 S    
C113  H66   1.107670 S    
O2    C3    1.371158 A    
C9    C24   1.585118 S    
C118  H81   1.102798 S    
C71   C74   1.408665 A    
C73   C79   1.416465 A    
C108  H51   1.111471 S    
C10   C19   1.572213 S    
C49   C52   1.409390 A    
C55   C88   1.433943 A    
C99   H24   1.108859 S    
C65   C68   1.400843 A    
C17   C35   1.227724 T    
