data_mof_unit_34121.cif
_audit_creation_date              2012-12-10T18:13:48-0500
_audit_creation_method            fapswitch 2.2
_symmetry_space_group_name_H-M    P1
_symmetry_Int_Tables_number       1
_space_group_crystal_system       triclinic
_cell_length_a                    10.73955
_cell_length_b                    9.449535
_cell_length_c                    23.580629
_cell_angle_alpha                 88.994436
_cell_angle_beta                  88.855693
_cell_angle_gamma                 90.045368
_cell_volume                      2392.20346329

loop_
_atom_site_label
_atom_site_type_symbol
_atom_type_description
_atom_site_fract_x
_atom_site_fract_y
_atom_site_fract_z
_atom_type_partial_charge
C1    C     C_R   0.259919 0.500216 0.499269 0.781895
C2    C     C_R   0.282742 0.506493 0.970135 -0.198366
C3    C     C_R   0.278554 0.493650 0.029204 0.405412
C4    C     C_R   0.389479 0.507941 0.060539 -0.111088
C5    C     C_R   0.502683 0.538180 0.030815 -0.069056
C6    C     C_R   0.613873 0.556586 0.060703 -0.003134
C7    C     C_R   0.725762 0.585573 0.030789 -0.129478
C8    C     C_R   0.728288 0.594121 0.971724 -0.150864
C9    C     C_R   0.392842 0.493160 0.120265 0.571868
C10   C     C_R   0.610604 0.545642 0.119993 0.531337
C11   C     C_R   0.553674 0.390123 0.239473 0.203870
C12   C     C_R   0.497525 0.501180 0.391090 0.832941
C13   C     C_R   0.551681 0.391874 0.298984 -0.307486
C14   C     C_R   0.495169 0.503322 0.328586 -0.148132
C15   C     C_R   0.436757 0.613202 0.297779 0.330544
C16   C     C_R   0.441802 0.614005 0.238753 -0.163606
C17   C     C_R   0.500245 0.504625 0.209238 0.267495
C18   C     C_R   0.502975 0.412016 0.770933 -0.155149
C19   C     C_R   0.493966 0.388274 0.712672 0.108784
C20   C     C_R   0.505536 0.505534 0.673574 -0.125870
C21   C     C_R   0.522098 0.641753 0.696659 -0.248239
C22   C     C_R   0.525244 0.664320 0.755215 0.188715
C23   C     C_R   0.739779 0.500165 0.499098 0.762084
C24   C     C_R   0.515649 0.547202 0.792484 0.308935
C25   C     C_3   0.067231 0.439426 0.556687 -0.034820
C26   C     C_3   0.072935 0.404816 0.449504 -0.040260
C27   C     C_3   0.922757 0.441523 0.556307 -0.397790
C28   C     C_3   0.927948 0.404398 0.450627 -0.370821
C29   C     C_3   0.071668 0.653035 0.488606 -0.347028
C30   C     C_3   0.121654 0.500920 0.498564 0.071497
C31   C     C_3   0.877454 0.499905 0.498680 0.095344
C32   C     C_3   0.929035 0.652631 0.489092 -0.386299
C33   C     C_3   0.591237 0.081366 0.541533 -0.198776
C34   C     C_3   0.591316 0.914660 0.541621 -0.199319
C35   C     C_3   0.374347 0.082445 0.515201 0.364632
C36   C     C_3   0.375144 0.914795 0.516823 0.355953
C37   C     C_3   0.536314 0.086049 0.444765 -0.311320
C38   C     C_3   0.535471 0.918963 0.444767 -0.302147
C39   C     C_R   0.500394 0.499298 0.609753 0.818570
C40   C     C_R   0.619820 0.579338 0.881696 0.524561
C41   C     C_R   0.400209 0.540133 0.881224 0.547014
C42   C     C_R   0.395095 0.532863 0.940670 -0.085927
C43   C     C_R   0.505324 0.549622 0.970937 -0.015673
C44   C     C_R   0.618681 0.575732 0.941289 -0.002745
Cu1   Cu    Cu3+1 0.499860 0.642410 0.500030 0.962957
Cu2   Cu    Cu3+1 0.499860 0.357590 0.500030 0.935688
H1    H     H_    0.197035 0.494324 0.947217 0.216947
H2    H     H_    0.530539 0.733850 0.668999 0.183937
H3    H     H_    0.093265 0.325448 0.557337 0.172687
H4    H     H_    0.101128 0.294700 0.461159 0.128510
H5    H     H_    0.886852 0.331991 0.563757 0.146434
H6    H     H_    0.894583 0.293762 0.457780 0.145747
H7    H     H_    0.881380 0.505913 0.590634 0.176101
H8    H     H_    0.886996 0.439994 0.410163 0.172336
H9    H     H_    0.105587 0.725902 0.521127 0.211705
H10   H     H_    0.108352 0.697510 0.447740 0.191082
H11   H     H_    0.894477 0.722906 0.523366 0.167922
H12   H     H_    0.895664 0.697409 0.448162 0.167358
H13   H     H_    0.571789 0.117106 0.584848 0.165245
H14   H     H_    0.571518 0.874578 0.585316 0.182055
H15   H     H_    0.686694 0.120081 0.530631 0.142297
H16   H     H_    0.686692 0.877154 0.530597 0.139049
H17   H     H_    0.470906 0.124563 0.411961 0.172954
H18   H     H_    0.468753 0.884076 0.412740 0.223175
H19   H     H_    0.630237 0.125857 0.431543 0.174146
H20   H     H_    0.628557 0.879173 0.430985 0.178009
H21   H     H_    0.309304 0.115738 0.481283 0.058392
H22   H     H_    0.307042 0.879633 0.485030 0.078353
H23   H     H_    0.812180 0.600087 0.052891 0.218518
H24   H     H_    0.816471 0.614680 0.950026 0.199730
H25   H     H_    0.594204 0.305455 0.322408 0.162369
H26   H     H_    0.398080 0.699458 0.215282 0.185126
H27   H     H_    0.495901 0.323701 0.800851 0.144782
N1    N     N_R   0.511477 0.561977 0.853011 -0.457402
N2    N     N_R   0.502090 0.511334 0.148277 -0.466477
N3    N     N_3   0.500250 0.143650 0.501250 -0.154803
N4    N     N_3   0.500250 0.856350 0.501250 -0.165072
O1    O     O_R   0.317570 0.620260 0.500030 -0.548994
O2    O     O_R   0.317570 0.379740 0.500030 -0.564164
O3    O     O_R   0.499840 0.620290 0.417900 -0.548044
O4    O     O_R   0.499840 0.379710 0.417900 -0.607222
O5    O     O_R   0.682190 0.620260 0.500010 -0.600839
O6    O     O_R   0.682190 0.379740 0.500010 -0.599210
O7    O     O_R   0.499920 0.620230 0.582140 -0.542955
O8    O     O_R   0.499920 0.379770 0.582140 -0.555269
O9    O     O_2   0.728434 0.596862 0.852660 -0.547117
O10   O     O_2   0.295034 0.523490 0.851623 -0.533858
O11   O     O_2   0.288828 0.460231 0.150596 -0.457544
O12   O     O_2   0.714955 0.569647 0.149334 -0.523936
C45   C     C_3   0.467817 0.236762 0.697758 -0.411908
C46   C     C_3   0.335356 0.193509 0.715700 -0.682970
H28   H     H_    0.322385 0.197297 0.762457 0.231258
H29   H     H_    0.266806 0.265335 0.695617 0.266836
H30   H     H_    0.317005 0.083689 0.702123 0.276333
H31   H     H_    0.480470 0.217590 0.652995 0.264311
H32   H     H_    0.535203 0.165818 0.719390 0.182600
C47   C     C_3   0.536685 0.813816 0.776557 -0.406871
C48   C     C_3   0.411118 0.870622 0.797152 -0.770089
H33   H     H_    0.421623 0.982951 0.809210 0.232845
H34   H     H_    0.341711 0.864098 0.762998 0.267631
H35   H     H_    0.376467 0.810088 0.834924 0.269783
H36   H     H_    0.604682 0.818427 0.811266 0.233796
H37   H     H_    0.572789 0.885712 0.742181 0.190025
C49   C     C_3   0.124643 0.496963 0.612338 -0.330573
C50   C     C_3   0.063374 0.627084 0.639146 -0.728131
H38   H     H_    0.035144 0.707439 0.607428 0.253167
H39   H     H_    0.980287 0.595206 0.665114 0.225477
H40   H     H_    0.129957 0.677000 0.668222 0.271325
H41   H     H_    0.119687 0.410796 0.644994 0.203725
H42   H     H_    0.225316 0.519141 0.605934 0.225584
C51   C     C_3   0.134832 0.430482 0.389324 -0.379626
C52   C     C_3   0.066198 0.526504 0.347142 -0.701166
H43   H     H_    0.988055 0.468598 0.327918 0.231613
H44   H     H_    0.030423 0.623888 0.366992 0.245171
H45   H     H_    0.130980 0.557647 0.311820 0.282461
H46   H     H_    0.230340 0.472880 0.393302 0.208459
H47   H     H_    0.146641 0.326194 0.368733 0.202362
Cl1   Cl    Cl    0.129980 0.460901 0.060121 -0.533808
Cl2   Cl    Cl    0.306118 0.155662 0.578117 -0.660337
Cl3   Cl    Cl    0.317598 0.841143 0.583512 -0.628526
C53   C     C_3   0.609631 0.263935 0.209706 -0.391859
C54   C     C_3   0.508490 0.162626 0.190774 -0.756157
H48   H     H_    0.450350 0.126749 0.227800 0.267001
H49   H     H_    0.448180 0.214580 0.158970 0.268619
H50   H     H_    0.552338 0.068522 0.171151 0.246435
H51   H     H_    0.667890 0.298007 0.172600 0.238274
H52   H     H_    0.672363 0.204846 0.238633 0.203768
Cl4   Cl    Cl    0.347842 0.746611 0.330363 -0.705600

loop_
_geom_bond_atom_site_label_1
_geom_bond_atom_site_label_2
_ccdc_geom_bond_type
C23   O5    A    
C11   C13   A    
C41   C42   A    
C35   Cl2   S    
C19   C20   A    
C16   H26   S    
C32   H12   S    
C52   H44   S    
C47   C48   S    
C7    C8    A    
Cu1   Cu2   S    
C50   H39   S    
C29   C30   S    
C23   O6    A    
C18   C24   A    
C39   O7    A    
C53   H52   S    
C29   C32   S    
C36   N4    S    
C26   H4    S    
C9    O11   S    
C5    C6    A    
Cu1   O5    S    
C15   C16   A    
C34   H16   S    
C18   C19   A    
C40   O9    S    
C52   H43   S    
C41   N1    A    
Cu2   O2    S    
C38   H20   S    
C10   O12   S    
C16   C17   A    
C37   H19   S    
Cu1   O1    S    
C47   H36   S    
Cu2   O8    S    
C5    C43   A    
C33   H13   S    
C22   C47   S    
C21   C22   A    
C34   H14   S    
C1    O1    A    
C11   C53   S    
C32   H11   S    
Cu2   N3    S    
C49   C50   S    
C37   H17   S    
C27   H5    S    
C38   H18   S    
C41   O10   S    
C50   H40   S    
C35   N3    S    
C27   C31   S    
C45   H31   S    
C46   H28   S    
C20   C39   S    
C28   H8    S    
C29   H9    S    
C35   C36   S    
C23   C31   S    
C43   C44   A    
C7    H23   S    
C37   C38   S    
C3    Cl1   S    
C46   H29   S    
Cu2   O4    S    
C10   N2    A    
C33   N3    S    
C31   C32   S    
C35   H21   S    
C36   H22   S    
C33   C34   S    
C53   C54   S    
C47   H37   S    
C38   N4    S    
C37   N3    S    
C12   C14   S    
C26   C30   S    
C18   H27   S    
C48   H34   S    
C15   Cl4   S    
C1    O2    A    
C22   C24   A    
Cu1   O7    S    
C42   C43   A    
C39   O8    A    
C54   H49   S    
C3    C4    A    
C25   C30   S    
C11   C17   A    
C51   C52   S    
C8    H24   S    
C28   C31   S    
C8    C44   A    
C4    C5    A    
C6    C10   A    
C27   H7    S    
C25   C49   S    
C45   H32   S    
C6    C7    A    
C29   H10   S    
C2    H1    S    
C25   C27   S    
C48   H35   S    
C13   H25   S    
C50   H38   S    
C26   C28   S    
C51   H47   S    
C51   H46   S    
C21   H2    S    
C54   H50   S    
C2    C3    A    
C54   H48   S    
C53   H51   S    
C34   N4    S    
C19   C45   S    
C46   H30   S    
C49   H42   S    
C28   H6    S    
C24   N1    S    
C45   C46   S    
C49   H41   S    
C2    C42   A    
C12   O3    A    
C1    C30   S    
C40   N1    A    
C12   O4    A    
Cu1   O3    S    
C36   Cl3   S    
C25   H3    S    
Cu2   O6    S    
C40   C44   A    
C20   C21   A    
C33   H15   S    
C48   H33   S    
C17   N2    S    
C14   C15   A    
Cu1   N4    S    
C9    N2    A    
C4    C9    A    
C13   C14   A    
C26   C51   S    
C52   H45   S    
