data_mof_unit_44212.cif
_audit_creation_date              2012-12-10T16:37:24-0500
_audit_creation_method            fapswitch 2.2
_symmetry_space_group_name_H-M    P1
_symmetry_Int_Tables_number       1
_space_group_crystal_system       triclinic
_cell_length_a                    16.778395
_cell_length_b                    16.778397
_cell_length_c                    16.778398
_cell_angle_alpha                 65.978702
_cell_angle_beta                  65.978759
_cell_angle_gamma                 65.978782
_cell_volume                      3772.13736616

loop_
_atom_site_label
_atom_site_type_symbol
_atom_type_description
_atom_site_fract_x
_atom_site_fract_y
_atom_site_fract_z
_atom_type_partial_charge
C1    C     C_R   0.401991 0.045956 0.664304 -0.260154
C2    C     C_R   0.401991 0.664305 0.045955 -0.260155
C3    C     C_1   0.380988 0.762234 0.130399 0.192397
C4    C     C_1   0.869601 0.619012 0.237766 0.192397
C5    C     C_1   0.130399 0.380988 0.762233 0.192397
C6    C     C_R   0.954045 0.598008 0.335695 -0.260155
C7    C     C_R   0.045954 0.401992 0.664305 -0.260155
C8    C     C_R   0.961975 0.179632 0.438031 0.905315
C9    C     C_R   0.038024 0.820368 0.561969 0.905315
C10   C     C_R   0.179632 0.438031 0.961976 0.905315
C11   C     C_R   0.820368 0.561969 0.038024 0.905315
C12   C     C_R   0.438031 0.961975 0.179632 0.905315
C13   C     C_R   0.561969 0.038024 0.820368 0.905315
C14   C     C_R   0.561969 0.820368 0.038024 0.905316
C15   C     C_R   0.598009 0.954044 0.335696 -0.260154
C16   C     C_R   0.438031 0.179632 0.961976 0.905316
C17   C     C_R   0.038025 0.561969 0.820368 0.905314
C18   C     C_R   0.961975 0.438031 0.179632 0.905314
C19   C     C_R   0.820368 0.038024 0.561969 0.905315
C20   C     C_R   0.179632 0.961976 0.438031 0.905315
C21   C     C_R   0.442101 0.074145 0.702784 0.013917
C22   C     C_R   0.557899 0.925855 0.297216 0.013916
C23   C     C_R   0.074145 0.702784 0.442101 0.013917
C24   C     C_R   0.925855 0.297216 0.557899 0.013917
C25   C     C_R   0.702784 0.442101 0.074145 0.013917
C26   C     C_R   0.045957 0.664304 0.401991 -0.260155
C27   C     C_R   0.297216 0.557899 0.925855 0.013916
C28   C     C_R   0.297215 0.925856 0.557899 0.013917
C29   C     C_R   0.702785 0.074144 0.442101 0.013917
C30   C     C_R   0.557899 0.297216 0.925856 0.013916
C31   C     C_R   0.442101 0.702784 0.074144 0.013917
C32   C     C_R   0.925856 0.557899 0.297215 0.013917
C33   C     C_R   0.074144 0.442101 0.702785 0.013917
C34   C     C_R   0.540259 0.027535 0.540259 0.020406
C35   C     C_R   0.459741 0.972465 0.459741 0.020406
C36   C     C_R   0.027535 0.540259 0.540259 0.020406
C37   C     C_R   0.954043 0.335696 0.598009 -0.260155
C38   C     C_R   0.972465 0.459741 0.459741 0.020406
C39   C     C_R   0.540259 0.540259 0.027535 0.020406
C40   C     C_R   0.459741 0.459741 0.972465 0.020406
C41   C     C_R   0.586076 0.016078 0.452252 0.044337
C42   C     C_R   0.413924 0.983922 0.547748 0.044337
C43   C     C_R   0.016078 0.452252 0.586076 0.044337
C44   C     C_R   0.983922 0.547748 0.413924 0.044337
C45   C     C_R   0.452252 0.586076 0.016078 0.044337
C46   C     C_R   0.547748 0.413924 0.983922 0.044337
C47   C     C_R   0.547748 0.983921 0.413924 0.044337
C48   C     C_R   0.664304 0.401991 0.045956 -0.260154
C49   C     C_R   0.452252 0.016079 0.586076 0.044337
C50   C     C_R   0.413924 0.547748 0.983921 0.044337
C51   C     C_R   0.586076 0.452252 0.016079 0.044337
C52   C     C_R   0.983921 0.413924 0.547748 0.044337
C53   C     C_R   0.016079 0.586076 0.452252 0.044337
C54   C     C_R   0.537613 0.061756 0.670844 0.027068
C55   C     C_R   0.462386 0.938244 0.329156 0.027068
C56   C     C_R   0.061756 0.670844 0.537613 0.027068
C57   C     C_R   0.938244 0.329156 0.462387 0.027068
C58   C     C_R   0.670844 0.537613 0.061756 0.027068
C59   C     C_R   0.335696 0.598009 0.954044 -0.260154
C60   C     C_R   0.329156 0.462387 0.938244 0.027067
C61   C     C_R   0.329156 0.938245 0.462387 0.027067
C62   C     C_R   0.670844 0.061755 0.537613 0.027067
C63   C     C_R   0.462387 0.329156 0.938244 0.027067
C64   C     C_R   0.537613 0.670844 0.061756 0.027068
C65   C     C_R   0.938244 0.462387 0.329156 0.027068
C66   C     C_R   0.061755 0.537613 0.670844 0.027068
C67   C     C_R   0.589846 0.061748 0.720779 -0.132480
C68   C     C_R   0.410153 0.938252 0.279221 -0.132479
C69   C     C_R   0.061748 0.720779 0.589846 -0.132479
C70   C     C_R   0.335695 0.954045 0.598009 -0.260154
C71   C     C_R   0.938252 0.279221 0.410154 -0.132479
C72   C     C_R   0.720779 0.589846 0.061748 -0.132479
C73   C     C_R   0.279221 0.410154 0.938252 -0.132479
C74   C     C_R   0.279221 0.938252 0.410154 -0.132479
C75   C     C_R   0.720779 0.061748 0.589846 -0.132479
C76   C     C_R   0.410154 0.279221 0.938252 -0.132479
C77   C     C_R   0.589846 0.720779 0.061748 -0.132479
C78   C     C_R   0.938251 0.410154 0.279221 -0.132479
C79   C     C_R   0.061748 0.589846 0.720779 -0.132479
C80   C     C_R   0.678130 0.066037 0.678130 -0.272212
C81   C     C_R   0.664305 0.045955 0.401991 -0.260154
C82   C     C_R   0.321870 0.933962 0.321870 -0.272213
C83   C     C_R   0.066038 0.678130 0.678130 -0.272213
C84   C     C_R   0.933962 0.321870 0.321870 -0.272213
C85   C     C_R   0.678130 0.678130 0.066037 -0.272213
C86   C     C_R   0.321870 0.321870 0.933963 -0.272212
C87   C     C_R   0.583021 0.050092 0.583021 0.042662
C88   C     C_R   0.416978 0.949908 0.416979 0.042662
C89   C     C_R   0.050092 0.583021 0.583021 0.042662
C90   C     C_R   0.949908 0.416979 0.416979 0.042662
C91   C     C_R   0.583021 0.583021 0.050092 0.042662
C92   C     C_R   0.598009 0.335695 0.954044 -0.260154
C93   C     C_R   0.416979 0.416979 0.949908 0.042663
C94   C     C_1   0.380989 0.130400 0.762233 0.192396
C95   C     C_1   0.619011 0.869600 0.237767 0.192396
C96   C     C_1   0.130400 0.762233 0.380988 0.192397
C97   C     C_1   0.869600 0.237767 0.619012 0.192397
C98   C     C_1   0.762234 0.380988 0.130399 0.192397
C99   C     C_1   0.237766 0.619012 0.869601 0.192397
C100  C     C_1   0.237766 0.869601 0.619012 0.192397
C101  C     C_1   0.762233 0.130399 0.380988 0.192397
C102  C     C_1   0.619012 0.237766 0.869601 0.192397
H1    H     H_    0.329383 0.054386 0.692053 0.146565
H2    H     H_    0.329383 0.692053 0.054385 0.146565
H3    H     H_    0.945616 0.670616 0.307946 0.146566
H4    H     H_    0.054383 0.329384 0.692054 0.146565
H5    H     H_    0.717112 0.064434 0.717112 0.211124
H6    H     H_    0.282888 0.935566 0.282888 0.211124
H7    H     H_    0.064435 0.717112 0.717112 0.211124
H8    H     H_    0.935565 0.282888 0.282888 0.211124
H9    H     H_    0.717112 0.717112 0.064433 0.211124
H10   H     H_    0.282888 0.282888 0.935567 0.211124
H11   H     H_    0.670616 0.945614 0.307947 0.146565
H12   H     H_    0.054387 0.692053 0.329383 0.146565
H13   H     H_    0.945613 0.307947 0.670617 0.146565
H14   H     H_    0.692053 0.329383 0.054386 0.146565
H15   H     H_    0.307947 0.670617 0.945614 0.146565
H16   H     H_    0.307946 0.945616 0.670616 0.146565
H17   H     H_    0.692054 0.054384 0.329384 0.146565
H18   H     H_    0.670616 0.307947 0.945615 0.146565
N1    N     N_1   0.332091 0.175306 0.809986 -0.191654
N2    N     N_1   0.332090 0.809987 0.175304 -0.191654
N3    N     N_1   0.824695 0.667910 0.190013 -0.191654
N4    N     N_1   0.175305 0.332090 0.809987 -0.191654
N5    N     N_1   0.667909 0.824694 0.190014 -0.191654
N6    N     N_1   0.175306 0.809987 0.332091 -0.191655
N7    N     N_1   0.824694 0.190013 0.667909 -0.191655
N8    N     N_1   0.809987 0.332090 0.175305 -0.191654
N9    N     N_1   0.190013 0.667910 0.824695 -0.191654
N10   N     N_1   0.190013 0.824695 0.667910 -0.191655
N11   N     N_1   0.809987 0.175305 0.332090 -0.191655
N12   N     N_1   0.667910 0.190013 0.824696 -0.191654
O1    O     O_R   0.982940 0.138950 0.510160 -0.625900
O2    O     O_R   0.982940 0.510160 0.138950 -0.625900
O3    O     O_R   0.861050 0.017060 0.489840 -0.625900
O4    O     O_R   0.138950 0.982940 0.510160 -0.625900
O5    O     O_R   0.867700 0.025880 0.612340 -0.614653
O6    O     O_R   0.132300 0.974120 0.387660 -0.614653
O7    O     O_R   0.025880 0.612340 0.867700 -0.614652
O8    O     O_R   0.974120 0.387660 0.132300 -0.614652
O9    O     O_R   0.612340 0.867700 0.025880 -0.614653
O10   O     O_R   0.387660 0.132300 0.974120 -0.614653
O11   O     O_R   0.387660 0.974120 0.132300 -0.614653
O12   O     O_R   0.017060 0.861050 0.489840 -0.625900
O13   O     O_R   0.612340 0.025880 0.867700 -0.614652
O14   O     O_R   0.132300 0.387660 0.974120 -0.614653
O15   O     O_R   0.867700 0.612340 0.025880 -0.614653
O16   O     O_R   0.974120 0.132300 0.387660 -0.614653
O17   O     O_R   0.025880 0.867700 0.612340 -0.614653
O18   O     O_R   0.138950 0.510160 0.982940 -0.625900
O19   O     O_R   0.861050 0.489840 0.017060 -0.625900
O20   O     O_R   0.510160 0.982940 0.138950 -0.625900
O21   O     O_R   0.489840 0.017060 0.861050 -0.625900
O22   O     O_R   0.489840 0.861050 0.017060 -0.625901
O23   O     O_R   0.510160 0.138950 0.982940 -0.625900
O24   O     O_R   0.017060 0.489840 0.861050 -0.625900
Zn1   Zn    Zn3+2 0.004880 0.004880 0.583590 0.988505
Zn2   Zn    Zn3+2 0.995120 0.995120 0.416410 0.988505
Zn3   Zn    Zn3+2 0.004880 0.583590 0.004880 0.988506
Zn4   Zn    Zn3+2 0.995120 0.416410 0.995120 0.988506
Zn5   Zn    Zn3+2 0.583590 0.004880 0.004880 0.988505
Zn6   Zn    Zn3+2 0.416410 0.995120 0.995120 0.988505

loop_
_geom_bond_atom_site_label_1
_geom_bond_atom_site_label_2
_ccdc_geom_bond_type
C36   C89   A    
C39   C51   A    
C1    C21   A    
C22   C95   S    
C12   O20   A    
C86   H10   S    
C17   C79   S    
C40   C93   A    
C97   N7    T    
O14   Zn4   S    
O15   Zn3   S    
C72   C85   A    
C23   C56   A    
O23   Zn5   S    
C40   C46   A    
C66   C79   A    
C12   C68   S    
C5    N4    T    
C9    O17   A    
C50   C59   A    
C102  N12   T    
C27   C60   A    
C13   C67   S    
C54   C87   A    
C10   C73   S    
C100  N10   T    
C43   C52   A    
C23   C26   A    
C46   C92   A    
C21   C94   S    
C19   O3    A    
C60   C73   A    
C42   C70   A    
C23   C96   S    
C64   C77   A    
C14   C77   S    
C20   O6    A    
C55   C88   A    
C35   C42   A    
C95   N5    T    
C36   C53   A    
C44   C53   A    
C15   C22   A    
C24   C57   A    
C8    C71   S    
C5    C33   S    
C15   H11   S    
C7    C43   A    
C58   C91   A    
C1    H1    S    
O11   Zn6   S    
O20   Zn5   S    
C3    N2    T    
C19   O5    A    
C39   C45   A    
C60   C93   A    
C28   C100  S    
C98   N8    T    
O2    Zn3   S    
C14   O9    A    
O7    Zn3   S    
C59   H15   S    
O3    Zn2   S    
C6    C44   A    
C30   C63   A    
C14   O22   A    
C7    C33   A    
C8    O16   A    
C34   C41   A    
C74   C82   A    
C39   C91   A    
C9    O12   A    
C33   C66   A    
C55   C68   A    
C66   C89   A    
C48   C51   A    
C2    C45   A    
C65   C90   A    
C6    C32   A    
O18   Zn3   S    
C99   N9    T    
C96   N6    T    
C24   C97   S    
O24   Zn4   S    
C30   C92   A    
C57   C90   A    
C37   C52   A    
C11   C72   S    
C54   C67   A    
C46   C51   A    
C11   O15   A    
C84   H8    S    
C4    N3    T    
C2    C31   A    
C16   O10   A    
C26   H12   S    
C38   C44   A    
C69   C83   A    
C61   C88   A    
C35   C88   A    
O6    Zn2   S    
C80   H5    S    
C2    H2    S    
C18   C78   S    
C41   C81   A    
C30   C102  S    
C16   O23   A    
C83   H7    S    
C24   C37   A    
C41   C47   A    
C7    H4    S    
C20   C74   S    
C17   O7    A    
O16   Zn2   S    
C57   C71   A    
C18   O8    A    
C20   O4    A    
C25   C48   A    
C13   O21   A    
C4    C32   S    
C29   C101  S    
O4    Zn1   S    
C101  N11   T    
C11   O19   A    
C56   C89   A    
C10   O14   A    
C29   C81   A    
C82   H6    S    
C13   O13   A    
C62   C75   A    
C25   C58   A    
O12   Zn2   S    
C26   C53   A    
C76   C86   A    
C71   C84   A    
C75   C80   A    
C63   C93   A    
C29   C62   A    
C34   C49   A    
C65   C78   A    
C8    O1    A    
C16   C76   S    
C31   C64   A    
O22   Zn6   S    
C28   C70   A    
C67   C80   A    
C9    C69   S    
C85   H9    S    
O10   Zn6   S    
C22   C55   A    
C37   H13   S    
O5    Zn1   S    
C61   C74   A    
C62   C87   A    
C38   C90   A    
C36   C43   A    
C12   O11   A    
C48   H14   S    
O21   Zn6   S    
C68   C82   A    
O19   Zn4   S    
C19   C75   S    
C92   H18   S    
C81   H17   S    
C28   C61   A    
C3    C31   S    
C79   C83   A    
C58   C72   A    
C21   C54   A    
O13   Zn5   S    
C45   C50   A    
C70   H16   S    
C40   C50   A    
C1    C49   A    
C6    H3    S    
C18   O2    A    
O1    Zn1   S    
C34   C87   A    
O9    Zn5   S    
C27   C99   S    
C73   C86   A    
C42   C49   A    
C77   C85   A    
C94   N1    T    
C78   C84   A    
C25   C98   S    
C38   C52   A    
C56   C69   A    
C63   C76   A    
C15   C47   A    
C27   C59   A    
C64   C91   A    
C35   C47   A    
O8    Zn4   S    
C17   O24   A    
O17   Zn1   S    
C10   O18   A    
C32   C65   A    
