data_mof_unit_32560.cif
_audit_creation_date              2012-12-10T17:05:24-0500
_audit_creation_method            fapswitch 2.2
_symmetry_space_group_name_H-M    P1
_symmetry_Int_Tables_number       1
_space_group_crystal_system       triclinic
_cell_length_a                    10.039613
_cell_length_b                    10.687782
_cell_length_c                    15.439462
_cell_angle_alpha                 90.290226
_cell_angle_beta                  67.216902
_cell_angle_gamma                 91.819562
_cell_volume                      1526.59770593

loop_
_atom_site_label
_atom_site_type_symbol
_atom_type_description
_atom_site_fract_x
_atom_site_fract_y
_atom_site_fract_z
_atom_type_partial_charge
C1    C     C_R   0.503572 0.737485 0.498297 0.981066
C2    C     C_R   0.728647 0.511866 0.028720 -0.041136
C3    C     C_R   0.591601 0.457264 0.085310 -0.014800
C4    C     C_R   0.408926 0.497813 0.676420 0.942142
C5    C     C_R   0.822676 0.558216 0.069795 -0.116920
C6    C     C_R   0.779352 0.554781 0.167007 -0.095869
C7    C     C_R   0.566045 0.431954 0.179461 0.696047
C8    C     C_2   0.628102 0.069858 0.446642 0.447179
C9    C     C_2   0.505479 0.132429 0.472160 0.280118
C10   C     C_2   0.623186 0.935688 0.435059 0.428171
C11   C     C_2   0.512335 0.870074 0.498753 -0.420635
C12   C     C_R   0.420834 0.445145 0.909852 -0.087710
C13   C     C_2   0.101877 0.422885 0.450477 0.745092
C14   C     C_2   0.955564 0.430289 0.444922 -0.138877
C15   C     C_R   0.501134 0.262577 0.494211 0.879513
C16   C     C_R   0.590848 0.497836 0.323897 0.963218
C17   C     C_R   0.351405 0.474937 0.777766 -0.341135
C18   C     C_R   0.649136 0.493144 0.221894 -0.209787
C19   C     C_R   0.186975 0.364953 0.916328 -0.166576
C20   C     C_R   0.222232 0.405857 0.824201 0.534858
C21   C     C_R   0.441719 0.504350 0.824637 0.637070
C22   C     C_R   0.285753 0.383340 0.960375 -0.224279
C23   C     C_R   0.528488 0.451697 0.947797 -0.114347
C24   C     C_R   0.487374 0.430841 0.045381 -0.197414
C25   C     C_R   0.341991 0.391235 0.099015 0.643404
C26   C     C_R   0.250636 0.349466 0.054901 0.350762
C27   C     C_R   0.675859 0.478839 0.891112 0.781812
C28   C     C_R   0.772073 0.515192 0.931702 -0.229651
F1    F     F_    0.757458 0.127487 0.433689 -0.585819
F2    F     F_    0.382437 0.077133 0.469861 -0.602643
F3    F     F_    0.190637 0.332910 0.399412 -0.498644
F4    F     F_    0.473080 0.338313 0.228336 -0.546649
F5    F     F_    0.130907 0.376930 0.780754 -0.616796
F6    F     F_    0.544250 0.597356 0.789009 -0.607480
F7    F     F_    0.281030 0.405582 0.193456 -0.558410
F8    F     F_    0.729848 0.464338 0.796414 -0.602944
H1    H     H_    0.926735 0.601111 0.027173 0.162651
H2    H     H_    0.933337 0.939573 0.210909 0.391990
H3    H     H_    0.429727 0.914727 0.557745 0.164774
H4    H     H_    0.084847 0.571492 0.532727 0.123851
H5    H     H_    0.934691 0.371799 0.393622 0.252860
H6    H     H_    0.868722 0.547613 0.551688 0.200153
H7    H     H_    0.847938 0.598148 0.198959 0.220002
H8    H     H_    0.881667 0.544121 0.886928 0.198284
H9    H     H_    0.082700 0.318669 0.951749 0.237715
H10   H     H_    0.973288 0.112682 0.081296 0.394801
N1    N     N_2   0.148330 0.498670 0.499030 -0.232651
N2    N     N_2   0.852680 0.498640 0.499000 -0.201592
O1    O     O_R   0.386950 0.680940 0.500010 -0.604259
O2    O     O_2   0.962469 0.338102 0.143172 -0.336246
O3    O     O_3   0.077981 0.134942 0.057321 -0.550227
O4    O     O_2   0.854314 0.790595 0.364449 -0.265232
O5    O     O_2   0.684415 0.789649 0.284998 -0.356210
O6    O     O_3   0.857252 0.983661 0.262120 -0.443188
O7    O     O_R   0.613110 0.680900 0.499990 -0.567206
O8    O     O_R   0.322330 0.500030 0.632270 -0.574580
O9    O     O_R   0.548480 0.499990 0.632240 -0.551441
O10   O     O_R   0.386890 0.319100 0.500010 -0.511120
O11   O     O_R   0.613050 0.319060 0.499990 -0.596279
O12   O     O_R   0.451520 0.500010 0.367760 -0.542684
O13   O     O_R   0.677670 0.499970 0.367730 -0.599200
O14   O     O_2   0.098053 0.212800 0.211189 -0.113862
S1    S     S_3+6 0.092266 0.259089 0.120979 0.090974
S2    S     S_3+6 0.757377 0.869407 0.335098 0.092259
Zn1   Zn    Zn3+2 0.349000 0.500030 0.500020 1.129254
Zn2   Zn    Zn3+2 0.651000 0.499970 0.499980 1.094477

loop_
_geom_bond_atom_site_label_1
_geom_bond_atom_site_label_2
_ccdc_geom_bond_type
C4    O9    A    
H4    N1    S    
C14   N2    D    
C23   C24   A    
C19   H9    S    
O14   S1    D    
C21   F6    S    
C23   C27   A    
C27   F8    S    
O10   Zn1   S    
C19   C20   A    
H2    O6    S    
O9    Zn2   S    
C26   S1    S    
C7    C18   A    
C10   C11   D    
O7    Zn2   S    
C2    C3    A    
C9    C15   S    
O3    S1    S    
H6    N2    S    
C13   C14   S    
C4    O8    A    
C11   H3    S    
O2    S1    D    
C12   C23   A    
C3    C24   A    
O1    Zn1   S    
C9    F2    S    
C25   F7    S    
C14   H5    S    
C16   O12   A    
C8    F1    S    
C12   C21   A    
N1    Zn1   S    
C8    C10   S    
O5    S2    D    
C13   F3    S    
O12   Zn1   S    
C3    C7    A    
C6    H7    S    
O11   Zn2   S    
C1    O7    A    
C5    C6    A    
C6    C18   A    
C15   O10   A    
C17   C21   A    
C2    C5    A    
C16   O13   A    
C20   F5    S    
C22   C26   A    
O8    Zn1   S    
C12   C22   A    
C17   C20   A    
C4    C17   S    
C24   C25   A    
O6    S2    S    
C16   C18   S    
C19   C22   A    
O4    S2    D    
C27   C28   A    
C13   N1    D    
C1    O1    A    
C5    H1    S    
C2    C28   A    
C7    F4    S    
O13   Zn2   S    
N2    Zn2   S    
C25   C26   A    
C15   O11   A    
H10   O3    S    
C28   H8    S    
C10   S2    S    
C8    C9    D    
C1    C11   S    
