data_mof_unit_67943.cif
_audit_creation_date              2013-03-05T16:22:15-0500
_audit_creation_method            fapswitch 2.2
_symmetry_space_group_name_H-M    P1
_symmetry_Int_Tables_number       1
_space_group_crystal_system       triclinic
_cell_length_a                    10.774192
_cell_length_b                    10.682467
_cell_length_c                    9.959706
_cell_angle_alpha                 88.856969
_cell_angle_beta                  85.390655
_cell_angle_gamma                 87.368083
_cell_volume                      1141.24700408

loop_
_atom_site_label
_atom_site_type_symbol
_atom_site_description
_atom_site_fract_x
_atom_site_fract_y
_atom_site_fract_z
_atom_type_partial_charge
O1    O     O_R   0.500010 0.313960 0.616610 -0.626748
O2    O     O_R   0.499990 0.686040 0.383390 -0.622518
O3    O     O_R   0.500060 0.313950 0.383350 -0.616421
O4    O     O_R   0.499940 0.686050 0.616650 -0.628147
C1    C     C_R   0.507447 0.257812 0.501047 0.872432
C2    C     C_R   0.491100 0.741631 0.499866 0.873085
O5    O     O_R   0.313930 0.499970 0.616610 -0.620903
O6    O     O_R   0.686070 0.500030 0.383390 -0.607701
O7    O     O_R   0.313980 0.499960 0.383350 -0.620161
O8    O     O_R   0.686020 0.500040 0.616650 -0.621056
C3    C     C_R   0.257953 0.499003 0.504490 0.887144
C4    C     C_R   0.742320 0.499935 0.495443 0.894331
Zn1   Zn    Zn3+2 0.499970 0.500010 0.655740 0.922392
Zn2   Zn    Zn3+2 0.500030 0.499990 0.344260 0.928555
C5    C     C_3   0.027514 0.439124 0.614068 0.184481
C6    C     C_3   0.973500 0.558549 0.384968 0.182484
C7    C     C_3   0.964518 0.380868 0.498497 0.158341
C8    C     C_3   0.036705 0.616662 0.500440 0.162834
C9    C     C_3   0.878172 0.499280 0.488444 -0.151716
C10   C     C_3   0.122536 0.498420 0.510923 -0.145586
C11   C     C_3   0.941989 0.557822 0.604235 0.172701
C12   C     C_3   0.059231 0.439988 0.395004 0.168996
C13   C     C_3   0.571935 0.027048 0.601892 0.042515
C14   C     C_3   0.427857 0.971407 0.403994 0.034145
C15   C     C_3   0.612996 0.943421 0.480106 0.187786
C16   C     C_3   0.387067 0.054486 0.526456 0.177469
C17   C     C_3   0.489554 0.876811 0.499598 -0.144895
C18   C     C_3   0.510029 0.121516 0.505411 -0.153196
C19   C     C_3   0.448480 0.959393 0.622133 0.082303
C20   C     C_3   0.551922 0.038048 0.384035 0.076160
C21   C     C_3   0.481348 0.389178 0.052217 -0.178907
C22   C     C_3   0.518384 0.610807 0.947210 -0.156927
C23   C     C_3   0.585967 0.425199 0.946073 0.262099
C24   C     C_3   0.413979 0.575151 0.053178 0.271631
H1    H     H_    0.458373 0.297090 0.097345 0.127269
H2    H     H_    0.541129 0.702446 0.900931 0.124932
N1    N     N_3   0.499910 0.500030 0.863290 -0.104349
N2    N     N_3   0.500090 0.499970 0.136710 -0.105993
C25   C     C_3   0.396133 0.465587 0.961818 0.232412
C26   C     C_3   0.603778 0.534857 0.037723 0.221270
C27   C     C_3   0.932838 0.243977 0.499406 -0.964860
H3    H     H_    0.997230 0.186992 0.559602 0.263841
H4    H     H_    0.837083 0.235642 0.545192 0.223730
H5    H     H_    0.943049 0.207720 0.395957 0.256261
C28   C     C_3   0.072285 0.752437 0.499279 -0.963376
H6    H     H_    0.016952 0.809877 0.429725 0.261150
H7    H     H_    0.052262 0.791392 0.600712 0.258141
H8    H     H_    0.172262 0.756732 0.466121 0.219774
C29   C     C_3   0.041902 0.369002 0.746616 -0.922225
H9    H     H_    0.961163 0.309580 0.770529 0.250258
H10   H     H_    0.126875 0.307748 0.738131 0.249081
H11   H     H_    0.043507 0.435791 0.829708 0.252462
C30   C     C_3   0.959383 0.627950 0.251990 -0.923079
H12   H     H_    0.040357 0.686965 0.227652 0.249817
H13   H     H_    0.958412 0.560440 0.169445 0.250527
H14   H     H_    0.874284 0.689314 0.259806 0.250669
C31   C     C_3   0.881988 0.623789 0.728753 -0.895719
H15   H     H_    0.954927 0.657474 0.789639 0.228749
H16   H     H_    0.820747 0.703312 0.699327 0.239418
H17   H     H_    0.826136 0.556664 0.790687 0.275491
C32   C     C_3   0.124018 0.374867 0.272248 -0.889034
H18   H     H_    0.056180 0.330224 0.213258 0.226155
H19   H     H_    0.172852 0.445239 0.207425 0.273556
H20   H     H_    0.192971 0.303671 0.304628 0.243251
C33   C     C_3   0.737672 0.873498 0.446129 -0.949247
H21   H     H_    0.815579 0.934963 0.459725 0.236969
H22   H     H_    0.746172 0.789105 0.511312 0.245216
H23   H     H_    0.742195 0.843464 0.340114 0.241084
C34   C     C_3   0.262141 0.122168 0.564994 -0.937829
H24   H     H_    0.185169 0.057754 0.558760 0.246930
H25   H     H_    0.261938 0.155102 0.669522 0.242038
H26   H     H_    0.248450 0.204997 0.498594 0.237290
C35   C     C_3   0.648241 0.060012 0.717977 -0.403883
C36   C     C_3   0.727662 0.948289 0.767398 -0.339342
C37   C     C_3   0.789315 0.979373 0.893919 -0.930000
H27   H     H_    0.855077 0.055645 0.872019 0.270205
H28   H     H_    0.717267 0.009180 0.973505 0.266876
H29   H     H_    0.841868 0.895179 0.930265 0.260769
H30   H     H_    0.669430 0.866102 0.788410 0.225611
H31   H     H_    0.803538 0.923565 0.689775 0.240264
H32   H     H_    0.710267 0.135412 0.684210 0.197234
H33   H     H_    0.581997 0.095032 0.801343 0.208695
C38   C     C_3   0.349750 0.944058 0.287588 -0.401903
C39   C     C_3   0.275581 0.061654 0.243835 -0.341505
C40   C     C_3   0.217441 0.043550 0.112596 -0.939500
H34   H     H_    0.290936 0.014647 0.033991 0.271231
H35   H     H_    0.146203 0.971645 0.127375 0.274594
H36   H     H_    0.171299 0.132941 0.080143 0.261535
H37   H     H_    0.197958 0.083361 0.320614 0.242487
H38   H     H_    0.337076 0.142261 0.231804 0.229065
H39   H     H_    0.414119 0.908974 0.202647 0.209855
H40   H     H_    0.284262 0.870611 0.318959 0.197075
C41   C     C_3   0.383303 0.922438 0.759009 -0.391099
C42   C     C_3   0.269801 0.843513 0.742941 -0.302802
C43   C     C_3   0.159556 0.877235 0.843340 -0.935856
H41   H     H_    0.180830 0.846267 0.945500 0.272367
H42   H     H_    0.136152 0.979623 0.840550 0.278816
H43   H     H_    0.076434 0.827730 0.819324 0.249888
H44   H     H_    0.239389 0.858789 0.640785 0.225988
H45   H     H_    0.295496 0.742224 0.754907 0.247743
H46   H     H_    0.449654 0.870314 0.820219 0.180582
H47   H     H_    0.355745 0.010457 0.812698 0.199732
C44   C     C_3   0.619277 0.077929 0.250221 -0.391156
C45   C     C_3   0.742068 0.138035 0.274307 -0.319929
C46   C     C_3   0.780843 0.233794 0.167173 -0.901448
H48   H     H_    0.814458 0.186407 0.072542 0.264900
H49   H     H_    0.701699 0.300656 0.153144 0.297144
H50   H     H_    0.857314 0.288101 0.200176 0.250093
H51   H     H_    0.731005 0.187417 0.371073 0.230953
H52   H     H_    0.818416 0.065171 0.277878 0.223047
H53   H     H_    0.638317 0.993744 0.187415 0.178987
H54   H     H_    0.556940 0.143157 0.197439 0.208873
C47   C     C_3   0.685688 0.334895 0.883344 -0.952889
H55   H     H_    0.779002 0.363505 0.906472 0.243931
H56   H     H_    0.669609 0.239922 0.924835 0.235525
H57   H     H_    0.681254 0.331505 0.773614 0.289755
C48   C     C_3   0.313697 0.667898 0.110692 -0.938330
H58   H     H_    0.333301 0.762337 0.069068 0.228543
H59   H     H_    0.221311 0.641897 0.081566 0.236250
H60   H     H_    0.312633 0.670803 0.221349 0.283382
C49   C     C_3   0.277937 0.421378 0.912205 -0.908113
H61   H     H_    0.217567 0.381447 0.995629 0.224612
H62   H     H_    0.229355 0.502921 0.865882 0.262506
H63   H     H_    0.302823 0.347444 0.837004 0.265284
C50   C     C_3   0.720544 0.584062 0.085995 -0.913835
H64   H     H_    0.771572 0.505482 0.133643 0.265015
H65   H     H_    0.779523 0.624353 0.001603 0.228454
H66   H     H_    0.693917 0.658675 0.160030 0.264688

loop_
_geom_bond_atom_site_label_1
_geom_bond_atom_site_label_2
_geom_bond_distance
_ccdc_geom_bond_type
N2    C26   1.485074 S    
C41   C42   1.537348 S    
C17   C19   1.543953 S    
C8    C11   1.539016 S    
C35   C36   1.532756 S    
C43   H41   1.101977 S    
C14   C17   1.539911 S    
C37   H27   1.111107 S    
C43   H43   1.105395 S    
C30   H12   1.108039 S    
C30   H14   1.100812 S    
O5    C3    1.311522 A    
C38   H40   1.103038 S    
C46   H49   1.102743 S    
O1    C1    1.303538 A    
C22   H2    1.103036 S    
C9    C11   1.545817 S    
C14   C38   1.526629 S    
C14   C16   1.545845 S    
C34   H24   1.107917 S    
C48   H59   1.107748 S    
C45   H51   1.103338 S    
C28   H8    1.103733 S    
C44   H53   1.107700 S    
C27   H3    1.106720 S    
O4    Zn1   2.017496 S    
C34   H25   1.105348 S    
C6    C30   1.519767 S    
C49   H63   1.108389 S    
C2    C17   1.443334 S    
C33   H22   1.105086 S    
C20   C44   1.527950 S    
C50   H66   1.108950 S    
C6    C12   1.539360 S    
C21   C23   1.538929 S    
Zn1   N1    2.067088 S    
C47   H57   1.099143 S    
C29   H11   1.105081 S    
C24   C48   1.517230 S    
C30   H13   1.105359 S    
C36   H31   1.105666 S    
C27   H4    1.100650 S    
O2    C2    1.308434 A    
C39   H38   1.109204 S    
C13   C35   1.527169 S    
C35   H32   1.100431 S    
C45   C46   1.511144 S    
C19   C41   1.535429 S    
C7    C27   1.516516 S    
C28   H7    1.101728 S    
C5    C10   1.539248 S    
C46   H50   1.103841 S    
C3    C10   1.455550 S    
C23   C26   1.527657 S    
C22   N1    1.492124 S    
C36   C37   1.520155 S    
C40   H35   1.110074 S    
C24   C25   1.525149 S    
C15   C33   1.523727 S    
C39   C40   1.513638 S    
O4    C2    1.303660 A    
C48   H60   1.102286 S    
C41   H46   1.101223 S    
C31   H17   1.104132 S    
C29   H10   1.099194 S    
C40   H34   1.105811 S    
C23   N1    1.485594 S    
C5    C29   1.520093 S    
C44   H54   1.100957 S    
C22   C24   1.535198 S    
C32   H20   1.100539 S    
O7    Zn2   2.011062 S    
C11   C31   1.522058 S    
Zn2   N2    2.067088 S    
C1    C18   1.454814 S    
O7    C3    1.305071 A    
C38   C39   1.532476 S    
C42   H45   1.110969 S    
O6    C4    1.312013 A    
C33   H23   1.106346 S    
C32   H19   1.105054 S    
C42   C43   1.524695 S    
C13   C18   1.545689 S    
C37   H28   1.104863 S    
C49   H61   1.104473 S    
O3    Zn2   2.017496 S    
O8    C4    1.306734 A    
C10   C12   1.543419 S    
C33   H21   1.107449 S    
C36   H30   1.109239 S    
C50   H64   1.102621 S    
C27   H5    1.103393 S    
C21   H1    1.103561 S    
O1    Zn1   2.032913 S    
C39   H37   1.106550 S    
C8    C28   1.516734 S    
C13   C19   1.539999 S    
C35   H33   1.109682 S    
C34   H26   1.105604 S    
C47   H55   1.107023 S    
C40   H36   1.110591 S    
C15   C20   1.540093 S    
C5    C7    1.538127 S    
C22   C26   1.533951 S    
O6    Zn2   2.072502 S    
C24   N2    1.492269 S    
C16   C18   1.532419 S    
O3    C1    1.312499 A    
O8    Zn1   2.011061 S    
C41   H47   1.107735 S    
C43   H42   1.111414 S    
C15   C17   1.533884 S    
C38   H39   1.109781 S    
C46   H48   1.105912 S    
C23   C47   1.515337 S    
C7    C12   1.538443 S    
C25   C49   1.501528 S    
C21   N2    1.496227 S    
C18   C20   1.542228 S    
N1    C25   1.481739 S    
C48   H58   1.105913 S    
C12   C32   1.522550 S    
C45   H52   1.108407 S    
C31   H15   1.107271 S    
C5    C11   1.539064 S    
C42   H44   1.100564 S    
C6    C9    1.543191 S    
C26   C50   1.502715 S    
C4    C9    1.459456 S    
C7    C9    1.541881 S    
C21   C25   1.534445 S    
C8    C10   1.537703 S    
C13   C15   1.544572 S    
C32   H18   1.104094 S    
O2    Zn2   2.032913 S    
C37   H29   1.110739 S    
C14   C20   1.540168 S    
C49   H62   1.107486 S    
C31   H16   1.101177 S    
C28   H6    1.107973 S    
O5    Zn1   2.072503 S    
C16   C19   1.542323 S    
C6    C8    1.537838 S    
C29   H9    1.108042 S    
C44   C45   1.534681 S    
C50   H65   1.104701 S    
C16   C34   1.523273 S    
C47   H56   1.103627 S    
