data_mof_unit_51360.cif
_audit_creation_date              2012-10-26T20:07:47-0400
_audit_creation_method            fapswitch 2.2
_symmetry_space_group_name_H-M    P1
_symmetry_Int_Tables_number       1
_space_group_crystal_system       triclinic
_cell_length_a                    9.493999
_cell_length_b                    10.822954
_cell_length_c                    17.044257
_cell_angle_alpha                 89.66587
_cell_angle_beta                  92.53473
_cell_angle_gamma                 89.660412
_cell_volume                      1749.57368468

loop_
_atom_site_label
_atom_site_type_symbol
_atom_type_description
_atom_site_fract_x
_atom_site_fract_y
_atom_site_fract_z
_atom_type_partial_charge
C1    C     C_R   0.500463 0.262200 0.497134 0.575371
C2    C     C_R   0.070186 0.574606 0.449633 0.074054
C3    C     C_R   0.515595 0.500969 0.651377 0.609542
C4    C     C_R   0.484391 0.500686 0.348582 0.616139
C5    C     C_R   0.519352 0.513145 0.737791 -0.079013
C6    C     C_R   0.480817 0.492539 0.261952 -0.074837
C7    C     C_R   0.392256 0.524240 0.777426 0.343642
C8    C     C_R   0.608162 0.489348 0.222092 0.305417
C9    C     C_R   0.394023 0.543991 0.858554 0.187620
C10   C     C_R   0.607444 0.470782 0.140912 0.138953
C11   C     C_R   0.524753 0.544080 0.901575 0.107795
C12   C     C_R   0.499636 0.737689 0.503050 0.563054
C13   C     C_R   0.476950 0.466337 0.097793 0.095247
C14   C     C_R   0.650625 0.537276 0.862054 0.440287
C15   C     C_R   0.350867 0.467639 0.137320 0.444594
C16   C     C_R   0.648551 0.521581 0.781023 0.341149
C17   C     C_R   0.352182 0.480393 0.218595 0.348646
C18   C     C_R   0.404867 0.067954 0.542758 -0.138450
C19   C     C_R   0.596089 0.931665 0.458309 -0.123047
C20   C     C_R   0.403019 0.939876 0.548052 0.173028
C21   C     C_R   0.598634 0.059661 0.453339 0.230673
C22   C     C_R   0.498828 0.871480 0.504167 -0.031826
C23   C     C_R   0.501813 0.128244 0.496583 -0.022092
C24   C     C_R   0.078741 0.425183 0.550396 0.546035
C25   C     C_R   0.921268 0.574896 0.449654 0.537702
C26   C     C_R   0.929809 0.425321 0.550325 0.079820
Cu1   Cu    Cu3+1 0.640660 0.500020 0.500000 1.191993
Cu2   Cu    Cu3+1 0.359340 0.499980 0.500000 1.198649
F1    F     F_    0.734101 0.502826 0.262057 -0.499238
F2    F     F_    0.265665 0.516946 0.737348 -0.475424
F3    F     F_    0.776550 0.543815 0.902569 -0.473954
F4    F     F_    0.225443 0.458101 0.096583 -0.475245
F5    F     F_    0.773444 0.514100 0.745400 -0.515655
F6    F     F_    0.227170 0.481127 0.254357 -0.515054
F7    F     F_    0.152958 0.349557 0.600794 -0.548216
F8    F     F_    0.847088 0.650857 0.399458 -0.545621
H1    H     H_    0.332472 0.121699 0.576427 0.215488
H2    H     H_    0.668408 0.877758 0.424701 0.217949
H3    H     H_    0.876860 0.365335 0.590416 0.184891
H4    H     H_    0.123133 0.634614 0.409553 0.179812
H5    H     H_    0.712728 0.274298 0.040062 0.352016
H6    H     H_    0.069476 0.457946 0.950087 0.439451
H7    H     H_    0.109273 0.874049 0.529010 0.350367
H8    H     H_    0.696789 0.253594 0.290225 0.398264
N1    N     N_2   0.532935 0.548899 0.984438 -0.089735
N2    N     N_2   0.468948 0.461825 0.014874 -0.110579
N3    N     N_R   0.852070 0.500030 0.499980 -0.275134
N4    N     N_R   0.147930 0.499970 0.500020 -0.268738
O1    O     O_R   0.618740 0.319660 0.500000 -0.473551
O2    O     O_2   0.877684 0.390203 0.152945 -0.118459
O3    O     O_3   0.749130 0.352219 0.018166 -0.433274
O4    O     O_2   0.255343 0.651976 0.975303 -0.186499
O5    O     O_2   0.130338 0.637772 0.847172 -0.095055
O6    O     O_3   0.162801 0.436795 0.929879 -0.387489
O7    O     O_2   0.362414 0.772198 0.661236 -0.213653
O8    O     O_2   0.228843 0.965108 0.668276 -0.196458
O9    O     O_3   0.150300 0.806208 0.562103 -0.468878
O10   O     O_2   0.836378 0.187691 0.435974 -0.244279
O11   O     O_2   0.778229 0.032011 0.336400 -0.224672
O12   O     O_R   0.381260 0.680340 0.500000 -0.477424
O13   O     O_3   0.632695 0.235647 0.333090 -0.515464
O14   O     O_R   0.381170 0.319630 0.500010 -0.479833
O15   O     O_R   0.618830 0.680370 0.499990 -0.478761
O16   O     O_R   0.631780 0.498870 0.613920 -0.479616
O17   O     O_R   0.368220 0.501130 0.386080 -0.479081
O18   O     O_R   0.394210 0.498840 0.613930 -0.380250
O19   O     O_R   0.605790 0.501160 0.386070 -0.383514
O20   O     O_2   0.824488 0.569127 0.068564 -0.093438
S1    S     S_3+6 0.770342 0.446682 0.095734 0.191523
S2    S     S_3+6 0.232102 0.572777 0.903791 0.216902
S3    S     S_3+6 0.285821 0.870638 0.613451 0.101431
S4    S     S_3+6 0.717891 0.128186 0.388922 0.074006

loop_
_geom_bond_atom_site_label_1
_geom_bond_atom_site_label_2
_ccdc_geom_bond_type
C4    O19   A    
Cu2   O18   S    
C20   S3    S    
C7    C9    A    
C19   H2    S    
C12   C22   S    
C16   F5    S    
Cu2   O14   S    
C5    C7    A    
C25   N3    A    
O6    S2    S    
C13   C15   A    
C14   F3    S    
O8    S3    D    
O3    S1    S    
C1    O14   A    
Cu2   O12   S    
Cu2   O17   S    
H5    O3    S    
C15   F4    S    
C7    F2    S    
N1    N2    D    
O9    S3    S    
C9    C11   A    
O10   S4    D    
C13   N2    S    
Cu1   O15   S    
C26   N3    A    
O5    S2    D    
O11   S4    D    
C4    C6    S    
C19   C21   A    
O2    S1    D    
C20   C22   A    
C1    C23   S    
C2    C25   A    
C18   C20   A    
C21   C23   A    
C3    O16   A    
C4    O17   A    
H8    O13   S    
C11   C14   A    
C14   C16   A    
C26   H3    S    
C11   N1    S    
C3    O18   A    
O4    S2    D    
Cu1   O16   S    
C8    F1    S    
C25   F8    S    
Cu1   O1    S    
C18   C23   A    
C24   N4    A    
C10   S1    S    
C2    H4    S    
C19   C22   A    
Cu1   O19   S    
C9    S2    S    
O13   S4    S    
C8    C10   A    
C17   F6    S    
Cu1   N3    S    
Cu1   Cu2   S    
C15   C17   A    
C6    C17   A    
H7    O9    S    
Cu2   N4    S    
C5    C16   A    
C6    C8    A    
C21   S4    S    
C2    N4    A    
C24   F7    S    
C12   O15   A    
C1    O1    A    
C18   H1    S    
O7    S3    D    
H6    O6    S    
C24   C26   A    
O20   S1    D    
C3    C5    S    
C10   C13   A    
C12   O12   A    
