data_mof_unit_14297.cif
_audit_creation_date              2012-12-10T16:39:40-0500
_audit_creation_method            fapswitch 2.2
_symmetry_space_group_name_H-M    P1
_symmetry_Int_Tables_number       1
_space_group_crystal_system       triclinic
_cell_length_a                    17.242248
_cell_length_b                    16.879537
_cell_length_c                    17.033716
_cell_angle_alpha                 67.459842
_cell_angle_beta                  68.05609
_cell_angle_gamma                 66.415116
_cell_volume                      4051.69164473

loop_
_atom_site_label
_atom_site_type_symbol
_atom_type_description
_atom_site_fract_x
_atom_site_fract_y
_atom_site_fract_z
_atom_type_partial_charge
C1    C     C_R   0.312101 0.999023 0.440709 -0.009693
C2    C     C_R   0.319148 0.457950 0.964105 0.005266
C3    C     C_R   0.544282 0.418392 0.974597 0.007227
C4    C     C_R   0.989543 0.464204 0.591189 -0.002936
C5    C     C_R   0.010011 0.535559 0.409165 -0.003276
C6    C     C_1   0.274158 0.932182 0.272769 0.330000
C7    C     C_1   0.754618 0.983815 0.754389 0.306364
C8    C     C_1   0.024457 0.242932 0.249405 0.293029
C9    C     C_1   0.977041 0.756625 0.750867 0.286768
C10   C     C_1   0.254445 0.250947 0.040013 0.264151
C11   C     C_1   0.747353 0.749386 0.962645 0.261605
C12   C     C_1   0.480159 0.894899 0.806543 0.237866
C13   C     C_R   0.045152 0.671394 0.551216 -0.011976
C14   C     C_1   0.513955 0.105939 0.195928 0.241676
C15   C     C_1   0.148475 0.728268 0.417025 0.251358
C16   C     C_1   0.853290 0.267010 0.585546 0.252707
C17   C     C_1   0.772193 0.380588 0.080665 0.251802
C18   C     C_1   0.228249 0.619563 0.914484 0.250281
C19   C     C_1   0.193469 0.100566 0.524503 0.249022
C20   C     C_1   0.808587 0.900049 0.470678 0.245935
C21   C     C_1   0.590229 0.256114 0.857296 0.264791
C22   C     C_1   0.415212 0.733760 0.142486 0.261911
C23   C     C_1   0.109751 0.495954 0.199166 0.264663
C24   C     C_R   0.953428 0.328813 0.449267 -0.010525
C25   C     C_1   0.890253 0.504120 0.800412 0.263972
C26   C     C_R   0.449109 0.002698 0.450197 0.006115
C27   C     C_R   0.550965 0.997313 0.549977 0.005937
C28   C     C_R   0.987008 0.454959 0.453488 0.011396
C29   C     C_R   0.012165 0.544973 0.546928 0.011576
C30   C     C_R   0.455652 0.459350 0.977039 0.013861
C31   C     C_R   0.546947 0.542650 0.014235 0.013872
C32   C     C_R   0.969319 0.178315 0.435082 0.884756
C33   C     C_R   0.689897 0.995123 0.560852 -0.008789
C34   C     C_R   0.030414 0.821694 0.565022 0.872672
C35   C     C_R   0.177248 0.435128 0.971510 0.894526
C36   C     C_R   0.822912 0.564913 0.028025 0.895124
C37   C     C_R   0.432981 0.976992 0.176306 0.874042
C38   C     C_R   0.569426 0.015917 0.825866 0.878985
C39   C     C_R   0.565671 0.821748 0.028961 0.867793
C40   C     C_R   0.434825 0.178341 0.969787 0.881335
C41   C     C_R   0.018909 0.568837 0.824761 0.893038
C42   C     C_R   0.981149 0.431102 0.175261 0.893059
C43   C     C_R   0.825607 0.016496 0.569214 0.883138
C44   C     C_R   0.995563 0.440061 0.313694 -0.015760
C45   C     C_R   0.176433 0.977234 0.432807 0.876056
C46   C     C_R   0.400393 0.997900 0.401982 0.039250
C47   C     C_R   0.601033 0.997759 0.599486 0.041435
C48   C     C_R   0.977284 0.408670 0.405763 0.046845
C49   C     C_R   0.021774 0.591373 0.594636 0.044500
C50   C     C_R   0.408303 0.415243 0.964475 0.042012
C51   C     C_R   0.594048 0.586273 0.027893 0.038932
C52   C     C_R   0.268395 0.979858 0.395718 -0.155212
C53   C     C_R   0.737412 0.003136 0.609814 -0.161202
C54   C     C_R   0.987121 0.391912 0.266280 -0.167486
C55   C     C_R   0.004280 0.559724 0.686542 -0.016462
C56   C     C_R   0.012741 0.608010 0.733862 -0.166692
C57   C     C_R   0.398905 0.275243 0.962190 -0.154736
C58   C     C_R   0.602388 0.725314 0.033983 -0.152455
C59   C     C_R   0.611382 0.001990 0.737165 -0.156860
C60   C     C_R   0.394739 0.980106 0.268599 -0.150518
C61   C     C_R   0.730426 0.597456 0.029614 -0.144537
C62   C     C_R   0.270431 0.402939 0.967700 -0.145464
C63   C     C_R   0.033914 0.727225 0.602894 -0.147697
C64   C     C_R   0.965288 0.272885 0.397369 -0.150587
C65   C     C_R   0.483624 0.971928 0.729798 0.000665
C66   C     C_R   0.451057 0.329361 0.949388 -0.015879
C67   C     C_R   0.515332 0.026791 0.270855 0.001404
C68   C     C_R   0.073351 0.694787 0.458304 -0.006645
C69   C     C_R   0.925660 0.305032 0.542429 -0.013685
C70   C     C_R   0.718387 0.451352 0.024641 -0.007156
C71   C     C_R   0.282977 0.549457 0.969972 -0.006164
C72   C     C_R   0.271229 0.023302 0.521107 -0.005166
C73   C     C_R   0.729345 0.975381 0.478179 -0.006156
C74   C     C_R   0.543710 0.299175 0.928018 -0.007951
C75   C     C_R   0.458977 0.701203 0.065132 0.005281
C76   C     C_R   0.032792 0.511211 0.271046 0.001638
C77   C     C_R   0.551180 0.671770 0.043403 -0.018541
C78   C     C_R   0.967567 0.488259 0.729216 0.004007
C79   C     C_R   0.313716 0.962867 0.313452 -0.138040
C80   C     C_R   0.699868 0.998583 0.699321 -0.128889
C81   C     C_R   0.988850 0.303502 0.305397 -0.125966
C82   C     C_R   0.010988 0.696459 0.694773 -0.126558
C83   C     C_R   0.308343 0.310487 0.984663 -0.113423
C84   C     C_R   0.692738 0.689928 0.013427 -0.116638
C85   C     C_R   0.677055 0.994185 0.422613 -0.052209
C86   C     C_R   0.322618 0.007095 0.576611 -0.053993
C87   C     C_R   0.975217 0.431283 0.682812 -0.041521
C88   C     C_R   0.563923 0.993166 0.689444 -0.013996
C89   C     C_R   0.025031 0.568235 0.317442 -0.042328
C90   C     C_R   0.414194 0.666034 0.038624 -0.024323
C91   C     C_R   0.588594 0.335486 0.953318 -0.021065
C92   C     C_R   0.572201 0.009436 0.320758 -0.053418
C93   C     C_R   0.426759 0.992159 0.678939 -0.051538
C94   C     C_R   0.323863 0.580905 0.004819 -0.043186
C95   C     C_R   0.678325 0.420763 0.987989 -0.041999
C96   C     C_R   0.950053 0.340648 0.589733 -0.033781
C97   C     C_R   0.049561 0.658972 0.410778 -0.037116
C98   C     C_R   0.712750 0.000843 0.331623 0.119888
C99   C     C_R   0.437672 0.000594 0.312640 -0.015093
C100  C     C_R   0.286214 0.001700 0.667149 0.120386
C101  C     C_R   0.966093 0.344229 0.725389 0.141097
C102  C     C_R   0.034571 0.655157 0.274829 0.141037
C103  C     C_R   0.324297 0.704765 0.041335 0.136575
C104  C     C_R   0.678503 0.296922 0.951454 0.132835
C105  C     C_R   0.661607 0.003807 0.282055 0.118650
C106  C     C_R   0.336900 0.999139 0.716913 0.118334
C107  C     C_R   0.278774 0.649721 0.047541 0.143985
C108  C     C_R   0.723740 0.352337 0.944958 0.144603
C109  C     C_R   0.952270 0.299030 0.679207 0.151420
C110  C     C_R   0.682437 0.542943 0.030520 0.008388
C111  C     C_R   0.048418 0.700233 0.321095 0.153696
C112  C     C_R   0.536773 0.003180 0.410763 -0.002235
C113  C     C_R   0.462744 0.998261 0.589005 -0.002141
C114  C     C_R   0.976619 0.419197 0.544691 0.000876
C115  C     C_R   0.022686 0.580638 0.455742 -0.000631
C116  C     C_R   0.412928 0.541230 0.998944 0.009668
C117  C     C_R   0.589592 0.460810 0.992544 0.010514
C118  C     C_R   0.588050 0.999257 0.460788 -0.001550
C119  C     C_R   0.411624 0.002130 0.538866 -0.001796
C120  C     C_R   0.458415 0.583658 0.016517 0.004207
I1    I     I_    0.273128 0.028684 0.841094 -0.205868
I2    I     I_    0.250704 0.837368 0.050781 -0.186083
I3    I     I_    0.017159 0.720824 0.144089 -0.210225
I4    I     I_    0.982592 0.279213 0.856502 -0.212463
I5    I     I_    0.724243 0.975686 0.157245 -0.205559
I6    I     I_    0.053926 0.835353 0.258975 -0.178082
I7    I     I_    0.948446 0.163373 0.741402 -0.177318
I8    I     I_    0.751182 0.409325 0.805973 -0.370716
I9    I     I_    0.249353 0.594129 0.186559 -0.362581
I10   I     I_    0.163691 0.973955 0.733662 -0.211727
I11   I     I_    0.835734 0.027787 0.264453 -0.211566
I12   I     I_    0.752906 0.162978 0.947621 -0.186340
N1    N     N_1   0.241280 0.910287 0.239698 -0.100866
N2    N     N_1   0.795156 0.237172 0.619501 -0.156999
N3    N     N_1   0.814787 0.323619 0.125591 -0.149339
N4    N     N_1   0.184926 0.675994 0.869973 -0.149793
N5    N     N_1   0.132265 0.163053 0.527057 -0.174900
N6    N     N_1   0.870932 0.839061 0.464927 -0.172759
N7    N     N_1   0.626950 0.222382 0.800403 -0.152417
N8    N     N_1   0.381770 0.757571 0.205670 -0.174101
N9    N     N_1   0.171521 0.479503 0.143049 -0.183798
N10   N     N_1   0.828073 0.521334 0.855814 -0.186598
N11   N     N_1   0.797875 0.973357 0.797813 -0.113421
N12   N     N_1   0.051288 0.194510 0.205794 -0.135745
N13   N     N_1   0.951708 0.804295 0.794953 -0.135367
N14   N     N_1   0.212839 0.202690 0.083763 -0.164506
N15   N     N_1   0.790362 0.796847 0.922900 -0.164658
N16   N     N_1   0.477529 0.832591 0.866779 -0.179414
N17   N     N_1   0.512736 0.169859 0.137064 -0.180023
N18   N     N_1   0.209424 0.753590 0.385159 -0.174510
O1    O     O_R   0.982940 0.138950 0.510160 -0.614074
O2    O     O_R   0.982940 0.510160 0.138950 -0.624167
O3    O     O_R   0.861050 0.017060 0.489840 -0.620970
O4    O     O_R   0.138950 0.982940 0.510160 -0.619880
O5    O     O_R   0.867700 0.025880 0.612340 -0.616766
O6    O     O_R   0.132300 0.974120 0.387660 -0.620614
O7    O     O_R   0.025880 0.612340 0.867700 -0.621752
O8    O     O_R   0.974120 0.387660 0.132300 -0.622133
O9    O     O_R   0.612340 0.867700 0.025880 -0.612653
O10   O     O_R   0.387660 0.132300 0.974120 -0.607743
O11   O     O_R   0.387660 0.974120 0.132300 -0.620700
O12   O     O_R   0.017060 0.861050 0.489840 -0.616697
O13   O     O_R   0.612340 0.025880 0.867700 -0.617261
O14   O     O_R   0.132300 0.387660 0.974120 -0.614138
O15   O     O_R   0.867700 0.612340 0.025880 -0.613899
O16   O     O_R   0.974120 0.132300 0.387660 -0.619189
O17   O     O_R   0.025880 0.867700 0.612340 -0.622977
O18   O     O_R   0.138950 0.510160 0.982940 -0.634373
O19   O     O_R   0.861050 0.489840 0.017060 -0.635560
O20   O     O_R   0.510160 0.982940 0.138950 -0.617731
O21   O     O_R   0.489840 0.017060 0.861050 -0.618964
O22   O     O_R   0.489840 0.861050 0.017060 -0.619313
O23   O     O_R   0.510160 0.138950 0.982940 -0.617348
O24   O     O_R   0.017060 0.489840 0.861050 -0.624760
Zn1   Zn    Zn3+2 0.004880 0.004880 0.583590 1.068342
Zn2   Zn    Zn3+2 0.995120 0.995120 0.416410 1.067150
Zn3   Zn    Zn3+2 0.004880 0.583590 0.004880 1.054294
Zn4   Zn    Zn3+2 0.995120 0.416410 0.995120 1.053055
Zn5   Zn    Zn3+2 0.583590 0.004880 0.004880 1.066326
Zn6   Zn    Zn3+2 0.416410 0.995120 0.995120 1.066075

loop_
_geom_bond_atom_site_label_1
_geom_bond_atom_site_label_2
_ccdc_geom_bond_type
C78   C87   A    
C44   C48   A    
C62   C83   A    
C60   C79   A    
C32   O16   A    
C89   C102  A    
O15   Zn3   S    
C25   N10   T    
C91   C104  A    
C107  I9    S    
C60   C99   A    
C16   N2    T    
C7    N11   T    
C102  C111  A    
C38   O21   A    
C71   C94   A    
C29   C49   A    
C95   C117  A    
O3    Zn2   S    
C36   O19   A    
C98   C105  A    
O4    Zn1   S    
C4    C114  A    
C35   C62   S    
C6    N1    T    
C40   O23   A    
C97   C111  A    
C100  I10   S    
C1    C46   A    
O12   Zn2   S    
O22   Zn6   S    
O23   Zn5   S    
O5    Zn1   S    
O18   Zn3   S    
C66   C74   A    
C22   N8    T    
C10   C83   S    
C106  I1    S    
C3    C91   A    
C20   N6    T    
O2    Zn3   S    
C44   C76   A    
C59   C88   A    
C34   C63   S    
C85   C98   A    
C70   C110  A    
C58   C77   A    
C113  C119  A    
C109  I7    S    
O10   Zn6   S    
C31   C120  A    
C98   I11   S    
C17   N3    T    
C14   C67   S    
C57   C83   A    
C18   N4    T    
C86   C119  A    
C97   C115  A    
C52   C79   A    
C86   C100  A    
C116  C120  A    
O24   Zn4   S    
C4    C29   A    
C75   C90   A    
C67   C99   A    
C9    C82   S    
C69   C96   A    
C65   C93   A    
C29   C115  A    
C101  C109  A    
C17   C70   S    
C24   C64   A    
C87   C101  A    
C102  I3    S    
C5    C115  A    
C96   C114  A    
C19   C72   S    
C42   O8    A    
C22   C75   S    
C43   O5    A    
C61   C110  A    
C7    C80   S    
C41   O24   A    
C43   C53   S    
C24   C69   A    
C33   C53   A    
C90   C103  A    
C94   C107  A    
C1    C72   A    
O1    Zn1   S    
C63   C82   A    
C8    C81   S    
C101  I4    S    
C53   C80   A    
C26   C119  A    
C32   C64   S    
O9    Zn5   S    
C37   O20   A    
C4    C87   A    
C55   C78   A    
C94   C116  A    
C92   C112  A    
C30   C116  A    
C45   C52   S    
C49   C55   A    
C39   C58   S    
C21   C74   S    
C25   C78   S    
C24   C48   A    
C74   C91   A    
C3    C30   A    
C51   C77   A    
C41   C56   S    
C31   C117  A    
C39   O22   A    
C58   C84   A    
C93   C106  A    
C5    C28   A    
C75   C77   A    
C13   C63   A    
C19   N5    T    
C111  I6    S    
C35   O18   A    
C68   C97   A    
C8    N12   T    
C45   O6    A    
O7    Zn3   S    
C108  I8    S    
O11   Zn6   S    
C50   C66   A    
C73   C85   A    
C28   C114  A    
C10   N14   T    
C41   O7    A    
C27   C113  A    
C33   C73   A    
C38   O13   A    
C51   C110  A    
C2    C50   A    
O13   Zn5   S    
C33   C47   A    
C13   C49   A    
O21   Zn6   S    
C21   N7    T    
C2    C71   A    
C26   C112  A    
O19   Zn4   S    
C104  C108  A    
O14   Zn4   S    
C65   C88   A    
C37   O11   A    
C12   C65   S    
C27   C118  A    
C27   C47   A    
C18   C71   S    
C28   C48   A    
C40   C57   S    
C39   O9    A    
C67   C92   A    
C100  C106  A    
C40   O10   A    
C16   C69   S    
C31   C51   A    
C34   O12   A    
C61   C84   A    
O6    Zn2   S    
C59   C80   A    
C72   C86   A    
C56   C82   A    
C11   C84   S    
C96   C109  A    
C76   C89   A    
O16   Zn2   S    
C35   O14   A    
C105  I5    S    
O20   Zn5   S    
C47   C88   A    
C12   N16   T    
C46   C99   A    
C70   C95   A    
O8    Zn4   S    
C57   C66   A    
C42   C54   S    
C112  C118  A    
C11   N15   T    
C6    C79   S    
C32   O1    A    
C15   C68   S    
C14   N17   T    
C9    N13   T    
C36   O15   A    
C20   C73   S    
C93   C113  A    
O17   Zn1   S    
C15   N18   T    
C30   C50   A    
C85   C118  A    
C1    C52   A    
C64   C81   A    
C37   C60   S    
C95   C108  A    
C26   C46   A    
C55   C56   A    
C38   C59   S    
C44   C54   A    
C92   C105  A    
C104  I12   S    
C23   C76   S    
C34   O17   A    
C23   N9    T    
C103  C107  A    
C45   O4    A    
C3    C117  A    
C43   O3    A    
C103  I2    S    
C2    C62   A    
C54   C81   A    
C5    C89   A    
C36   C61   S    
C90   C120  A    
C42   O2    A    
C13   C68   A    
