data_mof_unit_20925.cif
_audit_creation_date              2012-12-10T16:50:58-0500
_audit_creation_method            fapswitch 2.2
_symmetry_space_group_name_H-M    P1
_symmetry_Int_Tables_number       1
_space_group_crystal_system       triclinic
_cell_length_a                    8.082526
_cell_length_b                    8.532713
_cell_length_c                    10.582196
_cell_angle_alpha                 92.306635
_cell_angle_beta                  87.386102
_cell_angle_gamma                 93.01143
_cell_volume                      727.520023814

loop_
_atom_site_label
_atom_site_type_symbol
_atom_type_description
_atom_site_fract_x
_atom_site_fract_y
_atom_site_fract_z
_atom_type_partial_charge
Br1   Br    Br    0.030820 0.286215 0.370488 -0.443808
Br2   Br    Br    0.969180 0.713785 0.629513 -0.443808
C1    C     C_R   0.544088 0.792984 0.497146 0.932827
C2    C     C_R   0.933978 0.508289 0.074863 -0.072991
C3    C     C_R   0.071216 0.597819 0.031045 -0.158344
C4    C     C_R   0.928784 0.402180 0.968955 -0.158345
C5    C     C_R   0.209159 0.607128 0.106524 -0.177712
C6    C     C_R   0.790841 0.392871 0.893475 -0.177711
C7    C     C_R   0.351727 0.533788 0.063210 0.110317
C8    C     C_R   0.648273 0.466211 0.936790 0.110317
C9    C     C_R   0.353263 0.456641 0.944185 0.086239
C10   C     C_R   0.646737 0.543357 0.055815 0.086239
C11   C     C_R   0.498277 0.552221 0.126572 -0.244542
C12   C     C_R   0.455912 0.207016 0.502854 0.932827
C13   C     C_R   0.501722 0.447778 0.873428 -0.244542
C14   C     C_2   0.566662 0.957088 0.495330 -0.358817
C15   C     C_2   0.433338 0.042912 0.504670 -0.358817
C16   C     C_R   0.500737 0.480300 0.738244 0.855987
C17   C     C_R   0.499263 0.519699 0.261756 0.855986
C18   C     C_R   0.204065 0.407668 0.892567 -0.183971
C19   C     C_R   0.795935 0.592330 0.107432 -0.183971
C20   C     C_R   0.066022 0.491710 0.925136 -0.072991
H1    H     H_    0.954906 0.281909 0.989671 0.172293
H2    H     H_    0.306780 0.993342 0.513778 0.217597
H3    H     H_    0.045093 0.718090 0.010328 0.172293
H4    H     H_    0.199241 0.323867 0.812584 0.165196
H5    H     H_    0.800759 0.676132 0.187415 0.165196
H6    H     H_    0.042262 0.551275 0.839444 0.216455
H7    H     H_    0.957738 0.448724 0.160555 0.216455
H8    H     H_    0.210548 0.687616 0.188470 0.168413
H9    H     H_    0.789452 0.312383 0.811530 0.168413
H10   H     H_    0.693220 0.006658 0.486222 0.217597
N1    N     N_2   0.950330 0.457950 0.466250 0.065440
N2    N     N_2   0.049670 0.542050 0.533750 0.065440
O1    O     O_R   0.389250 0.738570 0.508280 -0.597941
O2    O     O_R   0.610750 0.261430 0.491720 -0.597941
O3    O     O_R   0.678390 0.711630 0.486650 -0.584843
O4    O     O_R   0.321610 0.288370 0.513350 -0.584843
O5    O     O_R   0.355430 0.513480 0.694040 -0.609108
O6    O     O_R   0.644570 0.486520 0.305960 -0.609108
O7    O     O_R   0.644570 0.486540 0.672410 -0.591338
O8    O     O_R   0.355430 0.513460 0.327590 -0.591339
Zn1   Zn    Zn3+2 0.306940 0.517990 0.514440 1.032653
Zn2   Zn    Zn3+2 0.693060 0.482010 0.485560 1.032653

loop_
_geom_bond_atom_site_label_1
_geom_bond_atom_site_label_2
_ccdc_geom_bond_type
C13   C16   S    
C4    C6    A    
C16   O5    A    
C12   O4    A    
O1    Zn1   S    
C2    H7    S    
C17   O8    A    
C1    O1    A    
Br2   N2    S    
O3    Zn2   S    
N1    N2    D    
C19   H5    S    
Br1   N1    S    
O4    Zn1   S    
C18   H4    S    
C5    H8    S    
C20   H6    S    
C2    C19   A    
C7    C9    A    
C12   C15   S    
C8    C10   A    
C3    H3    S    
C4    H1    S    
C2    C4    A    
C18   C20   A    
C3    C5    A    
C8    C13   A    
C12   O2    A    
O7    Zn2   S    
C9    C18   A    
O2    Zn2   S    
C15   H2    S    
C14   H10   S    
C17   O6    A    
C1    C14   S    
C4    C20   A    
O6    Zn2   S    
C10   C11   A    
C1    O3    A    
C6    C8    A    
O8    Zn1   S    
C16   O7    A    
C5    C7    A    
C7    C11   A    
C2    C3    A    
C11   C17   S    
O5    Zn1   S    
N2    Zn1   S    
C6    H9    S    
C9    C13   A    
C10   C19   A    
C3    C20   A    
C14   C15   D    
N1    Zn2   S    
