data_mof_unit_63977.cif
_audit_creation_date              2012-12-10T21:02:22-0500
_audit_creation_method            fapswitch 2.2
_symmetry_space_group_name_H-M    P1
_symmetry_Int_Tables_number       1
_space_group_crystal_system       triclinic
_cell_length_a                    15.063382
_cell_length_b                    15.85001
_cell_length_c                    16.698159
_cell_angle_alpha                 90.00498
_cell_angle_beta                  84.202458
_cell_angle_gamma                 89.962328
_cell_volume                      3966.37183224

loop_
_atom_site_label
_atom_site_type_symbol
_atom_type_description
_atom_site_fract_x
_atom_site_fract_y
_atom_site_fract_z
_atom_type_partial_charge
C1    C     C_R   0.499999 0.661152 0.499949 0.917971
C2    C     C_R   0.499996 0.338853 0.500047 0.914561
C3    C     C_R   0.419262 0.043824 0.515721 -0.168963
C4    C     C_R   0.580667 0.956213 0.484519 -0.169769
C5    C     C_R   0.499986 0.086867 0.500197 0.164381
C6    C     C_R   0.499942 0.913166 0.500030 0.165588
C7    C     C_R   0.580688 0.043699 0.484601 -0.178817
C8    C     C_R   0.419239 0.956335 0.515636 -0.178908
C9    C     C_1   0.500003 0.175643 0.500186 -0.060307
C10   C     C_1   0.499932 0.824384 0.499966 -0.061026
C11   C     C_1   0.499950 0.749547 0.499942 -0.162857
C12   C     C_1   0.500015 0.250473 0.500133 -0.156201
C13   C     C_R   0.038771 0.497154 0.572632 -0.139013
C14   C     C_R   0.961232 0.502652 0.427403 -0.141798
C15   C     C_R   0.094958 0.499904 0.500012 0.067615
C16   C     C_R   0.905043 0.499929 0.500022 0.069557
C17   C     C_R   0.055011 0.502638 0.427399 -0.166398
C18   C     C_R   0.944989 0.497173 0.572637 -0.165986
C19   C     C_1   0.192813 0.499963 0.500000 0.077844
C20   C     C_1   0.807186 0.499959 0.500022 0.069737
C21   C     C_R   0.486838 0.496618 0.653863 0.892431
C22   C     C_R   0.513181 0.498557 0.346048 0.904190
C23   C     C_R   0.477830 0.478468 0.739781 -0.106602
C24   C     C_R   0.523986 0.474618 0.261689 -0.099672
C25   C     C_R   0.546430 0.504811 0.784539 -0.247406
C26   C     C_R   0.465566 0.413735 0.236083 -0.250358
C27   C     C_R   0.547749 0.478865 0.863510 -0.137025
C28   C     C_R   0.478918 0.381284 0.158821 -0.146881
C29   C     C_R   0.480710 0.425277 0.898773 0.139080
C30   C     C_R   0.550003 0.410645 0.105680 0.141392
C31   C     C_R   0.410042 0.401636 0.855713 -0.193111
C32   C     C_R   0.610494 0.469011 0.131766 -0.189368
C33   C     C_R   0.408196 0.426993 0.776115 0.263097
C34   C     C_R   0.597868 0.501561 0.209497 0.261052
C35   C     C_2   0.478584 0.400740 0.983202 -0.201501
C36   C     C_2   0.553447 0.393827 0.019576 -0.211932
H1    H     H_    0.599904 0.544732 0.757950 0.166707
H2    H     H_    0.410373 0.389959 0.276443 0.168600
H3    H     H_    0.618218 0.395419 0.984467 0.153867
H4    H     H_    0.413541 0.399744 0.017879 0.156406
H5    H     H_    0.357156 0.361862 0.883619 0.164843
H6    H     H_    0.664712 0.492779 0.090284 0.159426
H7    H     H_    0.432403 0.335064 0.139879 0.143777
H8    H     H_    0.600601 0.501977 0.897018 0.141453
H9    H     H_    0.356826 0.922472 0.527633 0.147983
H10   H     H_    0.643101 0.077563 0.472592 0.147830
H11   H     H_    0.356865 0.077786 0.527772 0.152837
H12   H     H_    0.643064 0.922255 0.472461 0.150994
H13   H     H_    0.903597 0.495036 0.629543 0.138325
H14   H     H_    0.096402 0.504779 0.370492 0.139451
H15   H     H_    0.067438 0.494997 0.629532 0.154536
H16   H     H_    0.932569 0.504804 0.370501 0.153422
N1    N     N_1   0.729450 0.499980 0.500020 -0.076019
N2    N     N_1   0.270550 0.500020 0.499980 -0.071269
O1    O     O_R   0.426350 0.621980 0.500000 -0.611955
O2    O     O_R   0.573650 0.378020 0.500000 -0.614770
O3    O     O_R   0.573690 0.621980 0.499960 -0.598202
O4    O     O_R   0.426310 0.378020 0.500040 -0.593390
O5    O     O_R   0.417630 0.500010 0.615820 -0.568185
O6    O     O_R   0.582370 0.499990 0.384180 -0.572305
O7    O     O_R   0.564960 0.500010 0.615780 -0.622964
O8    O     O_R   0.435040 0.499990 0.384220 -0.625875
Zn1   Zn    Zn3+2 0.401630 0.500000 0.500020 1.013086
Zn2   Zn    Zn3+2 0.598370 0.500000 0.499980 1.009645
Br1   Br    Br    0.679816 0.586167 0.239092 -0.512460
Br2   Br    Br    0.312604 0.382901 0.720332 -0.510391

loop_
_geom_bond_atom_site_label_1
_geom_bond_atom_site_label_2
_ccdc_geom_bond_type
C17   H14   S    
C6    C10   S    
O7    Zn2   S    
C15   C19   S    
C2    O4    A    
C5    C9    S    
O8    Zn1   S    
C1    O3    A    
C22   O8    A    
C29   C35   S    
C28   H7    S    
C21   O7    A    
C35   C36   D    
C1    C11   S    
C30   C36   S    
C16   C20   S    
C2    C12   S    
C28   C30   A    
C35   H4    S    
C1    O1    A    
C29   C31   A    
C2    O2    A    
C30   C32   A    
O6    Zn2   S    
C14   C17   A    
O2    Zn2   S    
O1    Zn1   S    
C13   C18   A    
C4    C7    A    
C13   H15   S    
C34   Br1   S    
C3    H11   S    
C26   C28   A    
N1    Zn2   S    
C24   C26   A    
C33   Br2   S    
C21   O5    A    
C14   C16   A    
C10   C11   T    
C13   C15   A    
C21   C23   S    
C22   O6    A    
C9    C12   T    
C22   C24   S    
C4    C6    A    
C25   C27   A    
N2    Zn1   S    
C7    H10   S    
C3    C5    A    
C23   C25   A    
C27   C29   A    
C19   N2    T    
O3    Zn2   S    
C16   C18   A    
C3    C8    A    
C4    H12   S    
O4    Zn1   S    
C5    C7    A    
C32   H6    S    
C8    H9    S    
C26   H2    S    
C31   C33   A    
C6    C8    A    
C31   H5    S    
C25   H1    S    
C15   C17   A    
O5    Zn1   S    
C27   H8    S    
C36   H3    S    
C14   H16   S    
C18   H13   S    
C32   C34   A    
C20   N1    T    
C23   C33   A    
C24   C34   A    
