data_mof_unit_65388.cif
_audit_creation_date              2012-12-10T17:56:10-0500
_audit_creation_method            fapswitch 2.2
_symmetry_space_group_name_H-M    P1
_symmetry_Int_Tables_number       1
_space_group_crystal_system       triclinic
_cell_length_a                    30.180054
_cell_length_b                    30.607002
_cell_length_c                    21.497705
_cell_angle_alpha                 90.000321
_cell_angle_beta                  134.230323
_cell_angle_gamma                 89.999665
_cell_volume                      14228.9966653

loop_
_atom_site_label
_atom_site_type_symbol
_atom_type_description
_atom_site_fract_x
_atom_site_fract_y
_atom_site_fract_z
_atom_type_partial_charge
C1    C     C_R   0.308940 0.809547 0.118483 0.834316
C2    C     C_R   0.691059 0.809546 0.881518 0.834323
C3    C     C_R   0.808940 0.309547 0.118482 0.834321
C4    C     C_R   0.191060 0.309547 0.881517 0.834321
C5    C     C_R   0.547328 0.790086 0.001498 0.103911
C6    C     C_R   0.452668 0.790086 0.998496 0.103916
C7    C     C_R   0.047323 0.290087 0.001487 0.103922
C8    C     C_R   0.952663 0.290086 0.998485 0.103928
C9    C     C_R   0.522674 0.670493 0.999069 -0.194433
C10   C     C_R   0.477333 0.670493 0.000942 -0.194429
C11   C     C_R   0.022687 0.170493 0.999095 -0.194433
C12   C     C_R   0.977346 0.170493 0.000968 -0.194397
C13   C     C_R   0.476331 0.829648 0.998929 -0.180462
C14   C     C_R   0.523663 0.829648 0.001059 -0.180443
C15   C     C_R   0.976320 0.329648 0.998906 -0.180463
C16   C     C_R   0.023651 0.329648 0.001036 -0.180468
C17   C     C_R   0.406096 0.842762 0.250277 0.038924
C18   C     C_R   0.593903 0.842774 0.749749 0.038879
C19   C     C_R   0.906096 0.342769 0.250262 0.038901
C20   C     C_R   0.093904 0.342768 0.749735 0.038909
C21   C     C_R   0.341928 0.843808 0.183126 -0.204790
C22   C     C_R   0.658073 0.843807 0.816875 -0.204720
C23   C     C_R   0.841927 0.343807 0.183125 -0.204771
C24   C     C_R   0.158072 0.343807 0.816875 -0.204774
C25   C     C_R   0.310312 0.881088 0.173267 -0.273573
C26   C     C_R   0.689696 0.881076 0.826712 -0.273693
C27   C     C_R   0.810308 0.381081 0.173278 -0.273585
C28   C     C_R   0.189692 0.381082 0.826723 -0.273595
C29   C     C_R   0.341835 0.913387 0.238477 0.491370
C30   C     C_R   0.658173 0.913374 0.761502 0.491101
C31   C     C_R   0.841831 0.413380 0.238488 0.491339
C32   C     C_R   0.158169 0.413380 0.761513 0.491326
C33   C     C_R   0.406191 0.909230 0.310650 -0.241560
C34   C     C_R   0.593812 0.909230 0.689352 -0.241660
C35   C     C_R   0.906189 0.409230 0.310648 -0.241583
C36   C     C_R   0.093811 0.409230 0.689351 -0.241587
C37   C     C_R   0.437777 0.875214 0.312284 0.008228
C38   C     C_R   0.562224 0.875227 0.687743 0.008313
C39   C     C_R   0.937776 0.375221 0.312269 0.008254
C40   C     C_R   0.062224 0.375220 0.687729 0.008255
C41   C     C_3   0.483538 0.843580 0.383202 0.295618
C42   C     C_3   0.516440 0.843596 0.616835 0.295674
C43   C     C_3   0.983550 0.343589 0.383181 0.295643
C44   C     C_3   0.016452 0.343588 0.616816 0.295637
C45   C     C_R   0.335592 0.750015 0.999908 0.811971
C46   C     C_R   0.664408 0.750015 0.000092 0.811972
C47   C     C_R   0.835592 0.250016 0.999909 0.812080
C48   C     C_R   0.164408 0.250016 0.000092 0.811957
C49   C     C_3   0.448344 0.807654 0.314114 0.291451
C50   C     C_3   0.551631 0.807671 0.685924 0.291414
C51   C     C_3   0.948357 0.307664 0.314093 0.291436
C52   C     C_3   0.051644 0.307663 0.685903 0.291433
C53   C     C_R   0.868232 0.747688 0.922243 -0.231170
C54   C     C_R   0.131768 0.747688 0.077756 -0.231166
C55   C     C_R   0.368232 0.247681 0.922243 -0.231172
C56   C     C_R   0.631768 0.247694 0.077757 -0.231146
C57   C     C_R   0.884471 0.749135 0.001025 -0.218534
C58   C     C_R   0.115528 0.749135 0.998974 -0.218531
C59   C     C_R   0.384472 0.249135 0.001026 -0.218539
C60   C     C_R   0.615528 0.249135 0.998974 -0.218514
C61   C     C_R   0.946803 0.750031 0.079996 0.651195
C62   C     C_R   0.053197 0.750031 0.920004 0.651196
C63   C     C_R   0.446803 0.250037 0.079995 0.651206
C64   C     C_R   0.553197 0.250023 0.920003 0.651138
C65   C     C_R   0.993553 0.749224 0.080464 -0.192760
C66   C     C_R   0.006446 0.749224 0.919535 -0.192761
C67   C     C_R   0.493553 0.249230 0.080464 -0.192767
C68   C     C_R   0.506447 0.249216 0.919535 -0.192739
C69   C     C_R   0.976874 0.748645 0.000410 -0.141114
C70   C     C_R   0.023126 0.748645 0.999590 -0.141113
C71   C     C_R   0.476874 0.248644 0.000410 -0.141114
C72   C     C_R   0.523126 0.248644 0.999590 -0.141109
C73   C     C_R   0.913937 0.748089 0.921105 -0.047830
C74   C     C_R   0.086062 0.748089 0.078894 -0.047828
C75   C     C_R   0.413938 0.248082 0.921105 -0.047824
C76   C     C_R   0.586063 0.248095 0.078894 -0.047833
C77   C     C_R   0.056493 0.748944 0.158855 0.589122
C78   C     C_R   0.943506 0.748945 0.841144 0.589123
C79   C     C_R   0.556494 0.248956 0.158855 0.589131
C80   C     C_R   0.443507 0.248929 0.841144 0.589082
C81   C     C_R   0.102236 0.748127 0.157934 0.512850
C82   C     C_R   0.897763 0.748128 0.842065 0.512852
C83   C     C_R   0.602237 0.248140 0.157934 0.512858
C84   C     C_R   0.397764 0.248113 0.842066 0.512846
C85   C     C_R   0.133799 0.620849 0.821103 -0.136701
C86   C     C_R   0.866186 0.620842 0.178885 -0.136696
C87   C     C_R   0.633623 0.120926 0.820965 -0.136774
C88   C     C_R   0.366174 0.120837 0.178875 -0.136698
C89   C     C_R   0.191369 0.690512 0.881253 0.867428
C90   C     C_R   0.808631 0.690512 0.118747 0.867425
C91   C     C_R   0.691368 0.190513 0.881255 0.867567
C92   C     C_R   0.308631 0.190512 0.118747 0.867405
C93   C     C_R   0.157363 0.657524 0.813713 -0.169675
C94   C     C_R   0.842637 0.657524 0.186287 -0.169685
C95   C     C_R   0.657370 0.157527 0.813719 -0.169546
C96   C     C_R   0.342637 0.157524 0.186287 -0.169684
C97   C     C_R   0.142093 0.663968 0.735632 0.616039
C98   C     C_R   0.857921 0.663973 0.264378 0.616057
C99   C     C_R   0.642274 0.163915 0.735757 0.615841
C100  C     C_R   0.357933 0.163977 0.264387 0.616054
C101  C     C_R   0.109826 0.631604 0.671390 -0.252778
C102  C     C_R   0.890187 0.631608 0.328619 -0.252783
C103  C     C_R   0.610003 0.131552 0.671509 -0.252719
C104  C     C_R   0.390199 0.131612 0.328627 -0.252796
C105  C     C_R   0.090597 0.593486 0.683198 -0.176538
C106  C     C_R   0.909402 0.593485 0.316800 -0.176527
C107  C     C_R   0.590590 0.093499 0.683185 -0.176660
C108  C     C_R   0.409401 0.093484 0.316799 -0.176502
C109  C     C_R   0.099072 0.590000 0.755530 -0.070897
C110  C     C_R   0.900913 0.589992 0.244457 -0.070915
C111  C     C_R   0.598889 0.090086 0.755375 -0.070691
C112  C     C_R   0.400899 0.089986 0.244446 -0.070936
C113  C     C_3   0.124790 0.552556 0.818498 0.248323
C114  C     C_3   0.875176 0.552547 0.181486 0.248311
C115  C     C_3   0.624391 0.052658 0.818308 0.248502
C116  C     C_3   0.375147 0.052540 0.181472 0.248295
C117  C     C_3   0.163577 0.586994 0.891184 0.325724
C118  C     C_3   0.836391 0.586986 0.108802 0.325741
C119  C     C_3   0.663192 0.087085 0.891015 0.325522
C120  C     C_3   0.336363 0.086979 0.108790 0.325757
C121  C     C_R   0.940728 0.559261 0.381100 0.846250
C122  C     C_R   0.059271 0.559261 0.618900 0.846248
C123  C     C_R   0.440728 0.059260 0.381099 0.846256
C124  C     C_R   0.559269 0.059265 0.618895 0.846206
C125  C     C_R   0.440430 0.940861 0.380649 0.844125
C126  C     C_R   0.559570 0.940861 0.619352 0.844044
C127  C     C_R   0.940430 0.440861 0.380648 0.844109
C128  C     C_R   0.059570 0.440861 0.619352 0.844108
C129  C     C_R   0.164175 0.749701 0.999633 0.833581
C130  C     C_R   0.835824 0.749701 0.000367 0.833592
C131  C     C_R   0.664175 0.249701 0.999632 0.833581
C132  C     C_R   0.335825 0.249701 0.000367 0.833581
C133  C     C_R   0.594445 0.789768 0.003087 -0.203068
C134  C     C_R   0.405552 0.789768 0.996908 -0.203090
C135  C     C_R   0.094440 0.289769 0.003075 -0.203089
C136  C     C_R   0.905546 0.289768 0.996897 -0.203089
C137  C     C_R   0.616149 0.750063 0.000303 -0.043882
C138  C     C_R   0.383852 0.750063 0.999697 -0.043879
C139  C     C_R   0.116149 0.250064 0.000303 -0.043881
C140  C     C_R   0.883852 0.250064 0.999698 -0.043856
C141  C     C_R   0.591612 0.710367 0.997413 -0.223977
C142  C     C_R   0.408392 0.710366 0.002593 -0.223956
C143  C     C_R   0.091618 0.210367 0.997425 -0.223973
C144  C     C_R   0.908399 0.210367 0.002606 -0.223865
C145  C     C_R   0.545970 0.710056 0.998776 0.110062
C146  C     C_R   0.454034 0.710056 0.001230 0.110062
C147  C     C_R   0.045976 0.210056 0.998788 0.110062
C148  C     C_R   0.954041 0.210056 0.001244 0.110047
C149  C     C_R   0.523336 0.750072 0.000071 0.064208
C150  C     C_R   0.476664 0.750072 0.999929 0.064212
C151  C     C_R   0.023337 0.250072 0.000072 0.064214
C152  C     C_R   0.976665 0.250072 0.999930 0.064206
Cu1   Cu    Cu3+1 0.280880 0.719080 0.061820 0.997872
Cu2   Cu    Cu3+1 0.719120 0.719080 0.938180 0.997856
Cu3   Cu    Cu3+1 0.780880 0.219080 0.061820 0.997867
Cu4   Cu    Cu3+1 0.219120 0.219080 0.938180 0.997867
Cu5   Cu    Cu3+1 0.219090 0.780890 0.938220 1.078107
Cu6   Cu    Cu3+1 0.780910 0.780890 0.061780 1.078081
Cu7   Cu    Cu3+1 0.719090 0.280890 0.938220 1.078019
Cu8   Cu    Cu3+1 0.280910 0.280890 0.061780 1.078106
Cu9   Cu    Cu3+1 0.544430 0.999980 0.499990 1.000771
Cu10  Cu    Cu3+1 0.455570 0.999980 0.500010 1.000784
Cu11  Cu    Cu3+1 0.044430 0.499980 0.499990 1.000739
Cu12  Cu    Cu3+1 0.955570 0.499980 0.500010 1.000745
H1    H     H_    0.613368 0.820332 0.004592 0.153150
H2    H     H_    0.386626 0.820332 0.995398 0.153149
H3    H     H_    0.113358 0.320332 0.004572 0.153145
H4    H     H_    0.886617 0.320332 0.995378 0.153147
H5    H     H_    0.423896 0.783834 0.320911 0.024341
H6    H     H_    0.576056 0.783838 0.679105 0.024347
H7    H     H_    0.923922 0.283837 0.320902 0.024346
H8    H     H_    0.076082 0.283836 0.679096 0.024342
H9    H     H_    0.819760 0.747201 0.861859 0.214112
H10   H     H_    0.180240 0.747201 0.138140 0.214110
H11   H     H_    0.319760 0.247189 0.861860 0.214116
H12   H     H_    0.680241 0.247212 0.138140 0.214107
H13   H     H_    0.100833 0.635918 0.613384 0.185113
H14   H     H_    0.899192 0.635927 0.386633 0.185105
H15   H     H_    0.601147 0.135818 0.613606 0.185196
H16   H     H_    0.399214 0.135934 0.386648 0.185079
H17   H     H_    0.150717 0.529192 0.814343 0.135822
H18   H     H_    0.849250 0.529191 0.185652 0.135843
H19   H     H_    0.650323 0.029212 0.814296 0.135510
H20   H     H_    0.349221 0.029189 0.185649 0.135891
H21   H     H_    0.149140 0.591362 0.926267 0.130482
H22   H     H_    0.850819 0.591346 0.073706 0.130483
H23   H     H_    0.648642 0.091545 0.925935 0.130482
H24   H     H_    0.350782 0.091333 0.073682 0.130484
H25   H     H_    0.609022 0.679793 0.995896 0.143682
H26   H     H_    0.390985 0.679793 0.004114 0.143685
H27   H     H_    0.109032 0.179792 0.995917 0.143677
H28   H     H_    0.890996 0.179793 0.004137 0.143700
H29   H     H_    0.539778 0.639560 0.998347 0.146788
H30   H     H_    0.460232 0.639560 0.001669 0.146790
H31   H     H_    0.039795 0.139561 0.998381 0.146787
H32   H     H_    0.960249 0.139561 0.001705 0.146809
H33   H     H_    0.458464 0.860580 0.998111 0.157652
H34   H     H_    0.541527 0.860580 0.001873 0.157669
H35   H     H_    0.958448 0.360580 0.998078 0.157642
H36   H     H_    0.041511 0.360581 0.001840 0.157645
H37   H     H_    0.261052 0.884218 0.117074 0.169009
H38   H     H_    0.738961 0.884196 0.882888 0.168985
H39   H     H_    0.761045 0.384206 0.117094 0.168999
H40   H     H_    0.238954 0.384207 0.882908 0.169001
H41   H     H_    0.479537 0.840950 0.430826 -0.041736
H42   H     H_    0.520420 0.840953 0.569190 -0.041756
H43   H     H_    0.979560 0.340953 0.430817 -0.041743
H44   H     H_    0.020443 0.340952 0.569181 -0.041743
O1    O     O_R   0.321150 0.768980 0.142380 -0.594352
O2    O     O_R   0.678850 0.768980 0.857620 -0.594368
O3    O     O_R   0.821150 0.268980 0.142380 -0.594362
O4    O     O_R   0.178850 0.268980 0.857620 -0.594360
O5    O     O_R   0.917370 0.545120 0.409780 -0.583544
O6    O     O_R   0.082630 0.545120 0.590220 -0.583541
O7    O     O_R   0.417370 0.045120 0.409780 -0.583575
O8    O     O_R   0.582630 0.045120 0.590220 -0.583521
O9    O     O_R   0.492430 0.954900 0.409810 -0.559077
O10   O     O_R   0.507570 0.954900 0.590190 -0.559014
O11   O     O_R   0.992430 0.454900 0.409810 -0.559071
O12   O     O_R   0.007570 0.454900 0.590190 -0.559067
O13   O     O_R   0.417320 0.954950 0.409780 -0.580537
O14   O     O_R   0.582680 0.954950 0.590220 -0.580463
O15   O     O_R   0.917320 0.454950 0.409780 -0.580511
O16   O     O_R   0.082680 0.454950 0.590220 -0.580510
O17   O     O_R   0.268980 0.821170 0.038000 -0.586812
O18   O     O_R   0.731020 0.821170 0.962000 -0.586828
O19   O     O_R   0.768980 0.321170 0.038000 -0.586814
O20   O     O_R   0.231020 0.321170 0.962000 -0.586811
O21   O     O_R   0.340930 0.723870 0.052190 -0.587329
O22   O     O_R   0.659070 0.723870 0.947810 -0.587335
O23   O     O_R   0.840930 0.223870 0.052190 -0.587419
O24   O     O_R   0.159070 0.223870 0.947810 -0.587317
O25   O     O_R   0.288760 0.776060 0.947810 -0.572689
O26   O     O_R   0.711240 0.776060 0.052190 -0.572696
O27   O     O_R   0.788760 0.276060 0.947810 -0.572644
O28   O     O_R   0.211240 0.276060 0.052190 -0.572699
O29   O     O_R   0.230990 0.678800 0.962040 -0.564543
O30   O     O_R   0.769010 0.678800 0.037960 -0.564543
O31   O     O_R   0.730990 0.178800 0.962040 -0.564521
O32   O     O_R   0.269010 0.178800 0.037960 -0.564545
O33   O     O_R   0.178820 0.731000 0.857660 -0.517488
O34   O     O_R   0.821180 0.731000 0.142340 -0.517475
O35   O     O_R   0.678820 0.231000 0.857660 -0.517644
O36   O     O_R   0.321180 0.231000 0.142340 -0.517470
O37   O     O_R   0.211210 0.723910 0.052230 -0.597710
O38   O     O_R   0.788790 0.723910 0.947770 -0.597708
O39   O     O_R   0.711210 0.223910 0.052230 -0.597660
O40   O     O_R   0.288790 0.223910 0.947770 -0.597718
O41   O     O_R   0.159040 0.776100 0.947850 -0.537281
O42   O     O_R   0.840960 0.776100 0.052150 -0.537285
O43   O     O_R   0.659040 0.276100 0.947850 -0.537310
O44   O     O_R   0.340960 0.276100 0.052150 -0.537272
O45   O     O_R   0.992480 0.545070 0.409820 -0.583383
O46   O     O_R   0.007520 0.545070 0.590180 -0.583379
O47   O     O_R   0.492480 0.045070 0.409820 -0.583387
O48   O     O_R   0.507520 0.045070 0.590180 -0.583347
F1    F     F_    0.961361 0.750503 0.155785 -0.592833
F2    F     F_    0.038639 0.750504 0.844215 -0.592835
F3    F     F_    0.461361 0.250516 0.155784 -0.592823
F4    F     F_    0.538639 0.250490 0.844214 -0.592899
F5    F     F_    0.074232 0.749295 0.236824 -0.547075
F6    F     F_    0.925767 0.749296 0.763175 -0.547073
F7    F     F_    0.574233 0.249314 0.236824 -0.547064
F8    F     F_    0.425768 0.249273 0.763175 -0.547123
F9    F     F_    0.162551 0.747692 0.234683 -0.626079
F10   F     F_    0.837449 0.747693 0.765316 -0.626072
F11   F     F_    0.662551 0.247712 0.234684 -0.626067
F12   F     F_    0.337449 0.247672 0.765316 -0.626088
F13   F     F_    0.161692 0.700038 0.723799 -0.634051
F14   F     F_    0.838336 0.700048 0.276222 -0.634041
F15   F     F_    0.662045 0.199923 0.724061 -0.634200
F16   F     F_    0.338361 0.200056 0.276240 -0.634051
O49   O     O_3   0.083457 0.529392 0.818020 -0.566020
C153  C     C_3   0.028804 0.552415 0.779675 -0.210455
H45   H     H_    0.998389 0.555673 0.708513 0.190903
H46   H     H_    0.038949 0.584941 0.810179 0.147022
H47   H     H_    0.002989 0.533348 0.789753 0.187871
O50   O     O_3   0.916495 0.529373 0.181946 -0.566021
C154  C     C_3   0.971151 0.552386 0.220280 -0.210470
H48   H     H_    0.001575 0.555643 0.291444 0.190905
H49   H     H_    0.961013 0.584912 0.189776 0.147018
H50   H     H_    0.996954 0.533312 0.210188 0.187873
O51   O     O_3   0.582876 0.029616 0.817604 -0.566030
C155  C     C_3   0.528272 0.052754 0.779118 -0.210292
H51   H     H_    0.497966 0.056016 0.707984 0.190892
H52   H     H_    0.538482 0.085287 0.809631 0.147075
H53   H     H_    0.502305 0.033777 0.789033 0.187864
O52   O     O_3   0.416453 0.029357 0.181915 -0.566018
C156  C     C_3   0.471112 0.052361 0.220239 -0.210473
H54   H     H_    0.501544 0.055619 0.291405 0.190904
H55   H     H_    0.460978 0.084887 0.189736 0.147012
H56   H     H_    0.496904 0.033280 0.210136 0.187881
O53   O     O_3   0.229441 0.584688 0.951435 -0.551446
C157  C     C_3   0.252909 0.571680 0.915821 -0.270017
H57   H     H_    0.226642 0.585042 0.850058 0.143744
H58   H     H_    0.255183 0.535494 0.915350 0.183091
H59   H     H_    0.300940 0.584033 0.958599 0.186465
O54   O     O_3   0.770528 0.584690 0.048565 -0.551446
C158  C     C_3   0.747068 0.571692 0.084196 -0.270044
H60   H     H_    0.773348 0.585055 0.149962 0.143746
H61   H     H_    0.744786 0.535507 0.084668 0.183090
H62   H     H_    0.699042 0.584051 0.041430 0.186461
O55   O     O_3   0.729058 0.084675 0.951448 -0.551466
C159  C     C_3   0.752638 0.071550 0.916041 -0.269714
H63   H     H_    0.726517 0.084898 0.850317 0.143740
H64   H     H_    0.754806 0.035358 0.915572 0.183075
H65   H     H_    0.800717 0.083822 0.958960 0.186514
O56   O     O_3   0.270500 0.084690 0.048567 -0.551440
C160  C     C_3   0.247049 0.071701 0.084213 -0.270077
H66   H     H_    0.273339 0.085065 0.149982 0.143742
H67   H     H_    0.244758 0.035516 0.084684 0.183099
H68   H     H_    0.199026 0.084066 0.041457 0.186458
O57   O     O_3   0.311193 0.950153 0.229895 -0.583830
C161  C     C_3   0.269380 0.937916 0.236206 -0.286376
H69   H     H_    0.251753 0.968001 0.241601 0.191874
H70   H     H_    0.292225 0.917875 0.295268 0.161392
H71   H     H_    0.228899 0.920272 0.177009 0.156836
O58   O     O_3   0.688825 0.950128 0.770062 -0.583795
C162  C     C_3   0.730604 0.937867 0.763699 -0.286051
H72   H     H_    0.748238 0.967943 0.758290 0.191911
H73   H     H_    0.707724 0.917828 0.704623 0.161343
H74   H     H_    0.771083 0.920213 0.822877 0.156776
O59   O     O_3   0.811183 0.450140 0.229918 -0.583813
C163  C     C_3   0.769387 0.437891 0.236253 -0.286301
H75   H     H_    0.751757 0.467971 0.241658 0.191885
H76   H     H_    0.792248 0.417850 0.295319 0.161379
H77   H     H_    0.728906 0.420243 0.177064 0.156827
O60   O     O_3   0.188815 0.450141 0.770085 -0.583814
C164  C     C_3   0.230613 0.437892 0.763751 -0.286303
H78   H     H_    0.248243 0.467973 0.758349 0.191886
H79   H     H_    0.207753 0.417852 0.704684 0.161376
H80   H     H_    0.271093 0.420244 0.822940 0.156823
O61   O     O_3   0.543077 0.851460 0.416529 -0.491961
C165  C     C_3   0.588119 0.846313 0.507420 -0.238125
H81   H     H_    0.586137 0.813079 0.526397 0.126763
H82   H     H_    0.582688 0.871682 0.538698 0.140450
H83   H     H_    0.634537 0.850501 0.531764 0.199604
O62   O     O_3   0.456913 0.851495 0.583537 -0.491956
C166  C     C_3   0.411851 0.846341 0.492650 -0.238071
H84   H     H_    0.413814 0.813099 0.473675 0.126771
H85   H     H_    0.417276 0.871696 0.461347 0.140462
H86   H     H_    0.365443 0.850545 0.468332 0.199607
O63   O     O_3   0.043082 0.351479 0.416492 -0.491966
C167  C     C_3   0.088135 0.346325 0.507380 -0.238120
H87   H     H_    0.086159 0.313087 0.526352 0.126768
H88   H     H_    0.082711 0.371687 0.538676 0.140461
H89   H     H_    0.134548 0.350519 0.531709 0.199600
O64   O     O_3   0.956919 0.351477 0.583503 -0.491963
C168  C     C_3   0.911867 0.346327 0.492613 -0.238105
H90   H     H_    0.913842 0.313091 0.473635 0.126767
H91   H     H_    0.917294 0.371692 0.461325 0.140459
H92   H     H_    0.865453 0.350521 0.468282 0.199608
O65   O     O_3   0.481699 0.789673 0.296360 -0.508798
C169  C     C_3   0.508477 0.749789 0.341110 -0.199622
H93   H     H_    0.472174 0.724776 0.314282 0.139497
H94   H     H_    0.538142 0.753920 0.412048 0.145435
H95   H     H_    0.538247 0.737647 0.331965 0.194344
O66   O     O_3   0.518288 0.789710 0.703712 -0.508809
C170  C     C_3   0.491492 0.749824 0.658978 -0.199646
H96   H     H_    0.527785 0.724803 0.685798 0.139511
H97   H     H_    0.461813 0.753947 0.588034 0.145437
H98   H     H_    0.461732 0.737699 0.668150 0.194348
O67   O     O_3   0.981706 0.289693 0.296320 -0.508807
C171  C     C_3   0.008493 0.249807 0.341061 -0.199674
H99   H     H_    0.972195 0.224790 0.314237 0.139502
H100  H     H_    0.038165 0.253933 0.412002 0.145441
H101  H     H_    0.038256 0.237674 0.331901 0.194336
O68   O     O_3   0.018295 0.289691 0.703674 -0.508806
C172  C     C_3   0.991507 0.249806 0.658929 -0.199616
H102  H     H_    0.027805 0.224789 0.685751 0.139503
H103  H     H_    0.961836 0.253934 0.587988 0.145437
H104  H     H_    0.961743 0.237673 0.668087 0.194354

loop_
_geom_bond_atom_site_label_1
_geom_bond_atom_site_label_2
_ccdc_geom_bond_type
C99   C103  A    
C133  C137  A    
Cu9   O9    S    
C78   F6    S    
C142  C146  A    
C136  C140  A    
C128  O16   A    
C88   C96   A    
C118  H22   S    
C129  O37   A    
O61   C165  S    
C135  C139  A    
C77   F5    S    
C155  H51   S    
C86   C110  A    
C11   H31   S    
C50   O66   S    
C55   C59   A    
C20   C40   A    
C9    H29   S    
C29   C33   A    
C100  C104  A    
C5    C149  A    
C153  H45   S    
Cu8   O44   S    
C54   C74   A    
C159  H65   S    
Cu2   O38   S    
C163  H75   S    
C70   C74   A    
C62   F2    S    
C141  C145  A    
C172  H104  S    
C12   H32   S    
C107  C124  S    
C120  H24   S    
C76   C83   A    
C41   C49   S    
O68   C172  S    
Cu9   Cu10  S    
C47   O27   A    
C25   C29   A    
C129  O41   A    
C65   C77   A    
C90   O30   A    
C27   C31   A    
O59   C163  S    
Cu6   O42   S    
C28   C32   A    
C62   C66   A    
C67   C79   A    
Cu10  O48   S    
C51   H7    S    
C118  O54   S    
C161  H69   S    
C98   C102  A    
C1    O1    A    
C17   C21   A    
C117  O53   S    
C121  O5    A    
C19   C23   A    
C78   C82   A    
O55   C159  S    
C42   O62   S    
C68   C72   A    
C33   C125  S    
C32   O60   S    
C85   C117  S    
C50   H6    S    
O54   C158  S    
C74   C81   A    
C17   C49   S    
C2    O18   A    
C155  H53   S    
Cu5   O41   S    
C121  O45   A    
Cu3   O39   S    
C59   C63   A    
C60   C64   A    
C54   H10   S    
C18   C38   A    
Cu7   O43   S    
Cu2   O2    S    
C165  H83   S    
C66   C70   A    
C163  H77   S    
O64   C168  S    
C95   C99   A    
C154  H49   S    
C69   C70   A    
C61   C65   A    
Cu8   O28   S    
C170  H96   S    
Cu2   Cu6   S    
C143  H27   S    
C103  C107  A    
C126  O10   A    
Cu11  O11   S    
C79   C83   A    
C162  H73   S    
C168  H90   S    
C43   C51   S    
C52   H8    S    
C53   H9    S    
C87   C119  S    
C13   H33   S    
C56   H12   S    
C27   H39   S    
C64   C68   A    
C8    C152  A    
C29   O57   S    
C25   H37   S    
C30   O58   S    
Cu11  O6    S    
C75   C84   A    
C58   C129  S    
C92   C96   S    
C171  H99   S    
Cu6   O34   S    
C139  C143  A    
C113  H17   S    
C87   C95   A    
C47   C140  S    
C24   C28   A    
C9    C10   A    
C110  C114  S    
C103  H15   S    
C16   H36   S    
C43   O63   S    
C44   C52   S    
C159  H64   S    
C146  C150  A    
C13   C14   A    
C81   F9    S    
C164  H79   S    
Cu1   O21   S    
C36   C128  S    
C131  O43   A    
C160  H67   S    
C3    O3    A    
C30   C34   A    
Cu3   Cu7   S    
C57   C130  S    
Cu4   Cu8   S    
C113  O49   S    
C165  H81   S    
C115  O51   S    
C116  C120  S    
C6    C150  A    
C147  C151  A    
C2    C22   S    
O53   C157  S    
C63   F3    S    
Cu4   O24   S    
Cu10  O13   S    
O67   C171  S    
C156  H54   S    
C5    C133  A    
C48   O28   A    
Cu8   O36   S    
C42   C50   S    
C46   C137  S    
C113  C117  S    
C10   C146  A    
C26   C30   A    
C168  H92   S    
C115  C119  S    
C90   O34   A    
C41   O61   S    
C102  H14   S    
C93   C97   A    
C112  C116  S    
C21   C25   A    
C92   O32   A    
C18   C22   A    
C107  C111  A    
Cu12  O46   S    
C148  C152  A    
C167  H88   S    
O60   C164  S    
C125  O13   A    
Cu2   O30   S    
C44   O64   S    
C171  H101  S    
Cu8   O20   S    
C155  H52   S    
C71   C72   A    
Cu6   O26   S    
C97   F13   S    
C116  H20   S    
C99   F15   S    
C45   C138  S    
C105  C122  S    
C170  H98   S    
C153  H46   S    
C37   C41   S    
C158  H62   S    
C119  H23   S    
C91   C95   S    
C40   C44   S    
C166  H86   S    
C56   C60   A    
C167  H87   S    
C163  H76   S    
C169  H93   S    
O51   C155  S    
C135  H3    S    
O50   C154  S    
C172  H103  S    
C58   C62   A    
Cu10  O10   S    
C123  O7    A    
C8    C136  A    
C153  H47   S    
C79   F7    S    
C80   F8    S    
C61   F1    S    
C80   C84   A    
O65   C169  S    
C127  O11   A    
Cu11  O16   S    
C45   O25   A    
C85   C109  A    
C10   H30   S    
C124  O8    A    
C157  H57   S    
C4    C24   S    
C87   C111  A    
C94   C98   A    
C161  H70   S    
C142  H26   S    
C156  H56   S    
C84   F12   S    
Cu11  O45   S    
C105  C109  A    
Cu1   O37   S    
C151  C152  A    
C134  H2    S    
C69   C73   A    
C88   C120  S    
C123  O47   A    
C124  O48   A    
C161  H71   S    
Cu3   O31   S    
C46   O22   A    
Cu7   O27   S    
C60   C131  S    
Cu7   O35   S    
C90   C94   S    
C66   C78   A    
C59   C132  S    
C43   H43   S    
C89   O29   A    
C141  H25   S    
C157  H59   S    
C51   O67   S    
C138  C142  A    
C3    O19   A    
C53   C57   A    
C132  O40   A    
C144  H28   S    
C114  H18   S    
Cu4   O32   S    
C122  O6    A    
C35   C39   A    
C158  H60   S    
C133  H1    S    
C166  H84   S    
C167  H89   S    
C77   C81   A    
C34   C126  S    
Cu5   O17   S    
C86   C118  S    
C31   O59   S    
C5    C14   A    
C131  O39   A    
C7    C151  A    
C7    C16   A    
Cu9   O8    S    
C8    C15   A    
Cu4   O40   S    
C31   C35   A    
C52   O68   S    
C108  C123  S    
C32   C36   A    
C73   C82   A    
C104  C108  A    
C18   C50   S    
C100  F16   S    
C1    O17   A    
C137  C141  A    
C45   O21   A    
C140  C144  A    
C122  O46   A    
C115  H19   S    
C154  H48   S    
C117  H21   S    
C149  C150  A    
C49   H5    S    
Cu12  O15   S    
C11   C147  A    
O57   C161  S    
C65   C69   A    
C9    C145  A    
C171  H100  S    
C42   H42   S    
C67   C71   A    
C4    O20   A    
Cu1   Cu5   S    
C33   C37   A    
C101  H13   S    
C162  H72   S    
C88   C112  A    
C108  C112  A    
C20   C52   S    
C22   C26   A    
C119  O55   S    
C145  C149  A    
C125  O9    A    
C68   C80   A    
C71   C75   A    
O63   C167  S    
C1    C21   S    
C56   C76   A    
Cu4   O4    S    
C164  H78   S    
C3    C23   S    
Cu11  Cu12  S    
C144  C148  A    
C130  O38   A    
C160  H66   S    
C98   F14   S    
C143  C147  A    
C14   H34   S    
C26   H38   S    
C38   C42   S    
C165  H82   S    
C47   O23   A    
C15   C16   A    
C96   C100  A    
C44   H44   S    
C154  H50   S    
C57   C61   A    
Cu5   O33   S    
C86   C94   A    
C20   C24   A    
Cu1   O1    S    
C102  C106  A    
C23   C27   A    
C127  O15   A    
Cu12  O12   S    
C162  H74   S    
C168  H91   S    
Cu2   O22   S    
C89   C93   S    
C85   C93   A    
Cu10  O7    S    
C130  O42   A    
C101  C105  A    
C63   C67   A    
C2    O2    A    
C49   O65   S    
C28   H40   S    
C36   C40   A    
C82   F10   S    
C39   C43   S    
C136  H4    S    
C35   C127  S    
C7    C135  A    
O58   C162  S    
C15   H35   S    
Cu9   O14   S    
C46   O26   A    
O49   C153  S    
C120  O56   S    
C72   C76   A    
C170  H97   S    
C17   C37   A    
C158  H61   S    
C55   H11   S    
C114  C118  S    
C19   C39   A    
C159  H63   S    
C166  H85   S    
C91   O35   A    
C169  H94   S    
Cu7   O19   S    
Cu6   O18   S    
C164  H80   S    
C89   O33   A    
Cu9   O47   S    
O56   C160  S    
C132  O44   A    
C172  H102  S    
C54   C58   A    
C160  H68   S    
C128  O12   A    
C48   C139  S    
C34   C38   A    
C53   C73   A    
C134  C138  A    
C11   C12   A    
C126  O14   A    
C109  C113  S    
Cu12  O5    S    
C169  H95   S    
C4    O4    A    
Cu1   O29   S    
O52   C156  S    
C12   C148  A    
Cu3   O3    S    
C55   C75   A    
C83   F11   S    
C6    C134  A    
C6    C13   A    
C157  H58   S    
C92   O36   A    
Cu5   O25   S    
C104  H16   S    
C106  C121  S    
Cu3   O23   S    
C156  H55   S    
C116  O52   S    
C41   H41   S    
O66   C170  S    
C114  O50   S    
C48   O24   A    
C19   C51   S    
C106  C110  A    
O62   C166  S    
C91   O31   A    
C111  C115  S    
C97   C101  A    
C64   F4    S    
