data_mof_unit_47615.cif
_audit_creation_date              2012-12-11T20:17:13-0500
_audit_creation_method            fapswitch 2.2
_symmetry_space_group_name_H-M    P1
_symmetry_Int_Tables_number       1
_space_group_crystal_system       triclinic
_cell_length_a                    8.276697
_cell_length_b                    17.528435
_cell_length_c                    18.837594
_cell_angle_alpha                 100.352531
_cell_angle_beta                  92.676321
_cell_angle_gamma                 98.949192
_cell_volume                      2647.84758705

loop_
_atom_site_label
_atom_site_type_symbol
_atom_type_description
_atom_site_fract_x
_atom_site_fract_y
_atom_site_fract_z
_atom_type_partial_charge
Ba1   Ba    Ba6+2 0.852650 0.537180 0.468240 1.552786
Ba2   Ba    Ba6+2 0.337190 0.462880 0.531770 1.366033
C1    C     C_3   0.783145 0.794281 0.241506 0.089862
C2    C     C_3   0.397888 0.574650 0.257717 0.021011
C3    C     C_2   0.354883 0.555010 0.176879 -0.140656
C4    C     C_3   0.258396 0.752987 0.307384 0.705567
C5    C     C_2   0.209755 0.510001 0.149292 -0.013807
C6    C     C_2   0.103310 0.471899 0.200674 -0.193530
C7    C     C_1   0.155177 0.478869 0.270157 0.277108
C8    C     C_R   0.048670 0.492317 0.928401 0.412075
C9    C     C_R   0.155304 0.501800 0.070454 0.423951
C10   C     C_R   0.088178 0.521218 0.801454 -0.425273
C11   C     C_R   0.031779 0.516704 0.728502 0.274356
C12   C     C_3   0.679194 0.726817 0.267902 0.183299
C13   C     C_R   0.763957 0.450343 0.753249 -0.126557
C14   C     C_R   0.819848 0.454914 0.826654 0.278928
C15   C     C_R   0.985363 0.488836 0.850948 0.254317
C16   C     C_3   0.217637 0.748054 0.225928 0.108218
C17   C     C_R   0.871355 0.479862 0.705391 -0.258007
C18   C     C_2   0.447886 0.727433 0.483697 -0.302455
C19   C     C_3   0.318259 0.779575 0.490934 -0.013155
C20   C     C_2   0.389572 0.863993 0.495254 0.013916
C21   C     C_2   0.547852 0.889052 0.520401 -0.084687
C22   C     C_2   0.652033 0.829650 0.537886 0.445294
C23   C     C_3   0.481205 0.330109 0.303564 0.521007
C24   C     C_1   0.586464 0.753328 0.524671 -0.060902
C25   C     C_R   0.813395 0.132591 0.527680 0.370563
C26   C     C_R   0.869506 0.214494 0.542424 -0.091156
C27   C     C_R   0.615107 0.236489 0.483257 -0.110514
C28   C     C_3   0.278501 0.709498 0.648888 0.779498
C29   C     C_R   0.555620 0.154368 0.470816 0.366075
C30   C     C_R   0.652779 0.103623 0.495756 -0.108246
C31   C     C_2   0.612919 0.974104 0.533210 -0.093868
C32   C     C_2   0.587642 0.018242 0.483609 0.072865
C33   C     C_R   0.767510 0.265412 0.522108 -0.177721
C34   C     C_3   0.513896 0.306611 0.223603 0.740201
C35   C     C_3   0.372782 0.787567 0.691054 0.360070
C36   C     C_3   0.943758 0.296976 0.371400 0.291888
C37   C     C_3   0.899113 0.208222 0.346917 -0.501280
C38   C     C_3   0.741868 0.642347 0.689609 0.316395
C39   C     C_3   0.765107 0.666046 0.771660 -0.351198
C40   C     C_3   0.009180 0.252142 0.716007 0.924515
C41   C     C_3   0.064537 0.246026 0.794017 0.642962
C42   C     C_3   0.576359 0.263239 0.712424 0.335082
C43   C     C_3   0.497157 0.178997 0.714887 0.255177
C44   C     C_2   0.300281 0.518425 0.297646 -0.349094
H1    H     H_    0.462909 0.775779 0.731746 0.000683
H2    H     H_    0.650370 0.682772 0.793304 0.122073
H3    H     H_    0.561012 0.387299 0.325481 0.039993
H4    H     H_    0.813059 0.775089 0.184695 0.066666
H5    H     H_    0.300441 0.713922 0.194101 0.087620
H6    H     H_    0.686106 0.279288 0.751373 0.078473
H7    H     H_    0.609553 0.264465 0.656018 -0.052578
H8    H     H_    0.565246 0.137207 0.682212 0.093683
H9    H     H_    0.369495 0.166286 0.690008 0.078196
H10   H     H_    0.282659 0.694522 0.314753 -0.077760
H11   H     H_    0.434867 0.584593 0.142559 0.100001
H12   H     H_    0.838445 0.320673 0.395289 0.060738
H13   H     H_    0.347278 0.515857 0.351801 0.122313
H14   H     H_    0.513652 0.991407 0.433593 0.125017
H15   H     H_    0.681698 0.000614 0.584488 0.125959
H16   H     H_    0.309371 0.905142 0.485381 0.086726
H17   H     H_    0.812631 0.327972 0.531288 0.056539
H18   H     H_    0.090750 0.715813 0.209631 0.049114
H19   H     H_    0.669541 0.744499 0.327192 0.110808
H20   H     H_    0.440533 0.820332 0.653305 -0.078439
H21   H     H_    0.332426 0.882620 0.751760 0.320836
H22   H     H_    0.875358 0.179317 0.393774 0.064644
H23   H     H_    0.048871 0.309745 0.412686 0.106329
H24   H     H_    0.795568 0.616558 0.795986 0.030130
H25   H     H_    0.556656 0.716621 0.238547 0.058444
H26   H     H_    0.617112 0.847094 0.205142 0.351468
H27   H     H_    0.251044 0.286097 0.296045 0.341949
H28   H     H_    0.430882 0.225267 0.140743 0.322544
H29   H     H_    0.478914 0.352307 0.194051 -0.062098
H30   H     H_    0.735552 0.350804 0.206534 0.281074
H31   H     H_    0.887852 0.325153 0.678535 0.267818
H32   H     H_    0.910499 0.141937 0.682782 0.307940
H33   H     H_    0.228555 0.298897 0.870921 0.321665
H34   H     H_    0.787601 0.193567 0.308744 0.226916
H35   H     H_    0.966321 0.262674 0.829330 0.051102
H36   H     H_    0.161768 0.152031 0.764903 0.316679
H37   H     H_    0.435716 0.201066 0.813689 0.351794
H38   H     H_    0.984243 0.437493 0.180559 0.097222
H39   H     H_    0.212018 0.550448 0.819631 0.157073
H40   H     H_    0.604141 0.410128 0.854026 0.324654
H41   H     H_    0.827459 0.476533 0.649739 0.071795
H42   H     H_    0.847568 0.908576 0.568613 0.340945
H43   H     H_    0.018852 0.105226 0.564819 0.338404
H44   H     H_    0.367872 0.861813 0.336912 0.346097
H45   H     H_    0.001881 0.184751 0.319476 0.193467
H46   H     H_    0.348651 0.161108 0.418946 0.338404
H47   H     H_    0.424547 0.669400 0.449540 0.076121
H48   H     H_    0.144022 0.848011 0.227115 0.326819
H49   H     H_    0.368799 0.676068 0.621285 -0.070096
H50   H     H_    0.142087 0.677234 0.560474 0.304376
H51   H     H_    0.857742 0.627024 0.668888 0.031942
H52   H     H_    0.642075 0.590700 0.675311 0.047586
H53   H     H_    0.898833 0.812574 0.276272 0.175706
H54   H     H_    0.866533 0.716798 0.787396 0.166294
N1    N     N_R   0.192903 0.538273 0.957130 -0.279879
N2    N     N_R   0.244661 0.542902 0.026370 -0.203519
N3    N     N_R   0.012586 0.455090 0.041552 -0.194900
N4    N     N_R   0.961281 0.450405 0.972394 -0.133029
O1    O     O_2   0.865200 0.455450 0.325860 -0.470886
O2    O     O_2   0.208651 0.224563 0.535127 -0.446408
O3    O     O_3   0.137446 0.243345 0.669703 -0.592027
O4    O     O_3   0.117880 0.456770 0.413320 -0.493043
O5    O     O_3   0.582730 0.595670 0.541910 -0.487540
O6    O     O_2   0.334130 0.306180 0.453490 -0.442706
O7    O     O_3   0.514960 0.271333 0.341336 -0.632683
O8    O     O_2   0.431139 0.460707 0.748596 -0.409633
O9    O     O_3   0.467778 0.315378 0.733166 -0.515175
O10   O     O_3   0.657770 0.599920 0.378120 -0.443743
O11   O     O_2   0.679467 0.507063 0.250468 -0.450372
O12   O     O_3   0.701573 0.706124 0.661538 -0.603663
O13   O     O_3   0.984253 0.329693 0.310886 -0.548307
O14   O     O_3   0.749923 0.658380 0.252914 -0.563529
O15   O     O_2   0.855570 0.693850 0.546560 -0.363177
O16   O     O_3   0.082050 0.640900 0.416060 -0.462619
O17   O     O_2   0.981594 0.774963 0.462918 -0.384172
O18   O     O_3   0.264080 0.832801 0.726137 -0.691613
O19   O     O_3   0.701074 0.859036 0.246747 -0.650451
O20   O     O_3   0.317487 0.339600 0.308298 -0.797612
O21   O     O_3   0.417733 0.233758 0.193548 -0.655741
O22   O     O_3   0.680092 0.300536 0.217851 -0.698170
O23   O     O_3   0.123538 0.772479 0.345058 -0.615163
O24   O     O_3   0.967605 0.327279 0.719956 -0.765336
O25   O     O_3   0.871929 0.193408 0.691419 -0.821358
O26   O     O_3   0.210500 0.298441 0.818371 -0.709839
O27   O     O_3   0.083219 0.169035 0.800010 -0.710524
O28   O     O_3   0.502239 0.165383 0.786020 -0.684321
O29   O     O_3   0.717221 0.428028 0.876001 -0.680550
O30   O     O_3   0.811254 0.852215 0.568731 -0.664808
O31   O     O_3   0.912873 0.078655 0.539270 -0.739383
O32   O     O_3   0.399616 0.808909 0.332303 -0.804396
O33   O     O_3   0.406383 0.120526 0.433333 -0.698903
O34   O     O_2   0.324510 0.544570 0.674190 -0.476627
O35   O     O_3   0.236002 0.822859 0.207566 -0.659537
O36   O     O_3   0.163798 0.724709 0.599229 -0.661957
O37   O     O_3   0.071830 0.543290 0.586690 -0.489073
O38   O     O_3   0.531950 0.400150 0.621890 -0.462086
O39   O     O_3   0.194689 0.669595 0.697290 -0.631299
O40   O     O_3   0.606980 0.404400 0.458100 -0.467035
O41   O     O_3   0.107660 0.359170 0.583950 -0.424344
P1    P     P_3+3 0.032830 0.432130 0.335280 0.857914
P2    P     P_3+3 0.680690 0.682340 0.566920 1.125326
P3    P     P_3+3 0.129808 0.743159 0.429032 0.880031
P4    P     P_3+3 0.156880 0.567940 0.664730 0.890625
P5    P     P_3+3 0.079725 0.258329 0.582486 0.960420
P6    P     P_3+3 0.621154 0.584194 0.283757 0.920136
P7    P     P_3+3 0.518392 0.304281 0.435292 1.065269
P8    P     P_3+3 0.551199 0.407534 0.715590 0.978636

loop_
_geom_bond_atom_site_label_1
_geom_bond_atom_site_label_2
_ccdc_geom_bond_type
C18   H47   S    
Ba2   O5    S    
C26   P5    S    
N1    N2    A    
O2    P5    D    
C44   H13   S    
H30   O22   S    
C12   H25   S    
C34   O21   S    
O7    P7    S    
O37   P4    S    
C5    C6    S    
C2    C44   S    
Ba2   O41   S    
C13   C17   A    
C10   H39   S    
H43   O31   S    
H32   O25   S    
C22   C24   D    
C4    O23   S    
C17   H41   S    
C38   H52   S    
C36   C37   S    
H28   O21   S    
C14   O29   S    
C8    C15   S    
O15   P2    D    
C13   C14   A    
C7    P1    S    
Ba2   O40   S    
Ba1   Ba2   S    
Ba1   O15   S    
Ba2   O4    S    
C4    O32   S    
Ba1   O5    S    
C36   H12   S    
C36   O13   S    
C42   H7    S    
C39   H2    S    
C26   C33   A    
C6    C7    D    
C12   O14   S    
C10   C15   A    
C21   C22   S    
C29   O33   S    
C40   O3    S    
O41   P5    S    
C40   O24   S    
O23   P3    S    
C42   H6    S    
Ba2   P4    S    
C36   H23   S    
C7    C44   D    
C19   C20   S    
C32   H14   S    
H48   O35   S    
O3    P5    S    
Ba1   P1    S    
O5    P2    S    
O10   P6    S    
H46   O33   S    
C37   H45   S    
C1    H4    S    
C1    O19   S    
C16   H5    S    
O4    P1    S    
C41   O26   S    
O34   P4    D    
C4    C16   S    
O14   P6    S    
O17   P3    D    
C28   O36   S    
C11   C17   A    
Ba2   O34   S    
C19   P3    S    
C4    H10   S    
C38   H51   S    
C3    C5    D    
C14   C15   A    
Ba1   O4    S    
C16   O35   S    
C21   C31   S    
H33   O26   S    
C28   O39   S    
C28   C35   S    
O13   P1    S    
Ba1   O16   S    
C30   C32   S    
C5    C9    S    
C37   H22   S    
C28   H49   S    
C34   H29   S    
C20   H16   S    
H44   O32   S    
H40   O29   S    
C29   C30   A    
H27   O20   S    
C35   H20   S    
C31   C32   D    
C39   H54   S    
C18   C19   S    
H31   O24   S    
C9    N2    A    
C1    C12   S    
C31   H15   S    
C38   C39   S    
C43   H8    S    
O16   P3    S    
O8    P8    D    
H26   O19   S    
C41   H35   S    
Ba1   P2    S    
C35   H1    S    
C40   C41   S    
H21   O18   S    
C25   C26   A    
C42   C43   S    
C22   O30   S    
C2    P6    S    
Ba2   O6    S    
C25   C30   A    
C6    H38   S    
C8    N1    A    
C34   O22   S    
O9    P8    S    
C2    C3    S    
H50   O36   S    
O12   P2    S    
C33   H17   S    
C27   C33   A    
O6    P7    D    
C3    H11   S    
C25   O31   S    
C37   H34   S    
C8    N4    A    
H42   O30   S    
H37   O28   S    
C27   C29   A    
Ba1   O40   S    
C27   P7    S    
C16   H18   S    
C42   O9    S    
C38   O12   S    
C18   C24   D    
Ba2   O38   S    
O1    P1    D    
C41   O27   S    
C12   H19   S    
C40   O25   S    
O38   P8    S    
C24   P2    S    
C23   O20   S    
C23   H3    S    
C13   P8    S    
Ba1   O37   S    
C23   O7    S    
C23   C34   S    
C11   P4    S    
C35   O18   S    
C1    H53   S    
O39   P4    S    
C10   C11   A    
C43   H9    S    
C43   O28   S    
O40   P7    S    
Ba1   O10   S    
O11   P6    D    
N3    N4    A    
Ba2   O37   S    
C20   C21   D    
C9    N3    A    
H36   O27   S    
Ba1   O1    S    
C39   H24   S    
