data_mof_unit_57528.cif
_audit_creation_date              2012-12-11T15:47:09-0500
_audit_creation_method            fapswitch 2.2
_symmetry_space_group_name_H-M    P1
_symmetry_Int_Tables_number       1
_space_group_crystal_system       triclinic
_cell_length_a                    20.194548
_cell_length_b                    7.261254
_cell_length_c                    13.643579
_cell_angle_alpha                 90.003357
_cell_angle_beta                  103.2697
_cell_angle_gamma                 89.996504
_cell_volume                      1947.24668923

loop_
_atom_site_label
_atom_site_type_symbol
_atom_type_description
_atom_site_fract_x
_atom_site_fract_y
_atom_site_fract_z
_atom_type_partial_charge
O1    O     O_R   0.449560 0.506810 0.599700 -0.536071
O2    O     O_R   0.550440 0.006810 0.400300 -0.536073
O3    O     O_R   0.587960 0.180060 0.595760 -0.546236
O4    O     O_R   0.412040 0.680060 0.404240 -0.546229
C1    C     C_R   0.615141 0.344124 0.616758 0.688438
C2    C     C_R   0.384858 0.844126 0.383242 0.688435
O5    O     O_R   0.452380 0.177430 0.611700 -0.538987
O6    O     O_R   0.547620 0.677430 0.388300 -0.538988
O7    O     O_R   0.413900 0.001890 0.416350 -0.541409
O8    O     O_R   0.586100 0.501890 0.583650 -0.541407
C3    C     C_R   0.436513 0.345676 0.637185 0.685155
C4    C     C_R   0.563486 0.845661 0.362813 0.685152
O9    O     O_3   0.487530 0.337490 0.435890 -0.380106
O10   O     O_3   0.512470 0.837490 0.564110 -0.380107
V1    V     V_3+5 0.502310 0.064660 0.511890 1.419273
V2    V     V_3+5 0.497690 0.564660 0.488110 1.419284
C5    C     C_R   0.605264 0.864562 0.110053 -0.139189
C6    C     C_R   0.394733 0.365712 0.889925 -0.139185
H1    H     H_    0.513046 0.859156 0.162475 0.106469
H2    H     H_    0.486952 0.360423 0.837499 0.106472
H3    H     H_    0.684196 0.873041 0.982724 0.158603
H4    H     H_    0.315801 0.374510 0.017250 0.158605
H5    H     H_    0.578056 0.868956 0.031730 0.116392
H6    H     H_    0.421942 0.370685 0.968237 0.116389
C7    C     C_R   0.602043 0.853655 0.285057 -0.028656
C8    C     C_R   0.397954 0.353749 0.714938 -0.028653
C9    C     C_R   0.928969 0.854240 0.311846 -0.181200
C10   C     C_R   0.071033 0.353495 0.688169 -0.181202
C11   C     C_R   0.894026 0.848290 0.388021 0.487573
C12   C     C_R   0.105978 0.347167 0.612004 0.487574
C13   C     C_R   0.823291 0.849280 0.364758 -0.197570
C14   C     C_R   0.176712 0.348401 0.635263 -0.197567
C15   C     C_R   0.785148 0.856117 0.263586 -0.026852
C16   C     C_R   0.214852 0.355869 0.736421 -0.026853
C17   C     C_R   0.821132 0.861450 0.184344 -0.003688
C18   C     C_R   0.178868 0.361556 0.815656 -0.003683
C19   C     C_R   0.712318 0.857667 0.239146 0.098158
C20   C     C_R   0.287681 0.357693 0.760854 0.098160
C21   C     C_R   0.676692 0.863713 0.136687 0.071613
C22   C     C_R   0.323307 0.364442 0.863299 0.071616
C23   C     C_R   0.712071 0.868539 0.060827 -0.217323
C24   C     C_R   0.287927 0.369538 0.939156 -0.217332
C25   C     C_R   0.782649 0.867548 0.082541 0.341082
C26   C     C_R   0.217350 0.368186 0.917449 0.341062
C27   C     C_R   0.673103 0.853185 0.312796 -0.185788
C28   C     C_R   0.326895 0.352851 0.687208 -0.185794
C29   C     C_R   0.568142 0.859174 0.183977 -0.169011
C30   C     C_R   0.431856 0.360046 0.816004 -0.169015
C31   C     C_R   0.893897 0.860695 0.210977 -0.142151
C32   C     C_R   0.106104 0.360570 0.789027 -0.142125
H7    H     H_    0.695604 0.848639 0.392344 0.094596
H8    H     H_    0.304391 0.347765 0.607671 0.094594
H9    H     H_    0.984147 0.853894 0.331474 0.158830
H10   H     H_    0.015855 0.352913 0.668545 0.158793
H11   H     H_    0.800061 0.844447 0.428174 0.142140
H12   H     H_    0.199945 0.343236 0.571859 0.142143
C33   C     C_R   0.218293 0.023067 0.221268 -0.105791
C34   C     C_R   0.781762 0.523073 0.778563 -0.105501
H13   H     H_    0.195818 0.155875 0.198589 0.178413
H14   H     H_    0.804279 0.655888 0.801103 0.178314
C35   C     C_R   0.283750 0.018662 0.283774 -0.154954
C36   C     C_R   0.716301 0.518667 0.716066 -0.154938
H15   H     H_    0.309603 0.147846 0.306221 0.126272
H16   H     H_    0.690488 0.647863 0.693495 0.126226
C37   C     C_R   0.315272 0.849999 0.316511 -0.052145
C38   C     C_R   0.684729 0.349994 0.683486 -0.052148
C39   C     C_R   0.278826 0.686122 0.286697 -0.145316
C40   C     C_R   0.721129 0.186098 0.713446 -0.145334
H17   H     H_    0.300680 0.553362 0.311917 0.124776
H18   H     H_    0.699237 0.053319 0.688352 0.124817
C41   C     C_R   0.213257 0.690847 0.224472 -0.094821
C42   C     C_R   0.786699 0.190821 0.775667 -0.095085
H19   H     H_    0.186524 0.562235 0.205040 0.175021
H20   H     H_    0.813394 0.062185 0.795215 0.175156
C43   C     C_R   0.182569 0.859117 0.188854 -0.043644
C44   C     C_R   0.817435 0.359113 0.811133 -0.043705
O11   O     O_R   0.913920 0.203370 0.916260 -0.523781
O12   O     O_R   0.086080 0.703370 0.083740 -0.523647
O13   O     O_R   0.047620 0.535540 0.888290 -0.529760
O14   O     O_R   0.952380 0.035540 0.111710 -0.529833
C45   C     C_R   0.064119 0.368338 0.863057 0.798892
C46   C     C_R   0.935880 0.868358 0.136942 0.798891
O15   O     O_R   0.912040 0.532780 0.904220 -0.531894
O16   O     O_R   0.087960 0.032780 0.095780 -0.532018
O17   O     O_R   0.949550 0.708160 0.099720 -0.526928
O18   O     O_R   0.050450 0.208160 0.900280 -0.527007
C47   C     C_R   0.885866 0.364829 0.881732 0.689450
C48   C     C_R   0.114136 0.864829 0.118263 0.689446
O19   O     O_3   0.012480 0.375300 0.064060 -0.369072
O20   O     O_3   0.987520 0.875300 0.935940 -0.369067
V3    V     V_3+5 0.997690 0.648180 0.988110 1.582309
V4    V     V_3+5 0.002310 0.148180 0.011890 1.582139
Cl1   Cl    Cl    0.939427 0.839826 0.514252 -0.602293
Cl2   Cl    Cl    0.060578 0.337862 0.485791 -0.602319
Cl3   Cl    Cl    0.816530 0.873587 0.974803 -0.728646
Cl4   Cl    Cl    0.183467 0.374395 0.025185 -0.728631

loop_
_geom_bond_atom_site_label_1
_geom_bond_atom_site_label_2
_ccdc_geom_bond_type
C34   C36   A    
C38   C40   A    
O11   V4    S    
O4    V2    S    
C9    C11   A    
O15   C47   A    
O1    C3    A    
C42   C44   A    
O2    C4    A    
C2    O7    A    
O17   V3    S    
C34   C44   A    
C21   C23   A    
O5    C3    A    
C5    H5    S    
C6    H6    S    
C20   C22   A    
H1    C29   S    
C33   H13   S    
C27   H7    S    
C34   H14   S    
C28   H8    S    
C5    C21   A    
C35   H15   S    
C6    C22   A    
C36   H16   S    
C10   C32   A    
C2    C37   S    
C37   C39   A    
C17   C31   A    
C25   Cl3   S    
C13   C15   A    
C12   C14   A    
C17   C25   A    
C7    C29   A    
O13   V3    S    
C45   O18   A    
C8    C30   A    
C22   C24   A    
O6    V2    S    
C11   C13   A    
C23   C25   A    
C24   C26   A    
C11   Cl1   S    
C36   C38   A    
C5    C29   A    
C42   H20   S    
O13   C45   A    
C10   H10   S    
C3    C8    S    
C15   C19   A    
C40   C42   A    
C39   H17   S    
C14   C16   A    
C31   C46   S    
O14   V4    S    
C26   Cl4   S    
O6    C4    A    
O1    V2    S    
O19   V4    S    
O2    V1    S    
C44   C47   S    
O11   C47   A    
H2    C30   S    
H3    C23   S    
O4    C2    A    
C18   C26   A    
C19   C27   A    
C7    C27   A    
C18   C32   A    
C41   H19   S    
O12   C48   A    
C16   C20   A    
O16   C48   A    
C1    C38   S    
O3    C1    A    
C6    C30   A    
C9    H9    S    
C33   C35   A    
O12   V3    S    
C46   O17   A    
O15   V3    S    
C4    C7    S    
C33   C43   A    
C10   C12   A    
O7    V1    S    
C1    O8    A    
C12   Cl2   S    
O8    V2    S    
C41   C43   A    
O20   V3    S    
H4    C24   S    
O5    V1    S    
C15   C17   A    
O14   C46   A    
C39   C41   A    
C20   C28   A    
C8    C28   A    
C35   C37   A    
C43   C48   S    
C16   C18   A    
C19   C21   A    
O9    V2    S    
C40   H18   S    
O10   V1    S    
O3    V1    S    
O18   V4    S    
O16   V4    S    
C13   H11   S    
C14   H12   S    
C9    C31   A    
C32   C45   S    
