data_mof_unit_25502.cif
_audit_creation_date              2012-10-26T19:00:09-0400
_audit_creation_method            fapswitch 2.2
_symmetry_space_group_name_H-M    P1
_symmetry_Int_Tables_number       1
_space_group_crystal_system       triclinic
_cell_length_a                    10.826333
_cell_length_b                    10.832571
_cell_length_c                    9.535452
_cell_angle_alpha                 89.707818
_cell_angle_beta                  90.146671
_cell_angle_gamma                 90.14913
_cell_volume                      1118.26744853

loop_
_atom_site_label
_atom_site_type_symbol
_atom_type_description
_atom_site_fract_x
_atom_site_fract_y
_atom_site_fract_z
_atom_type_partial_charge
C1    C     C_R   0.499303 0.262404 0.500103 0.574427
C2    C     C_R   0.859267 0.324960 0.977992 -0.114374
C3    C     C_R   0.783733 0.223541 0.949182 -0.085980
C4    C     C_R   0.262400 0.502569 0.499651 0.556781
C5    C     C_R   0.758891 0.191091 0.810352 -0.086621
C6    C     C_R   0.807091 0.261499 0.699784 -0.035202
C7    C     C_R   0.882164 0.364516 0.727859 0.056168
C8    C     C_R   0.506543 0.062656 0.624822 0.016908
C9    C     C_R   0.504750 0.129260 0.499330 0.040091
C10   C     C_R   0.514519 0.065129 0.372072 -0.147662
C11   C     C_R   0.513538 0.936664 0.371892 -0.120897
C12   C     C_R   0.241429 0.742949 0.047736 -0.079253
C13   C     C_R   0.506160 0.870878 0.498963 0.020146
C14   C     C_R   0.510020 0.935770 0.624886 -0.022145
C15   C     C_3   0.428521 0.926039 0.750642 -0.221727
C16   C     C_R   0.499731 0.737647 0.499667 0.558181
C17   C     C_3   0.423619 0.066363 0.750142 0.104966
C18   C     C_R   0.554326 0.594677 0.073205 0.205032
C19   C     C_R   0.436393 0.413348 0.074761 -0.020578
C20   C     C_R   0.436664 0.413163 0.925858 -0.020133
C21   C     C_R   0.552170 0.595741 0.925547 0.112085
C22   C     C_3   0.682685 0.637388 0.915470 -0.227924
C23   C     C_R   0.933254 0.550386 0.390235 -0.141379
C24   C     C_3   0.688173 0.629629 0.074201 0.082285
C25   C     C_R   0.737688 0.495513 0.500479 0.548635
C26   C     C_R   0.240750 0.796269 0.180916 -0.081288
C27   C     C_R   0.181003 0.736556 0.292110 -0.050254
C28   C     C_R   0.120867 0.623268 0.269979 0.060414
C29   C     C_R   0.121202 0.570640 0.135798 -0.080852
C30   C     C_R   0.181668 0.630279 0.025088 -0.102509
C31   C     C_R   0.871753 0.491747 0.501143 -0.007208
C32   C     C_R   0.939525 0.436283 0.611830 -0.029794
C33   C     C_R   0.067639 0.444676 0.609776 -0.126297
C34   C     C_R   0.128580 0.503625 0.499067 -0.000026
C35   C     C_R   0.061095 0.557276 0.387939 -0.036034
C36   C     C_R   0.909680 0.394148 0.867926 -0.109702
Cl1   Cl    Cl    0.272577 0.124331 0.711453 -0.644431
Cl2   Cl    Cl    0.716889 0.775660 0.153066 -0.667209
Cu1   Cu    Cu3+1 0.499990 0.499980 0.640670 0.956238
Cu2   Cu    Cu3+1 0.500010 0.500020 0.359330 0.978391
H1    H     H_    0.288398 0.788788 0.962210 0.113167
H2    H     H_    0.286697 0.883735 0.197982 0.111993
H3    H     H_    0.387111 0.341726 0.870339 0.163847
H4    H     H_    0.742720 0.569549 0.863210 0.144003
H5    H     H_    0.689532 0.732640 0.872121 0.167375
H6    H     H_    0.748703 0.554247 0.113238 0.124993
H7    H     H_    0.182146 0.777939 0.395288 0.110596
H8    H     H_    0.076903 0.482407 0.118090 0.097573
H9    H     H_    0.182941 0.588821 0.922032 0.114418
H10   H     H_    0.881564 0.594683 0.306840 0.173804
H11   H     H_    0.120529 0.400652 0.692828 0.165935
H12   H     H_    0.745501 0.169298 0.034361 0.130102
H13   H     H_    0.968129 0.472541 0.891526 0.097374
H14   H     H_    0.703562 0.110332 0.788818 0.108087
H15   H     H_    0.879186 0.349621 0.085578 0.108308
H16   H     H_    0.787606 0.234691 0.592694 0.100624
H17   H     H_    0.517511 0.113530 0.272440 0.132493
H18   H     H_    0.513145 0.889616 0.272220 0.185152
H19   H     H_    0.339001 0.880014 0.726707 0.173921
H20   H     H_    0.478682 0.887624 0.842859 0.111627
H21   H     H_    0.468492 0.108930 0.843120 0.113042
H22   H     H_    0.386518 0.342021 0.130828 0.129653
N1    N     N_R   0.500790 0.500930 0.147930 -0.247648
N2    N     N_R   0.500790 0.500890 0.852020 -0.243693
O1    O     O_R   0.500000 0.319640 0.618810 -0.487084
O2    O     O_R   0.500010 0.319680 0.381230 -0.525037
O3    O     O_R   0.319640 0.499990 0.618790 -0.506348
O4    O     O_R   0.319650 0.500030 0.381210 -0.492721
O5    O     O_R   0.499990 0.680320 0.618770 -0.510022
O6    O     O_R   0.500000 0.680360 0.381190 -0.472679
O7    O     O_R   0.680350 0.499970 0.618790 -0.504021
O8    O     O_R   0.680360 0.500010 0.381210 -0.500101

loop_
_geom_bond_atom_site_label_1
_geom_bond_atom_site_label_2
_ccdc_geom_bond_type
C20   N2    A    
C4    O3    A    
C24   Cl2   S    
C3    H12   S    
C25   C31   S    
C29   C30   A    
C25   O7    A    
C33   H11   S    
C11   H18   S    
C11   C13   A    
C7    C36   A    
C1    O1    A    
C8    C17   S    
C15   H19   S    
C24   H6    S    
C32   C33   A    
C10   H17   S    
C19   C20   A    
C2    C3    A    
Cu1   O5    S    
C1    C9    S    
C20   H3    S    
C17   Cl1   S    
C21   C22   S    
C6    H16   S    
Cu1   N2    S    
Cu1   O1    S    
C26   C27   A    
C6    C7    A    
Cu2   N1    S    
Cu2   O6    S    
C8    C14   A    
C18   C24   S    
C22   C24   S    
C27   H7    S    
C28   C29   A    
C30   H9    S    
C17   H21   S    
C33   C34   A    
C23   C35   A    
C2    H15   S    
Cu2   O4    S    
C5    C6    A    
C7    C32   S    
C4    C34   S    
C18   N1    A    
C10   C11   A    
C29   H8    S    
C2    C36   A    
C19   H22   S    
C18   C21   A    
C3    C5    A    
C5    H14   S    
C27   C28   A    
C22   H5    S    
C16   O6    A    
C26   H2    S    
C12   H1    S    
C4    O4    A    
C34   C35   A    
C9    C10   A    
C13   C16   S    
C12   C26   A    
Cu1   Cu2   S    
C15   C17   S    
Cu1   O7    S    
C14   C15   S    
C25   O8    A    
C23   H10   S    
Cu2   O2    S    
C36   H13   S    
Cu2   O8    S    
C12   C30   A    
C13   C14   A    
Cu1   O3    S    
C15   H20   S    
C22   H4    S    
C16   O5    A    
C31   C32   A    
C28   C35   S    
C19   N1    A    
C8    C9    A    
C21   N2    A    
C23   C31   A    
C1    O2    A    
