data_mof_unit_5922.cif
_audit_creation_date              2012-12-10T17:49:31-0500
_audit_creation_method            fapswitch 2.2
_symmetry_space_group_name_H-M    P1
_symmetry_Int_Tables_number       1
_space_group_crystal_system       triclinic
_cell_length_a                    14.769365
_cell_length_b                    14.724974
_cell_length_c                    15.886673
_cell_angle_alpha                 76.461294
_cell_angle_beta                  103.087529
_cell_angle_gamma                 115.174594
_cell_volume                      3008.18791769

loop_
_atom_site_label
_atom_site_type_symbol
_atom_type_description
_atom_site_fract_x
_atom_site_fract_y
_atom_site_fract_z
_atom_type_partial_charge
C1    C     C_R   0.880204 0.312121 0.514373 0.827026
C2    C     C_3   0.001465 0.397338 0.072294 -0.438376
C3    C     C_3   0.001528 0.499310 0.083394 0.225360
C4    C     C_3   0.095372 0.590206 0.048775 0.008438
C5    C     C_3   0.095291 0.588385 0.951023 -0.440684
C6    C     C_1   0.000629 0.499665 0.175380 -0.019158
C7    C     C_1   0.000123 0.499114 0.825038 0.005300
C8    C     C_1   0.999876 0.499574 0.749353 -0.150933
C9    C     C_R   0.812664 0.204313 0.515165 -0.180384
C10   C     C_R   0.188246 0.796250 0.470208 -0.181569
C11   C     C_R   0.785353 0.031263 0.511007 -0.199065
C12   C     C_R   0.999949 0.499882 0.659649 0.807300
C13   C     C_R   0.850843 0.131818 0.516231 -0.275189
C14   C     C_R   0.708092 0.174933 0.508543 0.639985
C15   C     C_R   0.640482 0.077742 0.489757 -0.039999
C16   C     C_R   0.679837 0.002661 0.498484 0.029562
C17   C     C_R   0.534669 0.052210 0.466577 -0.059620
C18   C     C_R   0.467915 0.948237 0.473700 -0.043554
C19   C     C_R   0.508979 0.874272 0.486141 -0.156919
C20   C     C_R   0.612770 0.900720 0.495542 0.152292
C21   C     C_R   0.493539 0.126743 0.430988 0.676451
C22   C     C_R   0.389736 0.100199 0.417114 -0.277489
C23   C     C_R   0.119871 0.688009 0.484678 0.838965
C24   C     C_R   0.323687 0.999308 0.435757 -0.030278
C25   C     C_R   0.361908 0.922098 0.464223 0.090171
C26   C     C_R   0.219326 0.974608 0.423887 -0.221350
C27   C     C_R   0.151770 0.873830 0.440262 0.599989
C28   C     C_R   0.292771 0.821475 0.483644 -0.282745
C29   C     C_R   0.719212 0.671640 0.354958 -0.306517
C30   C     C_R   0.799802 0.641175 0.379500 0.127811
C31   C     C_R   0.712353 0.506902 0.484512 0.076002
C32   C     C_R   0.626699 0.533142 0.461592 -0.017298
C33   C     C_R   0.632846 0.618491 0.396294 0.154345
C34   C     C_R   0.000037 0.500040 0.340363 0.827008
C35   C     C_R   0.537212 0.479815 0.502394 0.072863
C36   C     C_R   0.456483 0.515423 0.479919 0.103444
C37   C     C_R   0.469168 0.603447 0.416463 -0.151935
C38   C     C_R   0.554146 0.651954 0.374245 -0.201833
C39   C     C_R   0.526700 0.392557 0.565660 -0.178369
C40   C     C_R   0.444542 0.345601 0.610349 -0.154510
C41   C     C_R   0.367471 0.380953 0.591907 0.033902
C42   C     C_R   0.368503 0.463273 0.524297 -0.126983
C43   C     C_R   0.289562 0.333850 0.642352 -0.268569
C44   C     C_R   0.210906 0.365823 0.626651 0.254721
C45   C     C_3   0.003759 0.397027 0.974558 0.725446
C46   C     C_R   0.280715 0.487375 0.505697 0.688735
C47   C     C_3   0.905977 0.512475 0.929030 -0.494603
C48   C     C_3   0.904963 0.509796 0.026885 -0.462049
C49   C     C_1   0.000183 0.499902 0.250769 -0.138479
C50   C     C_3   0.000655 0.498318 0.917601 0.218742
Cu1   Cu    Cu3+1 0.081750 0.475690 0.522550 0.988047
Cu2   Cu    Cu3+1 0.918250 0.524310 0.477450 1.006913
H1    H     H_    0.933328 0.333515 0.096039 0.131241
H2    H     H_    0.067249 0.384191 0.114545 0.206340
H3    H     H_    0.088852 0.661837 0.052486 0.154305
H4    H     H_    0.319027 0.761369 0.511172 0.187980
H5    H     H_    0.360833 0.159135 0.390532 0.179041
H6    H     H_    0.818251 0.976928 0.515437 0.163899
H7    H     H_    0.931436 0.152519 0.521969 0.189347
H8    H     H_    0.461910 0.795035 0.484199 0.160893
H9    H     H_    0.189871 0.033510 0.401178 0.165639
H10   H     H_    0.559778 0.718820 0.325637 0.148584
H11   H     H_    0.441516 0.280550 0.660510 0.145965
H12   H     H_    0.724834 0.737027 0.304638 0.146801
H13   H     H_    0.866778 0.682454 0.347932 0.161205
H14   H     H_    0.716423 0.445811 0.535651 0.160714
H15   H     H_    0.906628 0.586702 0.891427 0.196297
H16   H     H_    0.416784 0.639794 0.398800 0.216556
H17   H     H_    0.581385 0.358542 0.583241 0.176774
H18   H     H_    0.291076 0.273529 0.696409 0.173277
H19   H     H_    0.835315 0.453032 0.902032 0.188578
H20   H     H_    0.836364 0.444906 0.048642 0.191577
H21   H     H_    0.900099 0.580517 0.035193 0.187183
H22   H     H_    0.165296 0.582956 0.942033 0.215209
H23   H     H_    0.095168 0.661401 0.911115 0.153398
N1    N     N_R   0.795410 0.560790 0.443550 -0.195694
N2    N     N_R   0.204590 0.439170 0.556520 -0.231768
O1    O     O_R   0.977910 0.338120 0.529720 -0.617762
O2    O     O_R   0.839850 0.379180 0.491640 -0.515582
O3    O     O_R   0.069060 0.479460 0.639610 -0.595888
O4    O     O_R   0.931000 0.520530 0.601530 -0.581920
O5    O     O_R   0.160150 0.620820 0.508360 -0.547812
O6    O     O_R   0.022090 0.661880 0.470280 -0.538451
O7    O     O_R   0.069000 0.479470 0.398470 -0.508213
O8    O     O_R   0.930940 0.520540 0.360390 -0.593663
F1    F     F_    0.093444 0.390878 0.968886 -0.671113
N3    N     N_3   0.647747 0.821310 0.504616 -0.596595
H24   H     H_    0.693735 0.818661 0.564988 0.225606
H25   H     H_    0.690426 0.838067 0.454579 0.225105
F2    F     F_    0.051244 0.852890 0.426592 -0.674914
F3    F     F_    0.673550 0.237406 0.530032 -0.651968
N4    N     N_3   0.919717 0.308271 0.942129 -0.578060
H26   H     H_    0.930927 0.242847 0.975608 0.239246
H27   H     H_    0.851458 0.301962 0.956558 0.173917
F4    F     F_    0.551735 0.223760 0.399729 -0.626208
F5    F     F_    0.267075 0.554869 0.435495 -0.679275
N5    N     N_3   0.140924 0.321662 0.688465 -0.574922
H28   H     H_    0.067005 0.289966 0.657982 0.257807
H29   H     H_    0.150549 0.375906 0.725377 0.260534
N6    N     N_3   0.190200 0.590540 0.103177 -0.567087
H30   H     H_    0.207047 0.532859 0.091471 0.262266
H31   H     H_    0.248725 0.659360 0.084269 0.221250

loop_
_geom_bond_atom_site_label_1
_geom_bond_atom_site_label_2
_ccdc_geom_bond_type
C10   C27   A    
C31   H14   S    
N3    H24   S    
C37   H16   S    
C23   O5    A    
C41   C42   A    
C36   C42   A    
C35   C36   A    
C43   C44   A    
C3    C6    S    
C22   H5    S    
N5    H28   S    
C28   H4    S    
C7    C8    T    
C25   C28   A    
C26   C27   A    
C29   C30   A    
C40   H11   S    
C23   O6    A    
Cu2   O8    S    
C26   H9    S    
C24   C26   A    
C42   C46   A    
C15   C16   A    
C20   N3    S    
C29   C33   A    
C3    C48   S    
C27   F2    S    
C18   C19   A    
C11   C16   A    
C5    H22   S    
C45   N4    S    
C9    C13   A    
Cu1   O3    S    
N4    H26   S    
C19   C20   A    
C11   H6    S    
C16   C20   A    
C29   H12   S    
C21   C22   A    
C1    O1    A    
C41   C43   A    
C18   C25   A    
C34   O7    A    
C48   H20   S    
C47   H15   S    
N5    H29   S    
C47   C50   S    
C2    C45   S    
Cu1   Cu2   S    
C32   C35   A    
C1    C9    S    
C24   C25   A    
C2    H2    S    
C39   C40   A    
C21   F4    S    
C17   C21   A    
C34   O8    A    
C5    H23   S    
Cu2   O6    S    
C35   C39   A    
C9    C14   A    
Cu1   N2    S    
C37   C38   A    
C30   N1    A    
C44   N5    S    
C47   C48   S    
C8    C12   S    
N4    H27   S    
C17   C18   A    
C39   H17   S    
Cu1   O5    S    
C47   H19   S    
C40   C41   A    
C43   H18   S    
N3    H25   S    
C4    H3    S    
C1    O2    A    
C22   C24   A    
C5    C50   S    
C3    C4    S    
Cu2   O2    S    
N6    H31   S    
C10   C28   A    
C15   C17   A    
C36   C37   A    
C34   C49   S    
C48   H21   S    
C31   C32   A    
C7    C50   S    
C4    C5    S    
Cu2   N1    S    
C2    H1    S    
C46   N2    A    
C13   H7    S    
C10   C23   S    
C44   N2    A    
C33   C38   A    
C32   C33   A    
C4    N6    S    
C45   F1    S    
Cu1   O1    S    
C11   C13   A    
C31   N1    A    
C45   C50   S    
C12   O3    A    
N6    H30   S    
C12   O4    A    
C2    C3    S    
C6    C49   T    
Cu2   O4    S    
C14   F3    S    
C30   H13   S    
C46   F5    S    
C14   C15   A    
C19   H8    S    
Cu1   O7    S    
C38   H10   S    
