data_mof_unit_40604.cif
_audit_creation_date              2013-03-05T15:49:43-0500
_audit_creation_method            fapswitch 2.2
_symmetry_space_group_name_H-M    P1
_symmetry_Int_Tables_number       1
_space_group_crystal_system       triclinic
_cell_length_a                    12.05741
_cell_length_b                    12.85135
_cell_length_c                    13.127047
_cell_angle_alpha                 86.632438
_cell_angle_beta                  113.495061
_cell_angle_gamma                 93.454327
_cell_volume                      1860.72211796

loop_
_atom_site_label
_atom_site_type_symbol
_atom_site_description
_atom_site_fract_x
_atom_site_fract_y
_atom_site_fract_z
_atom_type_partial_charge
O1    O     O_R   0.579910 0.341070 0.505280 -0.551883
O2    O     O_R   0.388440 0.353740 0.492580 -0.603063
C1    C     C_R   0.474209 0.300292 0.489334 0.970992
O3    O     O_R   0.643280 0.490550 0.663120 -0.604243
O4    O     O_R   0.451810 0.503220 0.650420 -0.594423
C2    C     C_R   0.567486 0.504276 0.708273 0.884831
Zn1   Zn    Zn3+2 0.627850 0.491540 0.508480 1.082462
Zn2   Zn    Zn3+2 0.372150 0.508460 0.491520 1.095368
O5    O     O_R   0.611560 0.646260 0.507420 -0.587066
O6    O     O_R   0.420090 0.658930 0.494720 -0.567527
O7    O     O_R   0.548190 0.496780 0.349580 -0.618963
O8    O     O_R   0.356720 0.509450 0.336880 -0.565365
C3    C     C_R   0.521444 0.700975 0.499160 0.938627
C4    C     C_R   0.432861 0.502811 0.290611 0.963708
C5    C     C_R   0.258972 0.586570 0.989070 0.259483
C6    C     C_R   0.393740 0.516565 0.169498 -0.179231
C7    C     C_R   0.728590 0.490551 0.898589 -0.090509
C8    C     C_R   0.765291 0.491361 0.013141 -0.045431
C9    C     C_R   0.683453 0.515136 0.058050 -0.140145
C10   C     C_R   0.564352 0.543781 0.987847 0.130333
C11   C     C_R   0.537009 0.561647 0.874213 0.029096
C12   C     C_R   0.470017 0.551582 0.025252 0.020109
C13   C     C_R   0.357058 0.593510 0.954015 -0.103440
C14   C     C_R   0.346742 0.637171 0.849256 0.446661
C15   C     C_R   0.435510 0.619599 0.810473 -0.139001
C16   C     C_R   0.483993 0.511882 0.129865 -0.167897
C17   C     C_R   0.276544 0.544479 0.096206 0.228424
C18   C     C_R   0.612657 0.521631 0.828002 -0.115012
H1    H     H_    0.566076 0.474894 0.182833 0.192937
H2    H     H_    0.790411 0.464825 0.865449 0.232764
H3    H     H_    0.716708 0.512846 0.147578 0.139496
H4    H     H_    0.855752 0.469140 0.067339 0.208496
H5    H     H_    0.424599 0.652008 0.729600 0.214760
C19   C     C_R   0.525049 0.813042 0.479329 -0.312073
C20   C     C_R   0.450442 0.190506 0.466805 -0.224033
C21   C     C_R   0.344986 0.032579 0.489927 0.356370
C22   C     C_R   0.356494 0.139667 0.488212 -0.235156
C23   C     C_R   0.518985 0.136035 0.423398 0.336912
C24   C     C_R   0.508271 0.026182 0.424432 -0.165024
C25   C     C_R   0.432466 0.975802 0.473453 -0.108721
C26   C     C_R   0.450796 0.872213 0.511005 0.291844
C27   C     C_R   0.583357 0.858140 0.412392 0.214161
C28   C     C_R   0.574757 0.964941 0.384063 0.258761
H6    H     H_    0.292633 0.182837 0.505554 0.253121
N1    N     N_R   0.798200 0.480260 0.519790 -0.163201
N2    N     N_R   0.201820 0.519740 0.480210 -0.197152
C29   C     C_R   0.004573 0.594876 0.391046 -0.239461
C30   C     C_R   0.125681 0.588316 0.403801 0.543040
C31   C     C_R   0.160378 0.459749 0.549168 0.361253
C32   C     C_R   0.039225 0.466327 0.540192 -0.067520
C33   C     C_R   0.960012 0.533384 0.459074 -0.036241
C34   C     C_R   0.838652 0.538277 0.449403 0.016218
C35   C     C_R   0.876026 0.415798 0.600535 0.459878
C36   C     C_R   0.995635 0.407794 0.610903 -0.139527
H7    H     H_    0.776792 0.588826 0.386103 0.189855
H8    H     H_    0.946317 0.649044 0.329231 0.215602
H9    H     H_    0.053723 0.355735 0.675381 0.235534
N3    N     N_R   0.174435 0.519150 0.125178 0.239655
O9    O     O_R   0.164191 0.427408 0.168887 -0.351604
O10   O     O_R   0.083722 0.580307 0.094391 -0.301378
N4    N     N_R   0.645117 0.794813 0.367205 0.238697
O11   O     O_R   0.584042 0.740463 0.280369 -0.391592
O12   O     O_R   0.762419 0.790930 0.413481 -0.303130
N5    N     N_R   0.239917 0.983373 0.500476 0.258182
O13   O     O_R   0.201408 0.016088 0.572077 -0.239764
O14   O     O_R   0.169403 0.921883 0.423649 -0.252877
N6    N     N_R   0.619935 0.006899 0.303453 0.256449
O15   O     O_R   0.731613 0.994643 0.317859 -0.222295
O16   O     O_R   0.546094 0.049282 0.210463 -0.278141
N7    N     N_R   0.603558 0.191885 0.386046 0.240307
O17   O     O_R   0.565656 0.261585 0.304963 -0.364095
O18   O     O_R   0.719161 0.179095 0.438473 -0.285196
N8    N     N_R   0.839041 0.356771 0.678133 0.212096
O19   O     O_R   0.901605 0.369467 0.783544 -0.346965
O20   O     O_R   0.779998 0.268172 0.648656 -0.304648
Cl1   Cl    Cl    0.177503 0.673569 0.321688 -0.421995
Cl2   Cl    Cl    0.227571 0.715136 0.761575 -0.363653
N9    N     N_R   0.239459 0.390058 0.631160 0.224072
O21   O     O_R   0.288867 0.418014 0.733777 -0.374718
O22   O     O_R   0.226991 0.291125 0.612197 -0.360237
N10   N     N_R   0.139112 0.610816 0.913245 0.261319
O23   O     O_R   0.075993 0.545940 0.836986 -0.321726
O24   O     O_R   0.093509 0.698322 0.919352 -0.236463
N11   N     N_R   0.411571 0.832677 0.596461 0.202094
O25   O     O_R   0.468779 0.863899 0.697363 -0.337469
O26   O     O_R   0.309588 0.779316 0.571020 -0.284709

loop_
_geom_bond_atom_site_label_1
_geom_bond_atom_site_label_2
_geom_bond_distance
_ccdc_geom_bond_type
C23   N7    1.436842 S    
N8    O19   1.299920 A    
C30   Cl1   1.751707 S    
C9    C10   1.419745 A    
C19   C27   1.409219 A    
C9    H3    1.079093 S    
N10   O23   1.300213 A    
C5    N10   1.430839 S    
C35   C36   1.403104 A    
Zn1   O7    1.916205 S    
N2    C31   1.376857 A    
C32   C36   1.401070 A    
Zn1   N1    2.012981 S    
C21   C22   1.374623 A    
C20   C22   1.389990 A    
N11   O26   1.300642 A    
O4    C2    1.294845 A    
O7    C4    1.298681 A    
N9    O22   1.298231 A    
N3    O10   1.300464 A    
C31   N9    1.428684 S    
C8    C9    1.391362 A    
N4    O12   1.300697 A    
O5    C3    1.294599 A    
C2    C18   1.469893 S    
C13   C14   1.415203 A    
N7    O17   1.301380 A    
C34   H7    1.081476 S    
C6    C17   1.409849 A    
C5    C13   1.426474 A    
N1    C35   1.373963 A    
C7    H2    1.076720 S    
N8    O20   1.299008 A    
C19   C26   1.403118 A    
O3    Zn1   1.962566 S    
N10   O24   1.301416 A    
C32   C33   1.403282 A    
C6    C16   1.386191 A    
N2    C30   1.372942 A    
N6    O15   1.301070 A    
C21   C25   1.408864 A    
C20   C23   1.410597 A    
C14   C15   1.390266 A    
O3    C2    1.296626 A    
C24   C25   1.420368 A    
N9    O21   1.299900 A    
C24   C28   1.416549 A    
N1    C34   1.371898 A    
N3    O9    1.301549 A    
C26   N11   1.437829 S    
O6    C3    1.286919 A    
C33   C34   1.422443 A    
O1    C1    1.289361 A    
N5    O14   1.301317 A    
C5    C17   1.415011 A    
C29   C30   1.409153 A    
C1    C20   1.446699 S    
Zn2   O8    1.962566 S    
C7    C8    1.388474 A    
N11   O25   1.300706 A    
C27   N4    1.432001 S    
C28   N6    1.436792 S    
C25   C26   1.391246 A    
C11   C18   1.413770 A    
O8    C4    1.295816 A    
C4    C6    1.469849 S    
C8    H4    1.082744 S    
C27   C28   1.399770 A    
Zn1   O5    2.008478 S    
C11   C15   1.404507 A    
O1    Zn1   1.982608 S    
C7    C18   1.401134 A    
C35   N8    1.429193 S    
O2    Zn2   2.008478 S    
C10   C12   1.417664 A    
C17   N3    1.441125 S    
O4    Zn2   1.916205 S    
C29   C33   1.399684 A    
N5    O13   1.301417 A    
C22   H6    1.076381 S    
O2    C1    1.291221 A    
C3    C19   1.449579 S    
C23   C24   1.409650 A    
N4    O11   1.300684 A    
Zn2   N2    2.012742 S    
C14   Cl2   1.764282 S    
C10   C11   1.401172 A    
C16   H1    1.076151 S    
Zn2   O6    1.982606 S    
C31   C32   1.425274 A    
C12   C16   1.384940 A    
C12   C13   1.426023 A    
N7    O18   1.301151 A    
N6    O16   1.301231 A    
C21   N5    1.434248 S    
C15   H5    1.077560 S    
C29   H8    1.083758 S    
C36   H9    1.082511 S    
