data_mof_unit_46594.cif
_audit_creation_date              2012-12-10T19:04:45-0500
_audit_creation_method            fapswitch 2.2
_symmetry_space_group_name_H-M    P1
_symmetry_Int_Tables_number       1
_space_group_crystal_system       triclinic
_cell_length_a                    15.864009
_cell_length_b                    10.896081
_cell_length_c                    9.555031
_cell_angle_alpha                 90.965143
_cell_angle_beta                  90.082676
_cell_angle_gamma                 90.315391
_cell_volume                      1651.3786302

loop_
_atom_site_label
_atom_site_type_symbol
_atom_type_description
_atom_site_fract_x
_atom_site_fract_y
_atom_site_fract_z
_atom_type_partial_charge
C1    C     C_R   0.503965 0.262609 0.498063 0.846033
C2    C     C_3   0.083092 0.499256 0.500806 0.028116
C3    C     C_3   0.972224 0.612573 0.543487 -0.273420
C4    C     C_3   0.916906 0.501084 0.500776 0.037789
C5    C     C_3   0.027628 0.583788 0.415027 0.399114
C6    C     C_3   0.971202 0.474868 0.369926 -0.185073
C7    C     C_1   0.174742 0.499659 0.499927 0.103317
C8    C     C_1   0.825305 0.500938 0.500619 0.014646
C9    C     C_R   0.499502 0.064801 0.615674 -0.086084
C10   C     C_R   0.509528 0.129411 0.492822 -0.198155
C11   C     C_R   0.522634 0.058106 0.367423 0.434386
C12   C     C_R   0.339895 0.499977 0.499896 0.831577
C13   C     C_R   0.517870 0.929483 0.373240 -0.234356
C14   C     C_R   0.504065 0.869110 0.500174 -0.136696
C15   C     C_R   0.496135 0.941065 0.620070 -0.029792
C16   C     C_3   0.486186 0.938989 0.775769 0.235898
C17   C     C_3   0.490276 0.080807 0.770003 0.211487
C18   C     C_R   0.559527 0.565169 0.074955 0.266172
C19   C     C_R   0.435780 0.448144 0.073150 0.006882
C20   C     C_R   0.436251 0.446827 0.924416 0.003119
C21   C     C_R   0.559454 0.565322 0.927655 0.274615
C22   C     C_3   0.652555 0.547554 0.921862 -0.481490
C23   C     C_R   0.500593 0.737045 0.500964 0.847839
C24   C     C_3   0.652616 0.547488 0.080442 -0.470531
C25   C     C_R   0.660116 0.500183 0.500121 0.807420
C26   C     C_3   0.970901 0.414175 0.589109 -0.176443
C27   C     C_3   0.027039 0.388585 0.458574 -0.253738
C28   C     C_1   0.250254 0.499877 0.499747 -0.092065
C29   C     C_1   0.749775 0.500608 0.500387 -0.161492
C30   C     C_3   0.027630 0.524881 0.628911 0.440242
Cu1   Cu    Cu3+1 0.500000 0.499980 0.640670 1.017464
Cu2   Cu    Cu3+1 0.500000 0.500020 0.359330 1.027619
H1    H     H_    0.050436 0.297095 0.424306 0.191399
H2    H     H_    0.540042 0.895305 0.829968 0.104788
H3    H     H_    0.431623 0.130032 0.799834 0.171616
H4    H     H_    0.384837 0.403247 0.127602 0.171242
H5    H     H_    0.385996 0.400202 0.868021 0.150295
H6    H     H_    0.670573 0.457346 0.875028 0.241471
H7    H     H_    0.685693 0.628253 0.877689 0.203205
H8    H     H_    0.670758 0.457316 0.123761 0.254245
H9    H     H_    0.685728 0.628209 0.127871 0.200435
H10   H     H_    0.946340 0.344631 0.662439 0.180656
H11   H     H_    0.947168 0.456242 0.262427 0.171681
H12   H     H_    0.949524 0.704522 0.577479 0.178413
H13   H     H_    0.525721 0.876029 0.277725 0.213531
N1    N     N_R   0.500530 0.500930 0.147930 -0.182639
N2    N     N_R   0.500530 0.500890 0.852020 -0.179562
O1    O     O_R   0.500000 0.319640 0.618810 -0.574918
O2    O     O_R   0.500010 0.319680 0.381230 -0.508725
O3    O     O_R   0.379070 0.499970 0.618770 -0.555651
O4    O     O_R   0.379080 0.500010 0.381190 -0.581556
O5    O     O_R   0.499990 0.680320 0.618770 -0.554267
O6    O     O_R   0.500000 0.680360 0.381190 -0.590853
O7    O     O_R   0.620920 0.499990 0.618810 -0.591682
O8    O     O_R   0.620930 0.500030 0.381230 -0.577064
O9    O     O_3   0.563011 0.132371 0.832486 -0.678911
H14   H     H_    0.613144 0.086486 0.798555 0.336732
O10   O     O_3   0.059433 0.671731 0.323975 -0.677436
H15   H     H_    0.009223 0.710466 0.281934 0.329671
S1    S     S_3+6 0.065732 0.556894 0.801209 0.026683
O11   O     O_2   0.118884 0.451650 0.848630 -0.277672
O12   O     O_2   0.117949 0.672372 0.800591 -0.254693
O13   O     O_3   0.983450 0.575278 0.910103 -0.533443
H16   H     H_    0.008905 0.588066 0.003998 0.382182
S2    S     S_3+6 0.544707 0.119853 0.200885 0.041136
O14   O     O_2   0.611210 0.218391 0.211862 -0.284655
O15   O     O_2   0.575089 0.020756 0.102144 -0.292489
O16   O     O_3   0.454701 0.178179 0.138521 -0.510533
H17   H     H_    0.467169 0.198265 0.040223 0.381417
S3    S     S_3+6 0.384889 0.883848 0.829190 0.037928
O17   O     O_2   0.385719 0.746171 0.834778 -0.260546
O18   O     O_2   0.365160 0.935429 0.972210 -0.234416
O19   O     O_3   0.310804 0.928667 0.715081 -0.523077
H18   H     H_    0.257750 0.890747 0.748291 0.401662

loop_
_geom_bond_atom_site_label_1
_geom_bond_atom_site_label_2
_ccdc_geom_bond_type
C18   C21   A    
O19   H18   S    
C2    C7    S    
Cu1   O5    S    
C4    C8    S    
C19   N1    A    
C27   H1    S    
C26   C27   S    
C5    O10   S    
C12   C28   S    
S1    O13   S    
C18   C24   S    
C8    C29   T    
C19   H4    S    
C5    C6    S    
C15   C16   S    
C22   H6    S    
O9    H14   S    
S1    O12   D    
C16   H2    S    
Cu1   Cu2   S    
O16   H17   S    
S2    O15   D    
C30   S1    S    
S3    O17   D    
C9    C10   A    
Cu2   O8    S    
Cu1   N2    S    
C13   C14   A    
C24   H9    S    
C18   N1    A    
C23   O6    A    
C25   C29   S    
C3    H12   S    
C16   S3    S    
C25   O7    A    
C4    C6    S    
C16   C17   S    
O10   H15   S    
C7    C28   T    
S1    O11   D    
C14   C23   S    
C3    C30   S    
Cu2   O4    S    
C4    C26   S    
C6    C27   S    
S2    O16   S    
S3    O19   S    
C17   O9    S    
C2    C27   S    
C6    H11   S    
C9    C17   S    
C26   C30   S    
Cu1   O1    S    
C22   C24   S    
C2    C5    S    
Cu1   O3    S    
C3    C4    S    
Cu2   O6    S    
C12   O4    A    
C26   H10   S    
Cu2   N1    S    
C1    C10   S    
C25   O8    A    
C3    C5    S    
C12   O3    A    
C1    O1    A    
C2    C30   S    
C19   C20   A    
C9    C15   A    
C13   H13   S    
C20   H5    S    
C11   C13   A    
C23   O5    A    
C22   H7    S    
C24   H8    S    
Cu1   O7    S    
Cu2   O2    S    
C20   N2    A    
C10   C11   A    
O13   H16   S    
S2    O14   D    
C14   C15   A    
S3    O18   D    
C17   H3    S    
C21   C22   S    
C1    O2    A    
C11   S2    S    
C21   N2    A    
