data_mof_unit_53760.cif
_audit_creation_date              2013-03-05T16:06:20-0500
_audit_creation_method            fapswitch 2.2
_symmetry_space_group_name_H-M    P1
_symmetry_Int_Tables_number       1
_space_group_crystal_system       triclinic
_cell_length_a                    10.902149
_cell_length_b                    9.596254
_cell_length_c                    27.827899
_cell_angle_alpha                 90.618738
_cell_angle_beta                  92.377497
_cell_angle_gamma                 90.206711
_cell_volume                      2908.64930827

loop_
_atom_site_label
_atom_site_type_symbol
_atom_site_description
_atom_site_fract_x
_atom_site_fract_y
_atom_site_fract_z
_atom_type_partial_charge
O1    O     O_R   0.319640 0.618740 0.500000 -0.550056
O2    O     O_R   0.680360 0.381260 0.500000 -0.528504
O3    O     O_R   0.680360 0.618740 0.500000 -0.544026
O4    O     O_R   0.319640 0.381260 0.500000 -0.527041
C1    C     C_R   0.262846 0.500407 0.503613 0.856285
C2    C     C_R   0.737694 0.500707 0.497621 0.860350
O5    O     O_R   0.500020 0.618770 0.430260 -0.569167
O6    O     O_R   0.499980 0.381230 0.569740 -0.544086
O7    O     O_R   0.499980 0.618770 0.569740 -0.564066
O8    O     O_R   0.500020 0.381230 0.430260 -0.539234
C3    C     C_R   0.503680 0.499633 0.407811 0.787936
C4    C     C_R   0.499011 0.500645 0.592198 0.782606
Cu1   Cu    Cu3+1 0.500000 0.640660 0.500000 1.034432
Cu2   Cu    Cu3+1 0.500000 0.359340 0.500000 1.052508
C5    C     C_R   0.407681 0.527217 0.176166 0.539997
C6    C     C_R   0.612103 0.537053 0.824005 0.542201
O9    O     O_2   0.304114 0.557294 0.199061 -0.554189
O10   O     O_2   0.712338 0.579080 0.801145 -0.553360
N1    N     N_R   0.515580 0.503673 0.202033 -0.446302
N2    N     N_R   0.506185 0.501780 0.798154 -0.446128
C7    C     C_R   0.623091 0.483283 0.178926 0.546867
C8    C     C_R   0.401705 0.467084 0.821336 0.545510
C9    C     C_R   0.600967 0.577356 0.281977 -0.115768
C10   C     C_R   0.409848 0.568428 0.719921 -0.113166
C11   C     C_R   0.603423 0.572117 0.332239 0.170879
C12   C     C_R   0.402396 0.561906 0.669650 0.161155
C13   C     C_R   0.416266 0.427667 0.326951 0.190706
C14   C     C_R   0.601963 0.442633 0.671068 0.189342
C15   C     C_R   0.427057 0.420687 0.276798 -0.122560
C16   C     C_R   0.597464 0.435053 0.721427 -0.124161
C17   C     C_R   0.515346 0.499666 0.253969 0.226013
C18   C     C_R   0.504414 0.501588 0.746148 0.226043
C19   C     C_R   0.513976 0.506041 0.101672 -0.047119
C20   C     C_R   0.509015 0.503199 0.898559 -0.046826
C21   C     C_R   0.403964 0.521636 0.125742 -0.018417
C22   C     C_R   0.616921 0.531562 0.874443 -0.019052
C23   C     C_R   0.292812 0.532379 0.099061 -0.144989
C24   C     C_R   0.726792 0.555458 0.901122 -0.144502
C25   C     C_R   0.625043 0.490601 0.128574 -0.021483
C26   C     C_R   0.399722 0.473954 0.871698 -0.020900
C27   C     C_R   0.508291 0.499536 0.355056 -0.168604
C28   C     C_R   0.501022 0.502227 0.644969 -0.163458
H1    H     H_    0.363693 0.358788 0.254563 0.172635
H2    H     H_    0.667970 0.380973 0.742186 0.174597
H3    H     H_    0.206874 0.546143 0.116698 0.184825
H4    H     H_    0.811028 0.578943 0.883473 0.185345
C29   C     C_R   0.398484 0.490887 0.973321 0.042575
C30   C     C_R   0.625391 0.505437 0.026926 0.042669
C31   C     C_R   0.623527 0.518431 0.976177 0.042889
C32   C     C_R   0.399138 0.505793 0.024052 0.043353
C33   C     C_R   0.510360 0.504159 0.949518 0.070948
C34   C     C_R   0.512856 0.505822 0.050718 0.070707
C35   C     C_R   0.289970 0.461437 0.945478 -0.207418
C36   C     C_R   0.735789 0.490441 0.054810 -0.206516
C37   C     C_R   0.291224 0.450794 0.895613 -0.142617
C38   C     C_R   0.735184 0.480769 0.104671 -0.142563
O11   O     O_2   0.300075 0.424535 0.795871 -0.549556
O12   O     O_2   0.727722 0.454168 0.204400 -0.549049
C39   C     C_R   0.289998 0.522203 0.049140 -0.207870
C40   C     C_R   0.730686 0.546630 0.951045 -0.207728
H5    H     H_    0.340152 0.624059 0.738896 0.177090
H6    H     H_    0.667040 0.641926 0.264494 0.178518
H7    H     H_    0.206011 0.426541 0.875823 0.186504
H8    H     H_    0.821946 0.467466 0.124469 0.186138
H9    H     H_    0.203393 0.440968 0.961506 0.139283
H10   H     H_    0.823828 0.480553 0.038806 0.137772
H11   H     H_    0.201281 0.532525 0.030899 0.137586
H12   H     H_    0.818210 0.567455 0.969265 0.138646
C41   C     C_R   0.061604 0.376713 0.509175 0.187275
C42   C     C_R   0.937275 0.630895 0.503484 0.229423
C43   C     C_R   0.939017 0.378297 0.490937 0.186588
C44   C     C_R   0.064956 0.630926 0.507067 0.220372
C45   C     C_R   0.872533 0.503898 0.495660 -0.360845
C46   C     C_R   0.128777 0.502856 0.508214 -0.353619
C47   C     C_R   0.433913 0.073721 0.465539 0.260722
C48   C     C_R   0.559205 0.927946 0.536485 0.298927
C49   C     C_R   0.566480 0.076706 0.534324 0.259835
C50   C     C_R   0.438556 0.924394 0.464021 0.295278
N3    N     N_R   0.500000 0.852070 0.500000 -0.197939
N4    N     N_R   0.500000 0.147930 0.500000 -0.191906
N5    N     N_2   0.312160 0.368744 0.349487 -0.430096
H13   H     H_    0.286009 0.420823 0.379983 0.248338
C51   C     C_3   0.208804 0.316239 0.320150 -0.664899
H14   H     H_    0.135016 0.281101 0.343581 0.234552
H15   H     H_    0.236928 0.224857 0.298476 0.232935
H16   H     H_    0.170996 0.399647 0.296502 0.251878
N6    N     N_2   0.706667 0.393377 0.646234 -0.430870
H17   H     H_    0.721639 0.441236 0.613999 0.248647
C52   C     C_3   0.819604 0.361969 0.673179 -0.660186
H18   H     H_    0.892342 0.334523 0.647969 0.231926
H19   H     H_    0.806303 0.270664 0.696579 0.237357
H20   H     H_    0.851161 0.454141 0.694891 0.248665
N7    N     N_2   0.362209 0.147945 0.430839 -0.408559
H21   H     H_    0.394965 0.147555 0.396698 0.271049
C53   C     C_3   0.230432 0.136845 0.433563 -0.476566
H22   H     H_    0.192157 0.067994 0.404299 0.211148
H23   H     H_    0.189221 0.241567 0.429339 0.220427
H24   H     H_    0.204579 0.095730 0.468833 0.293543
N8    N     N_2   0.610177 0.858056 0.577369 -0.377332
H25   H     H_    0.701968 0.876449 0.584347 0.281931
C54   C     C_3   0.540114 0.870150 0.620434 -0.610590
H26   H     H_    0.552442 0.973575 0.637844 0.196111
H27   H     H_    0.573072 0.791409 0.646804 0.229837
H28   H     H_    0.440760 0.852150 0.611986 0.266889
N9    N     N_2   0.641135 0.153484 0.568268 -0.418953
H29   H     H_    0.610257 0.160516 0.602599 0.265295
C55   C     C_3   0.772595 0.141135 0.564881 -0.460115
H30   H     H_    0.811890 0.081718 0.595831 0.218909
H31   H     H_    0.814359 0.246499 0.566262 0.221100
H32   H     H_    0.796959 0.089401 0.530694 0.293431
N10   N     N_2   0.373995 0.849125 0.426542 -0.376881
H33   H     H_    0.280153 0.847885 0.428585 0.283159
C56   C     C_3   0.415912 0.865538 0.378137 -0.645135
H34   H     H_    0.360379 0.944797 0.358484 0.203555
H35   H     H_    0.402361 0.766076 0.358012 0.239596
H36   H     H_    0.514922 0.893982 0.378402 0.245470
N11   N     N_2   0.296225 0.616948 0.644663 -0.416517
H37   H     H_    0.302448 0.629585 0.608249 0.288833
C57   C     C_3   0.179899 0.555446 0.656509 -0.566710
H38   H     H_    0.104668 0.602417 0.633989 0.237004
H39   H     H_    0.160230 0.575485 0.694758 0.233262
H40   H     H_    0.180750 0.441338 0.649418 0.252584
N12   N     N_2   0.700939 0.642211 0.358828 -0.421621
H41   H     H_    0.688550 0.662301 0.394616 0.294597
C58   C     C_3   0.823271 0.591549 0.350473 -0.583946
H42   H     H_    0.891495 0.651771 0.373116 0.238938
H43   H     H_    0.846140 0.604799 0.312299 0.237300
H44   H     H_    0.830572 0.479814 0.360094 0.253721
N13   N     N_R   0.108311 0.259714 0.536932 0.140984
O13   O     O_R   0.043300 0.146815 0.540576 -0.275608
O14   O     O_R   0.197557 0.279106 0.568865 -0.361542
N14   N     N_R   0.875787 0.762315 0.507023 0.177196
O15   O     O_R   0.826793 0.818317 0.468427 -0.320600
O16   O     O_R   0.896245 0.839819 0.545149 -0.343969
N15   N     N_R   0.890733 0.264793 0.460789 0.143821
O17   O     O_R   0.953623 0.151336 0.455241 -0.288210
O18   O     O_R   0.802842 0.288685 0.428886 -0.365861
N16   N     N_R   0.127347 0.762852 0.511709 0.178244
O19   O     O_R   0.185194 0.796412 0.552021 -0.334213
O20   O     O_R   0.102973 0.859779 0.480500 -0.321799

loop_
_geom_bond_atom_site_label_1
_geom_bond_atom_site_label_2
_geom_bond_distance
_ccdc_geom_bond_type
N6    H17   1.030894 S    
Cu1   N3    2.028744 S    
N7    H21   1.028705 S    
C13   C15   1.406346 A    
C35   C37   1.390919 A    
C53   H22   1.109979 S    
C12   N11   1.431028 S    
O3    C2    1.298059 A    
N1    C17   1.446301 S    
C8    O11   1.349769 S    
N5    H13   1.031113 S    
C53   H24   1.108570 S    
N12   H41   1.026855 S    
C19   C34   1.417462 A    
C5    N1    1.374092 A    
N9    C55   1.445393 S    
C47   N7    1.416726 S    
C20   C33   1.417482 A    
C10   H5    1.082269 S    
C31   C40   1.413067 A    
O1    C1    1.298275 A    
C32   C39   1.412751 A    
N1    C7    1.373698 A    
C10   C12   1.398628 A    
C42   N14   1.434731 S    
N13   O13   1.299689 A    
N11   C57   1.448729 S    
C43   N15   1.451485 S    
C57   H40   1.110690 S    
N15   O18   1.301646 A    
C14   C28   1.418723 A    
C1    C46   1.472764 S    
C41   C43   1.409963 A    
O7    Cu1   1.954316 S    
C4    C28   1.467674 S    
N12   C58   1.448130 S    
C39   H11   1.078891 S    
C9    H6    1.082542 S    
N10   H33   1.027046 S    
N14   O15   1.301779 A    
C31   C33   1.418421 A    
C37   H7    1.083386 S    
C58   H44   1.110294 S    
C32   C34   1.418227 A    
C55   H30   1.110038 S    
C48   N3    1.379814 A    
C50   N10   1.422692 S    
Cu2   N4    2.028745 S    
C52   H19   1.109957 S    
C35   H9    1.078853 S    
C47   N4    1.367518 A    
O3    Cu1   1.978285 S    
C6    N2    1.374232 A    
C29   C35   1.413009 A    
C56   H36   1.112158 S    
C44   N16   1.437038 S    
C54   H27   1.109332 S    
Cu1   Cu2   2.699618 S    
C15   H1    1.080071 S    
C55   H31   1.107019 S    
C7    O12   1.349554 S    
C16   H2    1.080006 S    
O2    C2    1.307234 A    
C14   N6    1.437468 S    
C5    C21   1.402533 A    
N5    C51   1.449391 S    
O5    C3    1.298414 A    
C29   C32   1.417146 A    
C57   H39   1.109362 S    
C36   C38   1.391911 A    
C54   H26   1.105018 S    
C13   N5    1.436409 S    
C48   C49   1.431502 A    
C44   C46   1.414470 A    
O8    Cu2   1.954316 S    
C11   C27   1.422299 A    
C43   C45   1.416391 A    
C50   N3    1.376792 A    
C29   C33   1.417867 A    
C48   N8    1.421187 S    
C9    C17   1.398809 A    
C30   C36   1.413359 A    
C10   C18   1.399808 A    
C13   C27   1.418510 A    
C51   H14   1.110093 S    
C7    C25   1.404734 A    
C30   C34   1.418098 A    
O6    C4    1.299623 A    
C26   C37   1.399302 A    
C8    C26   1.403379 A    
C42   C45   1.416385 A    
C38   H8    1.083386 S    
C41   C46   1.413604 A    
N10   C56   1.450247 S    
C25   C38   1.399632 A    
C19   C25   1.406091 A    
C52   H20   1.111221 S    
C11   N12   1.431436 S    
C23   C39   1.390621 A    
N16   O20   1.300058 A    
C24   C40   1.391639 A    
N14   O16   1.300260 A    
C30   C31   1.418377 A    
C51   H15   1.110241 S    
N2    C8    1.373806 A    
C54   H28   1.111319 S    
N6    C52   1.449146 S    
C58   H42   1.111016 S    
C55   H32   1.110777 S    
C20   C26   1.405837 A    
O1    Cu1   1.976776 S    
C23   H3    1.083404 S    
C12   C28   1.418826 A    
C2    C45   1.473529 S    
C56   H34   1.108588 S    
N2    C18   1.446530 S    
C49   N4    1.365662 A    
C5    O9    1.349884 S    
O6    Cu2   1.949806 S    
C21   C23   1.399379 A    
O7    C4    1.300531 A    
C6    O10   1.349651 S    
O4    C1    1.307123 A    
C57   H38   1.111179 S    
C53   H23   1.107702 S    
C36   H10   1.078803 S    
N9    H29   1.027661 S    
N8    H25   1.025741 S    
C22   C24   1.399708 A    
C14   C16   1.406929 A    
C15   C17   1.400131 A    
N11   H37   1.026841 S    
C6    C22   1.403928 A    
C16   C18   1.401102 A    
C41   N13   1.451445 S    
C49   N9    1.419292 S    
C19   C21   1.405444 A    
C3    C27   1.470992 S    
C20   C22   1.405541 A    
C9    C11   1.399284 A    
O4    Cu2   1.978285 S    
O2    Cu2   1.976776 S    
C47   C50   1.434293 A    
C24   H4    1.083368 S    
N15   O17   1.299950 A    
O8    C3    1.303809 A    
O5    Cu1   1.949806 S    
C51   H16   1.111247 S    
C40   H12   1.078798 S    
N7    C53   1.445397 S    
C58   H43   1.109722 S    
C42   C44   1.391424 A    
C56   H35   1.107717 S    
C52   H18   1.110857 S    
N8    C54   1.451433 S    
N16   O19   1.300719 A    
N13   O14   1.301678 A    
