data_mof_unit_38832.cif
_audit_creation_date              2012-12-11T17:13:50-0500
_audit_creation_method            fapswitch 2.2
_symmetry_space_group_name_H-M    P1
_symmetry_Int_Tables_number       1
_space_group_crystal_system       triclinic
_cell_length_a                    8.26449
_cell_length_b                    16.364413
_cell_length_c                    17.384943
_cell_angle_alpha                 98.87938
_cell_angle_beta                  97.114639
_cell_angle_gamma                 93.077568
_cell_volume                      2298.77173542

loop_
_atom_site_label
_atom_site_type_symbol
_atom_type_description
_atom_site_fract_x
_atom_site_fract_y
_atom_site_fract_z
_atom_type_partial_charge
Ba1   Ba    Ba6+2 0.836100 0.536190 0.461710 1.652215
Ba2   Ba    Ba6+2 0.353720 0.463880 0.538300 1.629561
C1    C     C_3   0.616943 0.824804 0.245574 -0.372205
C2    C     C_3   0.591053 0.745290 0.279202 0.377866
C3    C     C_3   0.573812 0.233831 0.282126 0.332684
C4    C     C_3   0.483851 0.147310 0.265225 -0.393258
C5    C     C_3   0.183054 0.290450 0.748220 0.338266
C6    C     C_3   0.235323 0.262531 0.827092 -0.212258
C7    C     C_3   0.680912 0.258794 0.745744 0.362486
C8    C     C_3   0.742156 0.211673 0.812677 -0.186253
C9    C     C_2   0.261593 0.503186 0.271719 -0.194214
C10   C     C_3   0.330834 0.567282 0.228707 -0.034287
C11   C     C_2   0.278265 0.546765 0.141433 -0.108670
C12   C     C_3   0.088727 0.744309 0.252380 0.385734
C13   C     C_2   0.136104 0.500579 0.113638 0.018540
C14   C     C_2   0.047098 0.461953 0.171396 -0.143190
C15   C     C_1   0.113983 0.467173 0.246000 0.026352
C16   C     C_R   0.892696 0.472497 0.861739 -0.132301
C17   C     C_R   0.833100 0.458783 0.781690 0.014639
C18   C     C_R   0.077088 0.528918 0.752433 0.069670
C19   C     C_R   0.138177 0.543689 0.833110 -0.124720
C20   C     C_R   0.048239 0.513645 0.888546 0.008206
C21   C     C_2   0.066854 0.485870 0.028248 -0.077942
C22   C     C_2   0.116543 0.529506 0.973772 -0.078514
C23   C     C_3   0.170297 0.820511 0.227831 -0.380206
C24   C     C_R   0.927732 0.483627 0.727322 -0.280432
C25   C     C_R   0.376370 0.730228 0.468110 -0.284857
C26   C     C_R   0.529984 0.759307 0.508819 0.036430
C27   C     C_R   0.584121 0.843160 0.514298 -0.135100
C28   C     C_R   0.482208 0.898442 0.479942 0.253176
C29   C     C_R   0.323981 0.868661 0.443877 -0.175074
C30   C     C_R   0.270852 0.785010 0.438511 -0.030469
C31   C     C_R   0.617175 0.145542 0.474633 -0.143762
C32   C     C_R   0.675696 0.225629 0.467456 -0.044608
C33   C     C_R   0.721578 0.092204 0.510462 0.263786
C34   C     C_3   0.223397 0.718630 0.632844 0.323667
C35   C     C_R   0.839476 0.253070 0.496593 -0.211336
C36   C     C_R   0.936263 0.205436 0.541586 0.026901
C37   C     C_R   0.879123 0.124249 0.546241 -0.172211
C38   C     C_3   0.221692 0.813141 0.649689 -0.222520
C39   C     C_3   0.106907 0.277213 0.267815 0.257197
C40   C     C_3   0.032934 0.232557 0.186781 -0.427218
C41   C     C_3   0.746566 0.653396 0.699341 0.314955
C42   C     C_3   0.773262 0.681555 0.787842 -0.393673
H1    H     H_    0.668690 0.751108 0.336995 0.093257
H2    H     H_    0.210192 0.320771 0.261547 0.027818
H3    H     H_    0.943597 0.181439 0.192518 0.117443
H4    H     H_    0.130666 0.206010 0.154436 0.081838
H5    H     H_    0.970190 0.276496 0.152751 0.105519
H6    H     H_    0.865132 0.639247 0.679167 0.006727
H7    H     H_    0.747271 0.836714 0.238811 0.148549
H8    H     H_    0.861648 0.737001 0.803029 0.119827
H9    H     H_    0.822344 0.631751 0.818231 0.066208
H10   H     H_    0.655426 0.697361 0.808815 0.125857
H11   H     H_    0.460769 0.738871 0.288337 -0.090753
H12   H     H_    0.579608 0.878009 0.285665 0.078139
H13   H     H_    0.365891 0.147408 0.227002 0.107189
H14   H     H_    0.245519 0.801342 0.180414 0.077776
H15   H     H_    0.275512 0.338611 0.739359 0.117655
H16   H     H_    0.062776 0.317269 0.749061 -0.037735
H17   H     H_    0.148279 0.212081 0.836068 0.112663
H18   H     H_    0.357098 0.237272 0.826948 0.143835
H19   H     H_    0.637651 0.191816 0.841741 0.113406
H20   H     H_    0.826303 0.255175 0.857389 0.094278
H21   H     H_    0.929481 0.427646 0.151346 0.076699
H22   H     H_    0.970523 0.436537 0.010482 0.066572
H23   H     H_    0.350610 0.575046 0.103407 0.066192
H24   H     H_    0.254417 0.579123 0.852620 0.081902
H25   H     H_    0.879240 0.473092 0.665612 0.061810
H26   H     H_    0.185518 0.705783 0.274035 -0.038327
H27   H     H_    0.241760 0.910899 0.420530 0.086495
H28   H     H_    0.956675 0.086076 0.578267 0.093246
H29   H     H_    0.076551 0.860818 0.206300 0.116075
H30   H     H_    0.251204 0.856920 0.278539 0.094651
H31   H     H_    0.342688 0.701008 0.615873 0.000857
N1    N     N_2   0.531672 0.983556 0.479956 -0.237360
N2    N     N_2   0.672413 0.007657 0.513783 -0.235263
O1    O     O_2   0.836060 0.445790 0.307930 -0.442413
O2    O     O_3   0.682501 0.717953 0.664061 -0.640598
O3    O     O_3   0.984806 0.770709 0.308371 -0.587097
O4    O     O_2   0.353650 0.554240 0.692110 -0.454593
O5    O     O_3   0.081100 0.548460 0.594090 -0.509492
O6    O     O_3   0.584850 0.404680 0.643890 -0.477030
O7    O     O_3   0.196252 0.686120 0.700439 -0.641198
O8    O     O_3   0.621030 0.400630 0.459910 -0.451638
O9    O     O_3   0.161970 0.361060 0.604300 -0.504202
O10   O     O_2   0.272709 0.213591 0.553307 -0.480585
O11   O     O_3   0.172438 0.221060 0.688759 -0.630934
O12   O     O_3   0.108600 0.451610 0.405920 -0.484208
O13   O     O_3   0.568670 0.599440 0.540100 -0.484709
O14   O     O_2   0.371480 0.300500 0.461810 -0.443327
O15   O     O_3   0.481319 0.290633 0.324232 -0.631268
O16   O     O_2   0.501857 0.471875 0.782389 -0.490992
O17   O     O_3   0.580769 0.319647 0.776179 -0.618369
O18   O     O_3   0.604850 0.595390 0.356120 -0.477984
O19   O     O_2   0.649398 0.515460 0.215520 -0.479231
O20   O     O_3   0.983680 0.314018 0.307351 -0.646549
O21   O     O_3   0.633644 0.677451 0.227205 -0.599728
O22   O     O_2   0.818230 0.699530 0.538240 -0.464765
O23   O     O_3   0.027730 0.639010 0.395710 -0.473268
O24   O     O_2   0.942038 0.788210 0.454876 -0.483909
P1    P     P_3+3 0.011660 0.422550 0.320180 0.978661
P2    P     P_3+3 0.650900 0.688870 0.561900 0.981599
P3    P     P_3+3 0.058489 0.746511 0.400370 0.955535
P4    P     P_3+3 0.178040 0.577520 0.679830 0.975660
P5    P     P_3+3 0.135172 0.251682 0.596363 0.926493
P6    P     P_3+3 0.556045 0.586412 0.254931 0.970161
P7    P     P_3+3 0.537679 0.298458 0.425823 0.959585
P8    P     P_3+3 0.625132 0.414676 0.746244 0.931290
C43   C     C_3   0.369192 0.853174 0.707396 -0.394588
H32   H     H_    0.373423 0.828622 0.763651 0.153965
H33   H     H_    0.483930 0.841080 0.681956 0.135124
H34   H     H_    0.360237 0.921297 0.719541 0.118160
H35   H     H_    0.222030 0.838472 0.594113 0.070262
H36   H     H_    0.107397 0.829985 0.673917 0.123783
H37   H     H_    0.159162 0.230660 0.302032 0.071644
H38   H     H_    0.660609 0.596997 0.685746 0.068634
C44   C     C_3   0.594550 0.263226 0.204332 -0.305079
H39   H     H_    0.473320 0.270087 0.171298 0.092417
H40   H     H_    0.665679 0.324202 0.215472 0.146768
H41   H     H_    0.660373 0.218271 0.167455 0.061242
H42   H     H_    0.698534 0.230437 0.313430 0.028212
H43   H     H_    0.560231 0.101726 0.235512 0.086445
H44   H     H_    0.457419 0.126822 0.320324 0.084929
H45   H     H_    0.542432 0.819808 0.187145 0.102320
C45   C     C_3   0.242589 0.333333 0.895644 -0.473508
H46   H     H_    0.294195 0.312480 0.950791 0.135409
H47   H     H_    0.320835 0.387325 0.886347 0.168883
H48   H     H_    0.117191 0.351647 0.901936 0.130260
H49   H     H_    0.789748 0.284971 0.723582 -0.038898
C46   C     C_3   0.579150 0.201555 0.677241 -0.282171
H50   H     H_    0.543896 0.237893 0.629980 0.142751
H51   H     H_    0.650523 0.151017 0.652849 0.059273
H52   H     H_    0.468427 0.173788 0.696259 0.144471
C47   C     C_3   0.832791 0.135306 0.786123 -0.491974
H53   H     H_    0.902091 0.115425 0.838091 0.133803
H54   H     H_    0.744573 0.082940 0.756668 0.141521
H55   H     H_    0.919042 0.149144 0.744972 0.157980
C48   C     C_3   0.986384 0.691566 0.180930 -0.285358
H56   H     H_    0.063200 0.673727 0.133906 0.049935
H57   H     H_    0.933649 0.634238 0.198006 0.141769
H58   H     H_    0.885628 0.726504 0.156952 0.131068
H59   H     H_    0.213337 0.578560 0.990955 0.068825
H60   H     H_    0.814860 0.453334 0.902295 0.072138
H61   H     H_    0.335753 0.484660 0.321339 0.072752
H62   H     H_    0.490813 0.125449 0.452842 0.100897
H63   H     H_    0.703844 0.864772 0.545724 0.110505
H64   H     H_    0.334015 0.665840 0.464501 0.074350
C49   C     C_3   0.915946 0.330314 0.475937 -0.215683
H65   H     H_    0.042912 0.321376 0.463909 0.145288
H66   H     H_    0.852905 0.343607 0.420665 0.125319
H67   H     H_    0.911354 0.383650 0.523247 0.124700
H68   H     H_    0.125493 0.695528 0.583395 0.054460

loop_
_geom_bond_atom_site_label_1
_geom_bond_atom_site_label_2
_ccdc_geom_bond_type
C47   H55   S    
O22   P2    D    
C45   H46   S    
C2    O21   S    
O12   P1    S    
O1    P1    D    
C32   C35   A    
C39   C40   S    
C8    H19   S    
C4    H44   S    
C15   P1    S    
C46   H52   S    
Ba1   O22   S    
C47   H53   S    
C7    H49   S    
Ba1   O13   S    
C39   H2    S    
O3    P3    S    
C21   H22   S    
C26   C27   A    
C23   H30   S    
C49   H66   S    
C3    C4    S    
C48   H58   S    
C38   H36   S    
C14   C15   D    
C22   H59   S    
C41   O2    S    
C13   C14   S    
O23   P3    S    
C16   C17   A    
Ba2   O8    S    
Ba1   Ba2   S    
O5    P4    S    
Ba2   O13   S    
C17   C24   A    
C44   H39   S    
C43   H32   S    
C42   H9    S    
O15   P7    S    
C38   H35   S    
C5    O11   S    
C25   H64   S    
Ba1   O12   S    
C21   C22   D    
O6    P8    S    
C12   O3    S    
O8    P7    S    
C7    C8    S    
Ba1   P2    S    
C23   H29   S    
O20   P1    S    
C6    H17   S    
C42   H8    S    
C13   C21   S    
C19   C20   A    
Ba1   O1    S    
C12   H26   S    
C4    H13   S    
O2    P2    S    
Ba2   O6    S    
O9    P5    S    
C12   C48   S    
C4    H43   S    
Ba1   O23   S    
C5    H15   S    
C17   P8    S    
C34   H68   S    
C31   C32   A    
C44   H40   S    
C2    H1    S    
C7    C46   S    
Ba1   O8    S    
O4    P4    D    
C34   C38   S    
C8    C47   S    
C49   H67   S    
C1    H7    S    
O11   P5    S    
C9    H61   S    
C38   C43   S    
C45   H48   S    
Ba1   O5    S    
C3    H42   S    
C33   N2    S    
O21   P6    S    
C44   H41   S    
C36   P5    S    
Ba2   O12   S    
C33   C37   A    
C41   C42   S    
C35   C36   A    
C34   H31   S    
C28   N1    S    
C1    H12   S    
C29   C30   A    
C28   C29   A    
Ba1   O18   S    
C30   P3    S    
O7    P4    S    
C40   H4    S    
C10   C11   S    
C43   H34   S    
C37   H28   S    
O18   P6    S    
C41   H38   S    
C6    C45   S    
O19   P6    D    
O24   P3    D    
C11   C13   D    
C2    H11   S    
C39   O20   S    
Ba2   O5    S    
C23   H14   S    
C39   H37   S    
C46   H50   S    
C5    H16   S    
C18   P4    S    
C11   H23   S    
C47   H54   S    
C9    C15   D    
C45   H47   S    
Ba2   P4    S    
C25   C30   A    
C16   C20   A    
O14   P7    D    
C8    H20   S    
C35   C49   S    
C46   H51   S    
C27   H63   S    
C10   P6    S    
C48   H56   S    
C1    H45   S    
C41   H6    S    
O17   P8    S    
C3    C44   S    
C32   P7    S    
C16   H60   S    
C19   H24   S    
C49   H65   S    
N1    N2    D    
C48   H57   S    
C26   P2    S    
C36   C37   A    
O10   P5    D    
C18   C24   A    
C34   O7    S    
C7    O17   S    
C29   H27   S    
C31   C33   A    
Ba2   O9    S    
C20   C22   S    
C40   H3    S    
C12   C23   S    
Ba2   O14   S    
C43   H33   S    
O13   P2    S    
C3    O15   S    
C5    C6    S    
C31   H62   S    
C40   H5    S    
C27   C28   A    
C42   H10   S    
C18   C19   A    
C6    H18   S    
C25   C26   A    
C24   H25   S    
Ba2   O4    S    
C14   H21   S    
Ba1   P1    S    
C1    C2    S    
C9    C10   S    
O16   P8    D    
