data_mof_unit_26377.cif
_audit_creation_date              2012-12-10T21:42:32-0500
_audit_creation_method            fapswitch 2.2
_symmetry_space_group_name_H-M    P1
_symmetry_Int_Tables_number       1
_space_group_crystal_system       triclinic
_cell_length_a                    10.755279
_cell_length_b                    16.285819
_cell_length_c                    16.604957
_cell_angle_alpha                 88.327877
_cell_angle_beta                  93.257608
_cell_angle_gamma                 92.253214
_cell_volume                      2900.49632559

loop_
_atom_site_label
_atom_site_type_symbol
_atom_type_description
_atom_site_fract_x
_atom_site_fract_y
_atom_site_fract_z
_atom_type_partial_charge
C1    C     C_R   0.504235 0.489691 0.653551 0.888489
C2    C     C_R   0.495762 0.510309 0.346450 0.888437
C3    C     C_R   0.127900 0.498758 0.505691 -0.090240
C4    C     C_R   0.872097 0.501243 0.494284 -0.090298
C5    C     C_R   0.057955 0.425960 0.523248 0.022454
C6    C     C_R   0.942040 0.574039 0.476719 0.022500
C7    C     C_R   0.525472 0.485807 0.741150 -0.073813
C8    C     C_R   0.474518 0.514191 0.258851 -0.073761
C9    C     C_R   0.546105 0.559268 0.782598 -0.147119
C10   C     C_R   0.453924 0.440728 0.217403 -0.147131
C11   C     C_R   0.569323 0.558259 0.865724 -0.062698
C12   C     C_R   0.430693 0.441733 0.134280 -0.062715
C13   C     C_R   0.562944 0.482278 0.908509 0.210964
C14   C     C_R   0.437042 0.517715 0.091493 0.210967
C15   C     C_R   0.555416 0.407753 0.866783 0.004531
C16   C     C_R   0.444533 0.592241 0.133218 0.004540
C17   C     C_R   0.536078 0.410381 0.782901 -0.247905
C18   C     C_R   0.463861 0.589616 0.217102 -0.247891
C19   C     C_R   0.435455 0.760871 0.457372 0.015756
C20   C     C_R   0.564538 0.239127 0.542630 0.015633
C21   C     C_R   0.435533 0.848788 0.457672 -0.118421
C22   C     C_R   0.564510 0.151213 0.542304 -0.118522
C23   C     C_R   0.739534 0.500424 0.496856 0.892918
C24   C     C_R   0.260464 0.499576 0.503137 0.892860
C25   C     C_R   0.506027 0.890989 0.518733 0.265926
C26   C     C_R   0.494020 0.109014 0.481240 0.265935
C27   C     C_R   0.577237 0.844875 0.574562 -0.341479
C28   C     C_R   0.422794 0.155128 0.425420 -0.341423
C29   C     C_R   0.584313 0.759104 0.569139 0.109190
C30   C     C_R   0.415702 0.240897 0.430852 0.109191
C31   C     C_R   0.772393 0.733518 0.344661 -0.029161
C32   C     C_R   0.227586 0.266441 0.655268 -0.029181
C33   C     C_R   0.822667 0.658714 0.372857 -0.078910
C34   C     C_R   0.177318 0.341254 0.627092 -0.078859
C35   C     C_R   0.887440 0.652692 0.448245 0.108964
C36   C     C_R   0.112546 0.347299 0.551705 0.109010
C37   C     C_R   0.903848 0.722201 0.495698 -0.102719
C38   C     C_R   0.096125 0.277801 0.504235 -0.102716
C39   C     C_R   0.853824 0.796523 0.469152 -0.102184
C40   C     C_R   0.146141 0.203470 0.530762 -0.102211
C41   C     C_R   0.787689 0.803656 0.393788 -0.047728
C42   C     C_R   0.212281 0.196317 0.606122 -0.047714
C43   C     C_R   0.069655 0.571806 0.484181 -0.224768
C44   C     C_R   0.930343 0.428194 0.515783 -0.224753
N1    N     N_2   0.546602 0.480745 0.991966 -0.161363
N2    N     N_2   0.453389 0.519251 0.008036 -0.161355
N3    N     N_R   0.515300 0.716920 0.509720 -0.138727
N4    N     N_R   0.484700 0.283080 0.490280 -0.138704
N5    N     N_2   0.499810 0.977660 0.531290 -0.155290
N6    N     N_2   0.500242 0.022344 0.468678 -0.155269
O1    O     O_R   0.494530 0.422540 0.612660 -0.670000
O2    O     O_R   0.505470 0.577460 0.387340 -0.670004
O3    O     O_R   0.504350 0.561840 0.618900 -0.582814
O4    O     O_R   0.495650 0.438160 0.381100 -0.582816
O5    O     O_R   0.678330 0.430350 0.496870 -0.654613
O6    O     O_R   0.321670 0.569650 0.503130 -0.654761
O7    O     O_R   0.688150 0.569660 0.503110 -0.550424
O8    O     O_R   0.311850 0.430340 0.496890 -0.550431
Zn1   Zn    Zn3+2 0.493440 0.406980 0.495830 0.981253
Zn2   Zn    Zn3+2 0.506560 0.593020 0.504170 0.981209
C45   C     C_2   0.740346 0.885239 0.367056 0.404606
H1    H     H_    0.697655 0.895386 0.307241 0.077088
O9    O     O_2   0.749895 0.943517 0.411947 -0.561132
C46   C     C_2   0.259622 0.114726 0.632831 0.404576
H2    H     H_    0.302344 0.104567 0.692636 0.077064
O10   O     O_2   0.250039 0.056456 0.587931 -0.561136
H3    H     H_    0.528500 0.353586 0.750316 0.147488
H4    H     H_    0.471400 0.646411 0.249689 0.147515
C47   C     C_2   0.665226 0.282298 0.591950 0.469231
H5    H     H_    0.651166 0.337307 0.623065 0.105468
O11   O     O_2   0.770029 0.255657 0.598090 -0.584752
C48   C     C_2   0.334714 0.717696 0.408093 0.468721
H6    H     H_    0.348659 0.662573 0.377134 0.105743
O12   O     O_2   0.229972 0.744429 0.401848 -0.584670
C49   C     C_2   0.642369 0.104258 0.603071 0.532906
H7    H     H_    0.695364 0.053241 0.584917 0.096778
O13   O     O_2   0.645910 0.121433 0.674287 -0.558548
C50   C     C_2   0.357735 0.895743 0.396873 0.533109
H8    H     H_    0.304735 0.946769 0.414999 0.096743
O14   O     O_2   0.354249 0.878555 0.325661 -0.558531
H9    H     H_    0.629309 0.876803 0.622827 0.162043
H10   H     H_    0.370724 0.123201 0.377153 0.162030
C51   C     C_2   0.661297 0.718797 0.634385 0.399713
H11   H     H_    0.677861 0.749003 0.691661 0.083465
O15   O     O_2   0.712682 0.654916 0.625339 -0.543919
C52   C     C_2   0.338712 0.281206 0.365610 0.399703
H12   H     H_    0.322139 0.250999 0.308334 0.083457
O16   O     O_2   0.287332 0.345088 0.374657 -0.543929
C53   C     C_2   0.705052 0.736208 0.264166 0.354766
H13   H     H_    0.636976 0.782110 0.248699 0.053325
O17   O     O_2   0.724468 0.685943 0.213615 -0.558922
C54   C     C_2   0.294929 0.263729 0.735762 0.354720
H14   H     H_    0.363017 0.217830 0.751211 0.053308
O18   O     O_2   0.275500 0.313971 0.786332 -0.558916
H15   H     H_    0.811112 0.604547 0.336342 0.158625
H16   H     H_    0.188881 0.395411 0.663621 0.158619
H17   H     H_    0.954653 0.718606 0.553845 0.158866
H18   H     H_    0.045318 0.281413 0.446090 0.158861
H19   H     H_    0.867839 0.848900 0.507795 0.183565
H20   H     H_    0.132117 0.151105 0.492106 0.183564
H21   H     H_    0.123449 0.627250 0.470485 0.210955
H22   H     H_    0.876549 0.372749 0.529468 0.211096
H23   H     H_    0.455573 0.382137 0.249729 0.200732
H24   H     H_    0.544492 0.617859 0.750272 0.200736
C55   C     C_2   0.399638 0.363791 0.092071 0.529031
H25   H     H_    0.369403 0.365066 0.028598 0.097090
O19   O     O_2   0.405858 0.297291 0.127737 -0.551909
C56   C     C_2   0.600396 0.636197 0.907935 0.529015
H26   H     H_    0.630611 0.634919 0.971411 0.097119
O20   O     O_2   0.594213 0.702698 0.872268 -0.551925
C57   C     C_2   0.564189 0.326317 0.908517 0.454510
H27   H     H_    0.537313 0.270929 0.876006 0.086293
O21   O     O_2   0.605157 0.319623 0.978373 -0.527298
C58   C     C_2   0.435736 0.673675 0.091482 0.454551
H28   H     H_    0.462568 0.729068 0.123997 0.086271
O22   O     O_2   0.394801 0.680361 0.021618 -0.527312

loop_
_geom_bond_atom_site_label_1
_geom_bond_atom_site_label_2
_ccdc_geom_bond_type
C38   C40   A    
O5    Zn1   S    
C27   C29   A    
C57   H27   S    
C41   C45   S    
C24   O6    A    
C38   H18   S    
C37   H17   S    
C58   H28   S    
C19   C48   S    
C14   N2    S    
N1    N2    D    
C56   H26   S    
C55   O19   D    
C3    C43   A    
C29   N3    A    
C30   N4    A    
C10   H23   S    
C35   C37   A    
C34   H16   S    
C29   C51   S    
C26   N6    S    
C12   C55   S    
C53   O17   D    
C50   O14   D    
C18   H4    S    
C5    C36   S    
C49   O13   D    
C6    C35   S    
C45   O9    D    
C47   O11   D    
C1    O3    A    
O2    Zn2   S    
N3    Zn2   S    
C7    C17   A    
C21   C50   S    
C31   C33   A    
C30   C52   S    
C40   C42   A    
C1    C7    S    
C3    C24   S    
C45   H1    S    
C22   C49   S    
C33   H15   S    
O3    Zn2   S    
C10   C12   A    
O4    Zn1   S    
C17   H3    S    
C52   O16   D    
C28   H10   S    
C24   O8    A    
C15   C57   S    
C27   H9    S    
C48   O12   D    
C2    O4    A    
C4    C23   S    
C44   H22   S    
C50   H8    S    
O7    Zn2   S    
C4    C44   A    
C31   C53   S    
O8    Zn1   S    
C8    C18   A    
O6    Zn2   S    
C32   C34   A    
C49   H7    S    
C43   H21   S    
C1    O1    A    
C39   H19   S    
C51   H11   S    
C54   O18   D    
C57   O21   D    
C9    C11   A    
C20   N4    A    
C2    O2    A    
C4    C6    A    
C51   O15   D    
C5    C44   A    
C12   C14   A    
C6    C43   A    
C13   C15   A    
C14   C16   A    
C20   C47   S    
O1    Zn1   S    
C42   C46   S    
N4    Zn1   S    
C23   O7    A    
C21   C25   A    
C31   C41   A    
C19   C21   A    
C52   H12   S    
C8    C10   A    
C2    C8    S    
C20   C22   A    
C48   H6    S    
C3    C5    A    
C16   C58   S    
C40   H20   S    
C58   O22   D    
C23   O5    A    
C25   C27   A    
C55   H25   S    
C26   C28   A    
C46   H2    S    
C28   C30   A    
C37   C39   A    
C13   N1    S    
C11   C13   A    
C32   C54   S    
C9    H24   S    
C36   C38   A    
C54   H14   S    
C33   C35   A    
C56   O20   D    
C34   C36   A    
C47   H5    S    
C25   N5    S    
C7    C9    A    
C39   C41   A    
C16   C18   A    
N5    N6    D    
C22   C26   A    
C19   N3    A    
C11   C56   S    
C32   C42   A    
C53   H13   S    
C15   C17   A    
C46   O10   D    
