data_mof_unit_38673.cif
_audit_creation_date              2012-12-10T19:50:49-0500
_audit_creation_method            fapswitch 2.2
_symmetry_space_group_name_H-M    P1
_symmetry_Int_Tables_number       1
_space_group_crystal_system       triclinic
_cell_length_a                    23.506675
_cell_length_b                    10.885126
_cell_length_c                    22.191294
_cell_angle_alpha                 91.027944
_cell_angle_beta                  90.102188
_cell_angle_gamma                 90.254338
_cell_volume                      5677.17600597

loop_
_atom_site_label
_atom_site_type_symbol
_atom_type_description
_atom_site_fract_x
_atom_site_fract_y
_atom_site_fract_z
_atom_type_partial_charge
C1    C     C_R   0.498380 0.261845 0.499397 0.803608
C2    C     C_R   0.500291 0.738294 0.500737 0.802034
C3    C     C_R   0.239759 0.572517 0.455567 0.047097
C4    C     C_R   0.761502 0.519830 0.445596 0.038566
C5    C     C_R   0.299401 0.566856 0.455394 -0.253952
C6    C     C_R   0.701903 0.516591 0.445923 -0.256214
C7    C     C_R   0.328607 0.501667 0.499619 -0.044549
C8    C     C_R   0.671935 0.499288 0.499846 -0.049106
C9    C     C_R   0.298169 0.439806 0.543967 -0.228682
C10   C     C_R   0.702202 0.482056 0.553511 -0.238533
C11   C     C_R   0.239004 0.440967 0.543477 -0.107307
C12   C     C_R   0.761407 0.485497 0.553686 -0.115995
C13   C     C_R   0.209414 0.506607 0.499734 0.322098
C14   C     C_R   0.791336 0.504957 0.500242 0.332804
C15   C     C_R   0.393647 0.212655 0.329690 0.062224
C16   C     C_R   0.570550 0.811564 0.698231 0.057865
C17   C     C_R   0.413313 0.165834 0.384478 -0.150646
C18   C     C_R   0.564079 0.844670 0.637537 -0.155628
C19   C     C_R   0.467464 0.112668 0.388296 0.116684
C20   C     C_R   0.511923 0.890164 0.616837 0.123073
C21   C     C_R   0.501973 0.105404 0.336929 -0.157863
C22   C     C_R   0.466016 0.901278 0.656840 -0.152908
C23   C     C_R   0.390854 0.499977 0.499918 0.802679
C24   C     C_R   0.609326 0.499381 0.499990 0.809589
C25   C     C_R   0.482819 0.152360 0.282443 -0.168254
C26   C     C_R   0.472165 0.868371 0.716933 -0.183414
C27   C     C_R   0.429091 0.206097 0.278783 -0.140115
C28   C     C_R   0.524183 0.824501 0.737710 -0.142186
C29   C     C_R   0.489730 0.931348 0.447551 -0.236902
C30   C     C_R   0.506519 0.069110 0.553038 -0.232917
C31   C     C_R   0.499804 0.872035 0.502052 -0.087290
C32   C     C_R   0.496847 0.128180 0.498596 -0.090349
C33   C     C_R   0.506824 0.942133 0.555927 0.004447
C34   C     C_R   0.486415 0.058373 0.445462 0.006823
C35   C     C_R   0.547125 0.539740 0.872600 0.516852
C36   C     C_R   0.452662 0.462331 0.127538 0.523718
C37   C     C_R   0.452943 0.457254 0.871973 0.535245
C38   C     C_R   0.547364 0.541994 0.128233 0.535658
C39   C     C_R   0.451917 0.458132 0.935709 -0.020998
C40   C     C_R   0.548253 0.542167 0.064477 -0.020392
C41   C     C_R   0.500024 0.500030 0.968019 -0.015208
C42   C     C_R   0.500031 0.500917 0.032150 -0.017025
C43   C     C_R   0.548136 0.540928 0.936340 -0.013306
C44   C     C_R   0.451789 0.460622 0.063810 -0.010789
C45   C     C_R   0.880857 0.605806 0.523283 0.506176
C46   C     C_R   0.119763 0.401989 0.483153 0.504706
C47   C     C_R   0.404020 0.417726 0.967883 -0.168472
C48   C     C_R   0.596096 0.582877 0.032289 -0.170474
C49   C     C_R   0.403917 0.419171 0.031009 -0.169575
C50   C     C_R   0.596011 0.582430 0.969143 -0.175188
C51   C     C_R   0.539823 0.431652 0.256306 -0.239493
C52   C     C_R   0.457652 0.560916 0.743585 -0.232784
C53   C     C_R   0.538927 0.431799 0.319623 0.070648
C54   C     C_R   0.458626 0.561094 0.680302 0.073993
C55   C     C_R   0.461354 0.569530 0.320992 0.031976
C56   C     C_R   0.541138 0.437536 0.679110 0.027874
C57   C     C_R   0.460742 0.571748 0.257719 -0.260693
C58   C     C_R   0.541882 0.435635 0.742368 -0.218500
C59   C     C_R   0.500230 0.501911 0.224425 0.362052
C60   C     C_R   0.499824 0.498161 0.775631 0.347074
C61   C     C_R   0.880644 0.401784 0.481588 0.547567
C62   C     C_R   0.120151 0.608583 0.521571 0.549167
C63   C     C_R   0.940282 0.399473 0.481864 -0.013269
C64   C     C_R   0.060472 0.609924 0.522689 -0.015801
C65   C     C_R   0.970343 0.504223 0.502671 -0.018610
C66   C     C_R   0.030372 0.504607 0.502663 -0.020122
C67   C     C_R   0.940521 0.608499 0.523565 -0.011164
C68   C     C_R   0.060150 0.399562 0.482722 -0.009534
C69   C     C_R   0.970432 0.295395 0.461868 -0.170049
C70   C     C_R   0.030299 0.713602 0.543190 -0.167012
C71   C     C_R   0.029766 0.295277 0.462499 -0.176401
C72   C     C_R   0.970934 0.712736 0.543829 -0.171151
Cu1   Cu    Cu3+1 0.500000 0.499970 0.559570 0.942779
Cu2   Cu    Cu3+1 0.500000 0.500030 0.440430 0.949729
H1    H     H_    0.948312 0.213696 0.445740 0.185664
H2    H     H_    0.052428 0.795653 0.558847 0.188752
H3    H     H_    0.543580 0.063363 0.339149 0.135417
H4    H     H_    0.425799 0.937944 0.641664 0.137866
H5    H     H_    0.509560 0.146644 0.242847 0.144191
H6    H     H_    0.436608 0.877404 0.747586 0.147093
H7    H     H_    0.481846 0.878531 0.406440 0.162465
H8    H     H_    0.513455 0.122028 0.594324 0.167981
H9    H     H_    0.366330 0.384952 0.944393 0.186059
H10   H     H_    0.633836 0.615353 0.055785 0.182852
H11   H     H_    0.366157 0.387426 0.054006 0.184463
H12   H     H_    0.633681 0.614641 0.946128 0.178944
H13   H     H_    0.570707 0.376026 0.232272 0.144349
H14   H     H_    0.424814 0.611255 0.767469 0.152499
H15   H     H_    0.569264 0.376591 0.343729 0.125448
H16   H     H_    0.426398 0.611141 0.656208 0.135477
H17   H     H_    0.430839 0.623832 0.346190 0.124278
H18   H     H_    0.573511 0.388393 0.654035 0.126673
H19   H     H_    0.429793 0.627698 0.234829 0.152813
H20   H     H_    0.574800 0.385070 0.765243 0.155498
H21   H     H_    0.051705 0.213496 0.446810 0.183203
H22   H     H_    0.948989 0.794153 0.559965 0.188833
H23   H     H_    0.323226 0.615480 0.421406 0.139065
H24   H     H_    0.679003 0.529174 0.404057 0.161554
H25   H     H_    0.320179 0.389046 0.578416 0.157971
H26   H     H_    0.680122 0.464647 0.595255 0.143454
H27   H     H_    0.215853 0.391504 0.577595 0.148753
H28   H     H_    0.784316 0.471525 0.595355 0.133087
H29   H     H_    0.414648 0.239558 0.235807 0.179492
H30   H     H_    0.527904 0.798666 0.784452 0.150921
H31   H     H_    0.386554 0.170139 0.424184 0.113232
H32   H     H_    0.599913 0.839260 0.606964 0.122331
N1    N     N_R   0.852343 0.504237 0.501647 -0.467651
N2    N     N_R   0.148389 0.506126 0.501364 -0.468540
N3    N     N_R   0.499989 0.498289 0.841323 -0.451258
N4    N     N_R   0.500074 0.502123 0.158795 -0.449093
N5    N     N_R   0.500010 0.500010 0.350920 -0.164059
N6    N     N_R   0.499990 0.499990 0.649080 -0.171503
O1    O     O_R   0.500000 0.319610 0.550310 -0.588572
O2    O     O_R   0.500000 0.680390 0.449690 -0.588737
O3    O     O_R   0.499990 0.319670 0.449690 -0.573732
O4    O     O_R   0.500010 0.680330 0.550310 -0.576844
O5    O     O_R   0.417880 0.499930 0.550320 -0.588394
O6    O     O_R   0.582120 0.500070 0.449680 -0.586836
O7    O     O_R   0.417880 0.499990 0.449700 -0.585830
O8    O     O_R   0.582120 0.500010 0.550300 -0.598357
O9    O     O_2   0.851484 0.704265 0.543711 -0.547799
O10   O     O_2   0.149013 0.301885 0.464621 -0.566152
O11   O     O_2   0.851084 0.302544 0.461625 -0.543716
O12   O     O_2   0.149771 0.708459 0.540589 -0.539399
O13   O     O_2   0.592853 0.580965 0.842333 -0.560654
O14   O     O_2   0.406504 0.423347 0.157813 -0.590019
O15   O     O_2   0.407379 0.414136 0.841060 -0.546718
O16   O     O_2   0.593294 0.582777 0.159273 -0.547854
C73   C     C_R   0.210747 0.651556 0.411114 0.130523
C74   C     C_R   0.164873 0.607060 0.376193 -0.154842
C75   C     C_R   0.137977 0.682856 0.334809 -0.148806
C76   C     C_R   0.156639 0.803710 0.327702 -0.101804
C77   C     C_R   0.202314 0.848893 0.361912 -0.124959
C78   C     C_R   0.229323 0.773368 0.403357 -0.119123
H33   H     H_    0.150111 0.513592 0.380403 0.136895
H34   H     H_    0.102710 0.647708 0.308130 0.130432
H35   H     H_    0.135758 0.862291 0.295646 0.124886
H36   H     H_    0.216737 0.942558 0.356405 0.123192
H37   H     H_    0.264341 0.810421 0.429870 0.124678
C79   C     C_R   0.791725 0.536788 0.387841 0.106882
C80   C     C_R   0.829783 0.635322 0.380593 -0.146016
C81   C     C_R   0.858691 0.649557 0.326146 -0.135988
C82   C     C_R   0.849508 0.566280 0.278430 -0.105984
C83   C     C_R   0.811231 0.468867 0.285016 -0.122610
C84   C     C_R   0.782304 0.454183 0.339432 -0.105740
H38   H     H_    0.836664 0.701755 0.416743 0.160535
H39   H     H_    0.888067 0.725440 0.320877 0.134972
H40   H     H_    0.871899 0.577469 0.236296 0.126098
H41   H     H_    0.804045 0.404577 0.247984 0.131994
H42   H     H_    0.753044 0.377793 0.344070 0.133636
C85   C     C_R   0.335316 0.262662 0.324811 0.089561
C86   C     C_R   0.325081 0.370505 0.292628 -0.125972
C87   C     C_R   0.269568 0.413138 0.285043 -0.124837
C88   C     C_R   0.223821 0.348169 0.309102 -0.111120
C89   C     C_R   0.233558 0.242445 0.342228 -0.085925
C90   C     C_R   0.289013 0.199928 0.350302 -0.156237
H43   H     H_    0.359950 0.421359 0.273245 0.163678
H44   H     H_    0.261958 0.495779 0.259903 0.141540
H45   H     H_    0.180781 0.379252 0.301718 0.123009
H46   H     H_    0.198051 0.192295 0.360872 0.160587
H47   H     H_    0.295566 0.116093 0.374876 0.117887
C91   C     C_R   0.625722 0.765714 0.720810 0.108520
C92   C     C_R   0.647570 0.808031 0.776551 -0.087115
C93   C     C_R   0.699174 0.763088 0.798240 -0.086157
C94   C     C_R   0.729406 0.675637 0.764632 -0.085193
C95   C     C_R   0.708186 0.633317 0.709187 -0.112429
C96   C     C_R   0.656668 0.678277 0.687192 -0.140303
H48   H     H_    0.624899 0.876259 0.803137 0.113878
H49   H     H_    0.715668 0.795950 0.841178 0.119541
H50   H     H_    0.769273 0.640640 0.781552 0.123203
H51   H     H_    0.731646 0.565298 0.683446 0.124030
H52   H     H_    0.640434 0.643693 0.644484 0.136055

loop_
_geom_bond_atom_site_label_1
_geom_bond_atom_site_label_2
_ccdc_geom_bond_type
C44   C49   A    
C16   C28   A    
C66   C68   A    
C63   C65   A    
C94   C95   A    
C11   C13   A    
C41   C42   A    
C92   C93   A    
C62   O12   S    
C39   C41   A    
C46   C68   A    
Cu2   O7    S    
C91   C92   A    
Cu1   O4    S    
C1    O1    A    
C6    H24   S    
C93   C94   A    
C19   C21   A    
C54   H16   S    
C23   O7    A    
C57   C59   A    
C71   H21   S    
C58   C60   A    
C82   C83   A    
Cu2   O2    S    
C59   N4    S    
Cu1   O1    S    
C91   C96   A    
C69   C71   A    
C67   C72   A    
Cu1   Cu2   S    
C27   H29   S    
C87   H44   S    
C35   O13   S    
C62   C64   A    
C60   N3    S    
C52   C60   A    
C17   C19   A    
C74   C75   A    
C2    O4    A    
C74   H33   S    
C76   C77   A    
C65   C67   A    
C46   N2    A    
C45   C67   A    
C55   H17   S    
C85   C86   A    
C31   C33   A    
C47   H9    S    
C38   N4    A    
C23   O5    A    
C35   C43   A    
C37   N3    A    
C84   H42   S    
C35   N3    A    
C53   N5    A    
C40   C42   A    
C77   H36   S    
C9    H25   S    
Cu1   O8    S    
C57   H19   S    
C41   C43   A    
C93   H49   S    
C42   C44   A    
C13   N2    S    
C15   C85   S    
C52   C54   A    
C82   H40   S    
Cu2   O6    S    
C24   O8    A    
Cu1   O5    S    
C49   H11   S    
C52   H14   S    
C79   C80   A    
C22   H4    S    
C4    C6    A    
C75   H34   S    
C51   H13   S    
C78   H37   S    
C5    C7    A    
C6    C8    A    
C16   C91   S    
C76   H35   S    
C36   N4    A    
C29   C34   A    
C1    C32   S    
C26   H6    S    
C48   H10   S    
C2    C31   S    
C51   C53   A    
C64   C66   A    
C3    C13   A    
C30   H8    S    
C18   H32   S    
C12   H28   S    
C83   H41   S    
C17   H31   S    
C4    C79   S    
C28   H30   S    
C15   C27   A    
C56   H18   S    
C29   C31   A    
C61   C63   A    
C54   N6    A    
C11   H27   S    
C85   C90   A    
C10   H26   S    
C9    C11   A    
C88   C89   A    
C10   C12   A    
C80   H38   S    
C20   C33   S    
C16   C18   A    
C14   N1    S    
C12   C14   A    
C29   H7    S    
C64   C70   A    
C55   C57   A    
C53   H15   S    
C77   C78   A    
C36   C44   A    
C51   C59   A    
C70   H2    S    
C75   C76   A    
Cu2   N5    S    
C88   H45   S    
Cu1   N6    S    
C39   C47   A    
C73   C74   A    
C94   H50   S    
C40   C48   A    
C21   C25   A    
C86   H43   S    
C30   C33   A    
C55   N5    A    
C89   H46   S    
C3    C73   S    
C24   O6    A    
C81   H39   S    
C36   O14   S    
C20   C22   A    
C83   C84   A    
C3    C5    A    
C19   C34   S    
C25   H5    S    
C79   C84   A    
C90   H47   S    
C38   O16   S    
C43   C50   A    
C15   C17   A    
C96   H52   S    
C25   C27   A    
C26   C28   A    
C61   O11   S    
C45   O9    S    
C92   H48   S    
C58   H20   S    
C63   C69   A    
C37   C39   A    
C47   C49   A    
C30   C32   A    
C2    O2    A    
C95   C96   A    
C38   C40   A    
C68   C71   A    
C7    C23   S    
Cu2   O3    S    
C48   C50   A    
C8    C24   S    
C56   C58   A    
C69   H1    S    
C18   C20   A    
C4    C14   A    
C61   N1    A    
C50   H12   S    
C73   C78   A    
C72   H22   S    
C7    C9    A    
C5    H23   S    
C95   H51   S    
C62   N2    A    
C86   C87   A    
C8    C10   A    
C65   C66   A    
C22   C26   A    
C21   H3    S    
C89   C90   A    
C81   C82   A    
C46   O10   S    
C70   C72   A    
C1    O3    A    
C87   C88   A    
C80   C81   A    
C56   N6    A    
C45   N1    A    
C32   C34   A    
C37   O15   S    
