data_mof_unit_31991.cif
_audit_creation_date              2013-03-05T16:32:50-0500
_audit_creation_method            fapswitch 2.2
_symmetry_space_group_name_H-M    P1
_symmetry_Int_Tables_number       1
_space_group_crystal_system       triclinic
_cell_length_a                    19.25933
_cell_length_b                    10.935502
_cell_length_c                    9.656454
_cell_angle_alpha                 90.233658
_cell_angle_beta                  89.659835
_cell_angle_gamma                 95.343444
_cell_volume                      2024.86374391

loop_
_atom_site_label
_atom_site_type_symbol
_atom_site_description
_atom_site_fract_x
_atom_site_fract_y
_atom_site_fract_z
_atom_type_partial_charge
O1    O     O_R   0.500000 0.319640 0.618810 -0.637503
O2    O     O_R   0.500010 0.319680 0.381230 -0.577547
C1    C     C_R   0.498176 0.262217 0.499700 0.796694
O3    O     O_R   0.400140 0.499970 0.618830 -0.593640
O4    O     O_R   0.400150 0.500010 0.381250 -0.634172
C2    C     C_R   0.367636 0.509262 0.499594 0.776811
Cu1   Cu    Cu3+1 0.500000 0.499980 0.640670 0.952547
Cu2   Cu    Cu3+1 0.500000 0.500020 0.359330 0.987564
O5    O     O_R   0.499990 0.680320 0.618770 -0.562296
O6    O     O_R   0.500000 0.680360 0.381190 -0.558154
O7    O     O_R   0.599850 0.499990 0.618750 -0.580013
O8    O     O_R   0.599860 0.500030 0.381170 -0.478337
C3    C     C_R   0.496248 0.736905 0.499380 0.800336
C4    C     C_R   0.630606 0.482052 0.500337 0.821419
C5    C     C_R   0.254032 0.548780 0.619396 -0.129119
C6    C     C_R   0.181098 0.519720 0.627053 0.428065
C7    C     C_R   0.143529 0.478511 0.507774 -0.212356
C8    C     C_R   0.179385 0.466201 0.381389 0.441975
C9    C     C_R   0.251723 0.501839 0.372999 -0.145074
C10   C     C_R   0.290526 0.521446 0.497109 -0.344651
N1    N     N_R   0.029850 0.379401 0.428148 -0.202012
N2    N     N_R   0.960450 0.368117 0.428693 -0.222135
C11   C     C_R   0.924664 0.439353 0.513324 0.476077
N3    N     N_R   0.960627 0.523207 0.595884 -0.219191
N4    N     N_R   0.029980 0.534761 0.594622 -0.159615
C12   C     C_R   0.066120 0.462666 0.511320 0.486002
C13   C     C_R   0.808876 0.418708 0.638834 -0.036244
C14   C     C_R   0.735063 0.416600 0.632614 -0.133613
C15   C     C_R   0.703395 0.444473 0.504752 -0.260229
C16   C     C_R   0.741372 0.428625 0.381828 0.497198
C17   C     C_R   0.813457 0.424222 0.387197 -0.285574
H1    H     H_    0.842653 0.421304 0.291108 0.176968
C18   C     C_R   0.847968 0.427558 0.514137 -0.055258
C19   C     C_R   0.469430 0.059824 0.615233 0.030213
C20   C     C_R   0.488428 0.127622 0.496702 -0.210081
C21   C     C_R   0.495701 0.063422 0.371324 0.462446
C22   C     C_R   0.480388 0.934030 0.369046 -0.066315
C23   C     C_R   0.486019 0.868689 0.495264 -0.279594
C24   C     C_R   0.477115 0.935227 0.617024 0.105152
C25   C     C_3   0.512784 0.943234 0.755305 -0.049183
C26   C     C_3   0.494764 0.077401 0.760217 -0.296703
H2    H     H_    0.540366 0.147141 0.769941 0.164527
C27   C     C_R   0.558616 0.537465 0.070978 0.165132
N5    N     N_R   0.500440 0.500930 0.147930 -0.249138
C28   C     C_R   0.446317 0.437270 0.075411 0.013494
C29   C     C_R   0.444911 0.443726 0.925620 0.028559
N6    N     N_R   0.500440 0.500890 0.852020 -0.249768
C30   C     C_R   0.559229 0.533978 0.926954 0.098403
C31   C     C_3   0.610835 0.644510 0.917829 0.154193
C32   C     C_3   0.610518 0.648199 0.079738 0.788614
H3    H     H_    0.587294 0.721828 0.868221 0.075453
C33   C     C_2   0.290523 0.626132 0.728575 0.593947
H4    H     H_    0.340647 0.674696 0.705402 0.105706
O9    O     O_2   0.264690 0.640350 0.842586 -0.410609
C34   C     C_2   0.445756 0.875874 0.244609 0.349924
H5    H     H_    0.456419 0.787030 0.205883 0.168158
O10   O     O_2   0.400670 0.926621 0.185175 -0.525644
C35   C     C_2   0.480660 0.860488 0.867771 0.466193
H6    H     H_    0.502213 0.867494 0.970783 0.076799
O11   O     O_2   0.431035 0.785717 0.845404 -0.511578
C36   C     C_2   0.590313 0.936120 0.740583 0.219619
H7    H     H_    0.610618 0.881656 0.658389 0.087496
O12   O     O_2   0.630873 0.991558 0.820625 -0.580996
C37   C     C_2   0.434819 0.104379 0.853186 0.416812
H8    H     H_    0.441559 0.181460 0.922972 0.015084
O13   O     O_2   0.378449 0.043104 0.848930 -0.446403
C38   C     C_2   0.394872 0.349520 0.151251 0.341477
H9    H     H_    0.402284 0.325628 0.256532 0.143498
O14   O     O_2   0.344330 0.294428 0.096473 -0.520409
C39   C     C_2   0.385311 0.383304 0.848756 0.547088
H10   H     H_    0.393615 0.319410 0.765934 0.067066
O15   O     O_2   0.326055 0.408230 0.872984 -0.494972
O16   O     O_3   0.673773 0.610928 0.859214 -0.552416
C40   C     C_3   0.702884 0.702965 0.768699 -0.308041
H11   H     H_    0.709293 0.794522 0.819788 0.175316
H12   H     H_    0.670802 0.706612 0.674037 0.174697
H13   H     H_    0.755421 0.679721 0.736271 0.183307
O17   O     O_3   0.668840 0.614388 0.155660 -0.522096
C41   C     C_3   0.734626 0.668851 0.111334 -0.160790
H14   H     H_    0.766553 0.693538 0.204294 0.149265
H15   H     H_    0.733022 0.753269 0.049415 0.117896
H16   H     H_    0.761904 0.600567 0.051651 0.220995
O18   O     O_3   0.145874 0.539922 0.749198 -0.524399
C42   C     C_3   0.137570 0.428915 0.823987 -0.096454
H17   H     H_    0.104513 0.356832 0.766877 0.119181
H18   H     H_    0.110876 0.445777 0.923414 0.215859
H19   H     H_    0.188761 0.395353 0.849058 0.211466
O19   O     O_3   0.577814 0.746379 0.139611 -0.640829
C43   C     C_3   0.624158 0.853336 0.149581 -0.378371
H20   H     H_    0.647982 0.879854 0.048007 0.192495
H21   H     H_    0.664051 0.843535 0.230325 0.199911
H22   H     H_    0.594649 0.929698 0.183369 0.225887
O20   O     O_3   0.142054 0.433668 0.262693 -0.536626
C44   C     C_3   0.149337 0.308769 0.233561 -0.157985
H23   H     H_    0.129106 0.248374 0.320098 0.146503
H24   H     H_    0.204477 0.292764 0.211088 0.203867
H25   H     H_    0.118327 0.281583 0.140121 0.181199
C45   C     C_2   0.283183 0.540932 0.236580 0.537197
H26   H     H_    0.329732 0.604700 0.232385 0.082122
O21   O     O_2   0.256021 0.508464 0.126968 -0.431260
C46   C     C_2   0.844646 0.407460 0.773560 0.465115
H27   H     H_    0.828959 0.458467 0.863224 0.109297
O22   O     O_2   0.891435 0.340268 0.785813 -0.530799
C47   C     C_2   0.690145 0.361790 0.747832 0.517806
H28   H     H_    0.638494 0.318514 0.725151 0.072581
O23   O     O_2   0.709811 0.360916 0.867630 -0.556030
O24   O     O_3   0.708208 0.415053 0.255845 -0.531086
C48   C     C_3   0.696442 0.288679 0.225423 -0.165757
H29   H     H_    0.664145 0.277216 0.130770 0.223232
H30   H     H_    0.667363 0.237517 0.310434 0.161241
H31   H     H_    0.746401 0.248494 0.203969 0.151116
O25   O     O_3   0.541942 0.118163 0.274591 -0.619625
C49   C     C_3   0.509155 0.134543 0.147833 -0.263008
H32   H     H_    0.452292 0.142148 0.158102 0.199844
H33   H     H_    0.519059 0.058554 0.076770 0.166360
H34   H     H_    0.533006 0.220825 0.100524 0.163230

loop_
_geom_bond_atom_site_label_1
_geom_bond_atom_site_label_2
_geom_bond_distance
_ccdc_geom_bond_type
N1    C12   1.358055 A    
O20   C44   1.412927 S    
C16   O24   1.378442 S    
C26   H2    1.112395 S    
C20   C21   1.409860 A    
C42   H19   1.111878 S    
C34   H5    1.076676 S    
C47   O23   1.219730 D    
Cu1   Cu2   2.716749 S    
C28   C29   1.448993 A    
C13   C18   1.415182 A    
Cu1   O7    1.933399 S    
C14   C15   1.426873 A    
C22   C23   1.425111 A    
C40   H12   1.109290 S    
O4    C2    1.307928 A    
C7    C12   1.484971 S    
C21   C22   1.418333 A    
C42   H18   1.109276 S    
C8    C9    1.413211 A    
C16   C17   1.394895 A    
O7    C4    1.307134 A    
C35   O11   1.218248 D    
C5    C6    1.412565 A    
C48   H29   1.108752 S    
C19   C20   1.394663 A    
O16   C40   1.409801 S    
C36   O12   1.220762 D    
O5    C3    1.316188 A    
O25   C49   1.400398 S    
N6    C30   1.366663 A    
C6    C7    1.413585 A    
C31   H3    1.107792 S    
C40   H13   1.109032 S    
C21   O25   1.385427 S    
O24   C48   1.409479 S    
C17   C18   1.396587 A    
C39   H10   1.080802 S    
C43   H21   1.110343 S    
C27   C30   1.391139 A    
C32   O19   1.414310 S    
C49   H34   1.109179 S    
C46   O22   1.221163 D    
N1    N2    1.330780 A    
C36   H7    1.083267 S    
C19   C26   1.491157 S    
O3    Cu1   1.935999 S    
C32   O17   1.423094 S    
C47   H28   1.084236 S    
C9    C45   1.494016 S    
C33   O9    1.220772 D    
C5    C10   1.415690 A    
C25   C35   1.508893 S    
C40   H11   1.111184 S    
C38   H9    1.064445 S    
C46   H27   1.084628 S    
N3    N4    1.329875 A    
O3    C2    1.322603 A    
C24   C25   1.503775 S    
C41   H15   1.104855 S    
O17   C41   1.413627 S    
C44   H25   1.109215 S    
C11   C18   1.470704 S    
N4    C12   1.357741 A    
C13   C46   1.486589 S    
C6    O18   1.384381 S    
C25   C36   1.508258 S    
C19   C24   1.384367 A    
O1    C1    1.307264 A    
C37   O13   1.222359 D    
C27   N5    1.369789 A    
C28   C38   1.502952 S    
C15   C16   1.409117 A    
O4    Cu2   1.933399 S    
C14   C47   1.497644 S    
O18   C42   1.410806 S    
C1    C20   1.466527 S    
Cu2   O8    1.935997 S    
C7    C8    1.410827 A    
C5    C33   1.487201 S    
C42   H17   1.112639 S    
C43   H22   1.100330 S    
C44   H24   1.112213 S    
C3    C23   1.473321 S    
C25   C26   1.539281 S    
O8    C4    1.321014 A    
C31   C32   1.563813 S    
C45   O21   1.220235 D    
C34   O10   1.220486 D    
C31   O16   1.413370 S    
C4    C15   1.498028 S    
N5    C28   1.389638 A    
C49   H32   1.109814 S    
Cu1   O5    1.984289 S    
C29   N6    1.381911 A    
C30   C31   1.494215 S    
O1    Cu1   1.982518 S    
C17   H1    1.084003 S    
O2    Cu2   1.984289 S    
Cu2   N5    2.041403 S    
O6    C3    1.300659 A    
C41   H16   1.109813 S    
C27   C32   1.499143 S    
C2    C10   1.503703 S    
C48   H31   1.112409 S    
C37   H8    1.075874 S    
C9    C10   1.421080 A    
C33   H4    1.080242 S    
O2    C1    1.306181 A    
C35   H6    1.079823 S    
C23   C24   1.398263 A    
C48   H30   1.113767 S    
C44   H23   1.113114 S    
C29   C39   1.473075 S    
C11   N3    1.355907 A    
C41   H14   1.109236 S    
C22   C34   1.489136 S    
O19   C43   1.406993 S    
Cu2   O6    1.982518 S    
C45   H26   1.083976 S    
C13   C14   1.421266 A    
C8    O20   1.384210 S    
N2    C11   1.355668 A    
C39   O15   1.218882 D    
C26   C37   1.508252 S    
C38   O14   1.218430 D    
C43   H20   1.108543 S    
Cu1   N6    2.040939 S    
C49   H33   1.105039 S    
