data_mof_unit_19330.cif
_audit_creation_date              2012-12-10T20:31:51-0500
_audit_creation_method            fapswitch 2.2
_symmetry_space_group_name_H-M    P1
_symmetry_Int_Tables_number       1
_space_group_crystal_system       triclinic
_cell_length_a                    9.892378
_cell_length_b                    10.686557
_cell_length_c                    15.552929
_cell_angle_alpha                 90.474188
_cell_angle_beta                  67.496847
_cell_angle_gamma                 90.711755
_cell_volume                      1518.86606231

loop_
_atom_site_label
_atom_site_type_symbol
_atom_type_description
_atom_site_fract_x
_atom_site_fract_y
_atom_site_fract_z
_atom_type_partial_charge
C1    C     C_R   0.499600 0.739900 0.501072 0.872861
C2    C     C_R   0.419790 0.524398 0.909969 0.074823
C3    C     C_R   0.284535 0.583341 0.960466 0.174565
C4    C     C_R   0.528096 0.515635 0.948632 0.064034
C5    C     C_R   0.492118 0.552366 0.042412 0.064595
C6    C     C_R   0.356062 0.611173 0.090946 -0.237757
C7    C     C_R   0.254583 0.626408 0.050353 -0.243068
C8    C     C_R   0.672920 0.476436 0.895594 -0.227111
C9    C     C_R   0.776015 0.465408 0.935443 -0.262106
C10   C     C_R   0.736768 0.487339 0.030061 0.183072
C11   C     C_R   0.593862 0.529355 0.084437 0.098976
C12   C     C_R   0.408117 0.499350 0.675805 0.864254
C13   C     C_R   0.837062 0.463564 0.071824 -0.218089
C14   C     C_R   0.793591 0.473027 0.168090 -0.205379
C15   C     C_R   0.553285 0.537894 0.180580 -0.268735
C16   C     C_R   0.388935 0.934599 0.485950 0.129182
C17   C     C_R   0.491971 0.871854 0.509769 -0.094157
C18   C     C_R   0.578687 0.937357 0.548127 -0.236691
C19   C     C_R   0.577876 0.066687 0.548691 -0.232678
C20   C     C_R   0.489253 0.128659 0.511127 -0.093351
C21   C     C_R   0.387221 0.062291 0.486796 0.129547
C22   C     C_3   0.358202 0.067951 0.399340 -0.489263
C23   C     C_R   0.498364 0.260223 0.501334 0.874537
C24   C     C_3   0.360314 0.926160 0.398440 -0.488068
C25   C     C_R   0.926038 0.609511 0.508725 0.135781
C26   C     C_R   0.936422 0.393079 0.483992 -0.126664
C27   C     C_R   0.079913 0.393060 0.484192 -0.117961
C28   C     C_R   0.068725 0.609257 0.507839 0.134708
C29   C     C_3   0.032914 0.699602 0.586101 -0.565605
C30   C     C_3   0.878109 0.701487 0.587932 0.323777
C31   C     C_R   0.591774 0.501546 0.324102 0.864365
C32   C     C_R   0.350660 0.510131 0.776705 -0.063886
C33   C     C_R   0.649565 0.506074 0.222690 -0.061443
C34   C     C_R   0.182768 0.602199 0.919014 -0.225894
C35   C     C_R   0.217236 0.568271 0.826408 -0.213598
C36   C     C_R   0.443905 0.479130 0.820956 -0.251832
H1    H     H_    0.152542 0.673196 0.089355 0.150253
H2    H     H_    0.946857 0.432475 0.030555 0.152481
H3    H     H_    0.650364 0.889434 0.573805 0.149749
H4    H     H_    0.650591 0.117450 0.574201 0.161625
H5    H     H_    0.248425 0.106117 0.411535 0.193837
H6    H     H_    0.450217 0.111001 0.340453 0.203115
H7    H     H_    0.251961 0.882987 0.410063 0.197849
H8    H     H_    0.453802 0.886293 0.339158 0.199993
H9    H     H_    0.888854 0.306211 0.472314 0.144314
H10   H     H_    0.139084 0.306302 0.472966 0.141963
H11   H     H_    0.042693 0.657039 0.648456 0.219843
H12   H     H_    0.443044 0.561240 0.225119 0.159604
H13   H     H_    0.091840 0.790239 0.564249 0.164483
H14   H     H_    0.849007 0.792301 0.565836 0.039895
H15   H     H_    0.869983 0.449275 0.199888 0.160053
H16   H     H_    0.885693 0.435539 0.892474 0.154795
H17   H     H_    0.080019 0.648647 0.956707 0.147564
H18   H     H_    0.143228 0.592227 0.792834 0.150834
H19   H     H_    0.538826 0.424446 0.782199 0.162109
H20   H     H_    0.326839 0.651476 0.159364 0.146337
H21   H     H_    0.712335 0.458006 0.821912 0.178955
N1    N     N_R   0.856900 0.500860 0.500610 -0.084299
N2    N     N_R   0.142540 0.500820 0.500610 -0.088506
O1    O     O_R   0.385310 0.683210 0.499990 -0.612821
O2    O     O_R   0.614650 0.683240 0.500000 -0.620432
O3    O     O_R   0.319830 0.499970 0.632240 -0.617973
O4    O     O_R   0.549170 0.500000 0.632250 -0.570027
O5    O     O_R   0.385350 0.316760 0.500000 -0.619984
O6    O     O_R   0.614690 0.316790 0.500010 -0.632346
O7    O     O_R   0.450830 0.500000 0.367750 -0.614552
O8    O     O_R   0.680170 0.500030 0.367760 -0.617308
Zn1   Zn    Zn3+2 0.346870 0.499980 0.499990 0.941975
Zn2   Zn    Zn3+2 0.653130 0.500020 0.500010 0.964012
O9    O     O_3   0.774499 0.648228 0.670097 -0.605082
C37   C     C_3   0.707900 0.742036 0.737521 0.121938
H22   H     H_    0.601176 0.704084 0.785426 0.180610
H23   H     H_    0.681565 0.828017 0.707496 0.099523
C38   C     C_3   0.801240 0.775380 0.793922 -0.393788
H24   H     H_    0.843446 0.688792 0.813302 0.240559
H25   H     H_    0.896178 0.834076 0.751008 0.210968
C39   C     C_3   0.713144 0.847724 0.882302 -0.925758
H26   H     H_    0.671405 0.935771 0.864503 0.260968
H27   H     H_    0.784193 0.871502 0.920823 0.263883
H28   H     H_    0.619435 0.790152 0.928153 0.273047

loop_
_geom_bond_atom_site_label_1
_geom_bond_atom_site_label_2
_ccdc_geom_bond_type
C8    C9    A    
C31   O7    A    
O7    Zn1   S    
C16   C21   A    
C19   C20   A    
C4    C8    A    
C14   C33   A    
C29   H13   S    
C39   H26   S    
C25   C28   A    
C31   O8    A    
C26   C27   A    
C38   H25   S    
C29   H11   S    
O5    Zn1   S    
C28   C29   S    
C5    C11   A    
C3    C7    A    
C5    C6    A    
N2    Zn1   S    
C39   H28   S    
C22   H5    S    
O2    Zn2   S    
C34   C35   A    
C26   H9    S    
C11   C15   A    
O4    Zn2   S    
C16   C17   A    
C38   C39   S    
C31   C33   S    
O9    C37   S    
C9    C10   A    
C30   H14   S    
C16   C24   S    
C13   C14   A    
C12   C32   S    
C35   H18   S    
C9    H16   S    
C15   H12   S    
C30   O9    S    
C39   H27   S    
C38   H24   S    
C32   C35   A    
C19   H4    S    
C1    O1    A    
C37   H23   S    
C12   O4    A    
C18   C19   A    
C3    C34   A    
O8    Zn2   S    
C2    C4    A    
C18   H3    S    
C29   C30   S    
C8    H21   S    
C12   O3    A    
C14   H15   S    
C20   C23   S    
C17   C18   A    
C7    H1    S    
C26   N1    A    
C13   H2    S    
C27   H10   S    
C23   O5    A    
C24   H8    S    
C22   C24   S    
C25   N1    A    
C32   C36   A    
C28   N2    A    
C2    C36   A    
C25   C30   S    
C6    H20   S    
C4    C5    A    
C10   C13   A    
C1    O2    A    
C37   C38   S    
N1    Zn2   S    
C6    C7    A    
C1    C17   S    
O3    Zn1   S    
C23   O6    A    
C2    C3    A    
C37   H22   S    
C36   H19   S    
C27   N2    A    
C22   H6    S    
O6    Zn2   S    
C10   C11   A    
C20   C21   A    
O1    Zn1   S    
C34   H17   S    
C24   H7    S    
C21   C22   S    
C15   C33   A    
