data_mof_unit_66596.cif
_audit_creation_date              2012-12-10T16:46:03-0500
_audit_creation_method            fapswitch 2.2
_symmetry_space_group_name_H-M    P1
_symmetry_Int_Tables_number       1
_space_group_crystal_system       triclinic
_cell_length_a                    10.826643
_cell_length_b                    8.744897
_cell_length_c                    7.589169
_cell_angle_alpha                 103.067119
_cell_angle_beta                  96.617712
_cell_angle_gamma                 94.132509
_cell_volume                      691.673605915

loop_
_atom_site_label
_atom_site_type_symbol
_atom_type_description
_atom_site_fract_x
_atom_site_fract_y
_atom_site_fract_z
_atom_type_partial_charge
C1    C     C_R   0.493428 0.200163 0.452553 0.875775
C2    C     C_3   0.874430 0.483794 0.506302 0.075350
C3    C     C_3   0.937252 0.648792 0.509065 -0.486434
C4    C     C_3   0.898482 0.367087 0.331926 -0.404962
C5    C     C_2   0.476302 0.031552 0.421970 -0.141178
C6    C     C_2   0.499686 0.966683 0.566048 -0.275847
C7    C     C_R   0.259050 0.485574 0.497370 0.852970
C8    C     C_R   0.500535 0.799277 0.545577 0.877571
C9    C     C_R   0.738490 0.495192 0.501405 0.819856
C10   C     C_3   0.082715 0.432536 0.686869 0.259405
C11   C     C_3   0.934192 0.432629 0.681238 -0.292304
C12   C     C_3   0.073466 0.636433 0.473940 -0.266076
C13   C     C_3   0.036989 0.338494 0.346772 -0.199166
C14   C     C_3   0.118075 0.474843 0.501580 -0.155720
Cu1   Cu    Cu3+1 0.514070 0.517380 0.684380 1.058410
Cu2   Cu    Cu3+1 0.485930 0.482620 0.315620 1.023005
H1    H     H_    0.871267 0.417580 0.212095 0.153294
H2    H     H_    0.074932 0.634858 0.326866 0.207056
H3    H     H_    0.887201 0.699187 0.402032 0.193765
H4    H     H_    0.526771 0.039800 0.703375 0.157245
H5    H     H_    0.423645 0.356463 0.947775 0.272987
H6    H     H_    0.913783 0.526200 0.797470 0.080473
H7    H     H_    0.931574 0.731221 0.642638 0.200379
H8    H     H_    0.038683 0.223075 0.381834 0.270618
H9    H     H_    0.839074 0.253113 0.307689 0.223203
N1    N     N_2   0.464720 0.456420 0.038520 -0.184223
N2    N     N_2   0.535280 0.543580 0.961480 -0.166768
O1    O     O_R   0.509140 0.286130 0.619770 -0.577299
O2    O     O_R   0.485380 0.256770 0.308360 -0.619191
O3    O     O_R   0.329570 0.514650 0.655700 -0.535396
O4    O     O_R   0.305810 0.485300 0.344290 -0.538451
O5    O     O_R   0.514620 0.743230 0.691640 -0.555442
O6    O     O_R   0.490860 0.713870 0.380230 -0.590129
O7    O     O_R   0.694190 0.514700 0.655710 -0.568424
O8    O     O_R   0.670430 0.485350 0.344300 -0.652526
C15   C     C_2   0.138657 0.562204 0.855403 0.302546
H10   H     H_    0.093672 0.669491 0.892474 0.066257
O9    O     O_2   0.232341 0.549887 0.954377 -0.442805
C16   C     C_2   0.429250 0.943572 0.230359 0.471041
H11   H     H_    0.475959 0.967355 0.118831 0.049424
O10   O     O_2   0.333862 0.852959 0.195110 -0.442994
C17   C     C_2   0.625394 0.666196 0.066738 0.587734
H12   H     H_    0.647705 0.689673 0.211210 0.070015
O11   O     O_2   0.684619 0.748715 0.989579 -0.570934
S1    S     S_3+6 0.144484 0.238040 0.700134 0.008974
O12   O     O_2   0.043097 0.103854 0.662829 -0.270666
O13   O     O_2   0.230796 0.193194 0.559711 -0.313299
O14   O     O_3   0.228498 0.239787 0.899262 -0.509054
H13   H     H_    0.258777 0.133814 0.883346 0.370976
C18   C     C_2   0.865284 0.288843 0.719174 0.524654
H14   H     H_    0.877499 0.270475 0.856356 0.089202
O15   O     O_2   0.795159 0.193817 0.600557 -0.573437
C19   C     C_2   0.156037 0.782932 0.579337 0.470485
H15   H     H_    0.164323 0.821371 0.726170 0.085972
O16   O     O_2   0.213221 0.863239 0.497751 -0.454392
C20   C     C_2   0.072162 0.306197 0.161297 0.422210
H16   H     H_    0.101670 0.402273 0.104762 0.145911
O17   O     O_2   0.053331 0.171260 0.067263 -0.479645

loop_
_geom_bond_atom_site_label_1
_geom_bond_atom_site_label_2
_ccdc_geom_bond_type
C1    O1    A    
C18   O15   D    
H5    N1    S    
Cu1   O7    S    
C3    H3    S    
Cu2   O6    S    
C6    H4    S    
C11   H6    S    
C3    H7    S    
C12   C19   S    
C13   C20   S    
C10   S1    S    
C5    C16   S    
C2    C3    S    
Cu1   O1    S    
S1    O12   D    
Cu1   O5    S    
C16   O10   D    
C7    O3    A    
C19   H15   S    
Cu2   O4    S    
N2    C17   S    
N1    N2    D    
C5    C6    D    
C17   O11   D    
C1    C5    S    
C2    C11   S    
C15   O9    D    
O14   H13   S    
C12   C14   S    
C18   H14   S    
C8    O6    A    
C19   O16   D    
Cu2   O8    S    
Cu2   N1    S    
C9    O7    A    
S1    O14   S    
C7    O4    A    
C17   H12   S    
C4    H1    S    
Cu1   Cu2   S    
C8    O5    A    
C2    C4    S    
C4    H9    S    
C16   H11   S    
C20   H16   S    
C20   O17   D    
Cu1   O3    S    
C10   C11   S    
S1    O13   D    
C12   H2    S    
C4    C13   S    
C9    O8    A    
C11   C18   S    
C15   H10   S    
C6    C8    S    
C3    C12   S    
C1    O2    A    
Cu2   O2    S    
C13   C14   S    
C2    C9    S    
Cu1   N2    S    
C7    C14   S    
C13   H8    S    
C10   C14   S    
C10   C15   S    
