data_mof_unit_43665.cif
_audit_creation_date              2012-12-11T15:43:00-0500
_audit_creation_method            fapswitch 2.2
_symmetry_space_group_name_H-M    P1
_symmetry_Int_Tables_number       1
_space_group_crystal_system       triclinic
_cell_length_a                    19.280516
_cell_length_b                    11.075714
_cell_length_c                    18.73048
_cell_angle_alpha                 89.953519
_cell_angle_beta                  89.780601
_cell_angle_gamma                 89.81833
_cell_volume                      3999.75865295

loop_
_atom_site_label
_atom_site_type_symbol
_atom_type_description
_atom_site_fract_x
_atom_site_fract_y
_atom_site_fract_z
_atom_type_partial_charge
C1    C     C_R   0.711707 0.330916 0.138357 0.585059
C2    C     C_R   0.287865 0.332348 0.861698 0.564673
C3    C     C_R   0.213276 0.835047 0.138006 0.592683
C4    C     C_R   0.789117 0.828620 0.861316 0.562600
C5    C     C_R   0.513592 0.380682 0.923469 -0.129642
C6    C     C_R   0.496371 0.390940 0.069166 -0.132791
C7    C     C_R   0.020187 0.876316 0.921717 -0.136006
C8    C     C_R   0.002404 0.892753 0.067223 -0.128960
C9    C     C_R   0.005533 0.991242 0.950189 -0.012809
C10   C     C_R   0.000865 0.000318 0.026583 -0.027494
C11   C     C_R   0.495348 0.493569 0.953208 -0.010303
C12   C     C_R   0.491352 0.499323 0.029723 -0.026830
C13   C     C_R   0.783020 0.835054 0.940270 0.008121
C14   C     C_R   0.224954 0.861478 0.062487 0.042427
C15   C     C_R   0.276991 0.357661 0.937475 0.002620
C16   C     C_R   0.720596 0.350038 0.061225 0.037896
C17   C     C_R   0.723345 0.801753 0.976469 0.095613
C18   C     C_R   0.270873 0.793010 0.020999 -0.002968
C19   C     C_R   0.212571 0.389597 0.964132 0.066429
C20   C     C_R   0.771159 0.289612 0.020930 -0.003685
C21   C     C_R   0.711743 0.828491 0.047655 0.003894
C22   C     C_R   0.282874 0.820672 0.948240 -0.031437
C23   C     C_R   0.201561 0.401046 0.036510 0.071777
C24   C     C_R   0.783806 0.320231 0.948713 -0.036517
C25   C     C_R   0.828602 0.894412 0.057048 -0.167550
C26   C     C_R   0.180985 0.945911 0.953653 -0.175049
C27   C     C_R   0.322080 0.374350 0.059061 -0.179321
C28   C     C_R   0.678438 0.436242 0.951525 -0.151370
C29   C     C_R   0.838413 0.871593 0.983358 -0.165222
C30   C     C_R   0.177066 0.933684 0.026573 -0.155026
C31   C     C_R   0.332431 0.352873 0.985634 -0.180995
C32   C     C_R   0.671432 0.418039 0.024149 -0.154961
C33   C     C_3   0.650265 0.813436 0.957370 0.096030
C34   C     C_3   0.257041 0.665013 0.002597 0.094554
C35   C     C_3   0.145084 0.329266 0.955954 0.079719
C36   C     C_3   0.767939 0.159111 0.002101 0.098854
C37   C     C_3   0.636100 0.847963 0.035451 -0.257809
C38   C     C_3   0.277957 0.691166 0.926806 -0.245365
C39   C     C_3   0.134147 0.338186 0.036065 -0.239061
C40   C     C_3   0.786341 0.190866 0.926247 -0.238011
C41   C     C_R   0.761483 0.889476 0.087221 0.037486
C42   C     C_R   0.239629 0.905632 0.916433 0.005270
C43   C     C_R   0.255194 0.397221 0.085223 -0.000073
C44   C     C_R   0.739119 0.401865 0.915809 0.012080
C45   C     C_R   0.531761 0.156181 0.147218 0.542328
C46   C     C_R   0.467509 0.154786 0.853565 0.534681
C47   C     C_R   0.031715 0.656424 0.147142 0.552037
C48   C     C_R   0.967511 0.654526 0.853510 0.535997
C49   C     C_R   0.503093 0.160250 0.578731 0.030995
C50   C     C_R   0.519243 0.164566 0.430359 0.014166
C51   C     C_R   0.985974 0.662344 0.572272 0.035289
C52   C     C_R   0.005552 0.672348 0.424541 0.019268
C53   C     C_R   0.504295 0.053657 0.538779 0.049095
C54   C     C_R   0.512657 0.056121 0.466543 0.012667
C55   C     C_R   0.952458 0.582141 0.526541 0.026983
C56   C     C_R   0.962615 0.585423 0.454156 -0.004366
C57   C     C_R   0.529338 0.270882 0.470421 -0.157607
C58   C     C_R   0.521870 0.268596 0.545027 -0.171840
C59   C     C_R   0.032024 0.764351 0.469018 -0.154252
C60   C     C_R   0.022168 0.759549 0.542933 -0.171127
C61   C     C_3   0.451311 0.955370 0.533219 -0.260898
C62   C     C_3   0.462454 0.956952 0.453482 -0.270481
C63   C     C_3   0.951683 0.448087 0.528080 -0.262641
C64   C     C_3   0.963088 0.450838 0.448134 -0.273390
C65   C     C_R   0.754307 0.925429 0.578068 0.064084
C66   C     C_R   0.251853 0.916261 0.422560 0.044972
C67   C     C_R   0.254510 0.426195 0.578177 0.064069
C68   C     C_R   0.749451 0.410848 0.424258 0.050948
C69   C     C_R   0.809948 0.965938 0.536359 -0.032850
C70   C     C_R   0.219809 0.014826 0.454980 -0.037947
C71   C     C_R   0.309647 0.470249 0.536964 -0.027392
C72   C     C_R   0.720558 0.513179 0.455540 -0.034333
C73   C     C_R   0.805326 0.971392 0.463948 0.054213
C74   C     C_R   0.218535 0.023304 0.527614 0.019816
C75   C     C_R   0.305161 0.476840 0.464469 0.054059
C76   C     C_R   0.719935 0.524809 0.528156 0.026145
C77   C     C_R   0.685034 0.916565 0.470634 -0.162315
C78   C     C_R   0.292729 0.850957 0.540097 -0.170592
C79   C     C_R   0.186112 0.414340 0.470349 -0.161928
C80   C     C_R   0.783094 0.339478 0.542883 -0.170890
C81   C     C_R   0.689353 0.909570 0.545851 0.196308
C82   C     C_R   0.295153 0.840243 0.465136 0.207830
C83   C     C_R   0.190278 0.407071 0.545467 0.197787
C84   C     C_R   0.787297 0.328681 0.468118 0.201715
C85   C     C_3   0.882973 0.920089 0.531644 -0.259661
C86   C     C_3   0.149436 0.071883 0.448525 -0.279902
C87   C     C_3   0.383381 0.427934 0.532403 -0.266263
C88   C     C_3   0.651195 0.572988 0.448113 -0.281325
C89   C     C_R   0.742934 0.965035 0.149445 0.570637
C90   C     C_R   0.257163 0.966391 0.850351 0.539113
C91   C     C_R   0.243220 0.462523 0.151435 0.554967
C92   C     C_R   0.757146 0.466001 0.850455 0.543428
C93   C     C_3   0.877237 0.927465 0.451375 -0.271371
C94   C     C_3   0.147277 0.074832 0.529393 -0.262927
C95   C     C_3   0.377867 0.436483 0.452181 -0.274636
C96   C     C_3   0.649502 0.580689 0.528730 -0.262518
C97   C     C_R   0.745081 0.939979 0.429271 -0.005405
C98   C     C_R   0.250854 0.939125 0.571710 -0.014389
C99   C     C_R   0.245687 0.441353 0.429407 -0.009047
C100  C     C_R   0.748074 0.436925 0.573006 -0.005153
C101  C     C_R   0.729136 0.375713 0.352959 0.575053
C102  C     C_R   0.270775 0.379263 0.648272 0.583476
C103  C     C_R   0.229669 0.876959 0.352464 0.570791
C104  C     C_R   0.770608 0.879394 0.648361 0.583373
C105  C     C_R   0.535851 0.157102 0.355257 0.546268
C106  C     C_R   0.468586 0.156478 0.647519 0.548079
C107  C     C_R   0.033833 0.657703 0.353832 0.550206
C108  C     C_R   0.967051 0.656549 0.646538 0.555157
C109  C     C_R   0.740123 0.974406 0.355225 0.553719
C110  C     C_R   0.258512 0.972253 0.645703 0.539773
C111  C     C_R   0.240245 0.474608 0.355246 0.547846
C112  C     C_R   0.757935 0.471328 0.646322 0.540471
C113  C     C_R   0.493450 0.161117 0.926995 -0.001830
C114  C     C_R   0.502202 0.167522 0.075873 0.010126
C115  C     C_R   0.993219 0.660019 0.926955 0.004618
C116  C     C_R   0.001603 0.668867 0.075876 0.020495
C117  C     C_R   0.506981 0.272398 0.961693 -0.012675
C118  C     C_R   0.503385 0.277352 0.036518 0.004360
C119  C     C_R   0.008566 0.770729 0.960908 -0.006549
C120  C     C_R   0.005414 0.777744 0.035652 0.019186
C121  C     C_R   0.488678 0.059982 0.040768 -0.169011
C122  C     C_R   0.482357 0.057414 0.968415 -0.165166
C123  C     C_R   0.985640 0.561906 0.041393 -0.158671
C124  C     C_R   0.980930 0.557230 0.968775 -0.158375
Cr1   Cr    Cr6+3 0.772010 0.169670 0.250090 1.053677
Cr2   Cr    Cr6+3 0.227990 0.169670 0.749910 1.072960
Cr3   Cr    Cr6+3 0.272010 0.669670 0.250090 1.059562
Cr4   Cr    Cr6+3 0.727990 0.669670 0.749910 1.072180
Cr5   Cr    Cr6+3 0.615000 0.323260 0.249260 0.988182
Cr6   Cr    Cr6+3 0.385000 0.323260 0.750740 0.963332
Cr7   Cr    Cr6+3 0.115000 0.823260 0.249260 0.989115
Cr8   Cr    Cr6+3 0.885000 0.823260 0.750740 0.963330
Cr9   Cr    Cr6+3 0.616710 0.010760 0.250840 0.997458
Cr10  Cr    Cr6+3 0.383290 0.010760 0.749160 0.990572
Cr11  Cr    Cr6+3 0.116710 0.510760 0.250840 0.998695
Cr12  Cr    Cr6+3 0.883290 0.510760 0.749160 0.990011
H1    H     H_    0.484944 0.975576 0.069018 0.143523
H2    H     H_    0.464138 0.973748 0.946333 0.139886
H3    H     H_    0.979565 0.479414 0.070617 0.136691
H4    H     H_    0.963989 0.472572 0.946436 0.135569
H5    H     H_    0.540023 0.355503 0.444150 0.128715
H6    H     H_    0.524117 0.352134 0.574856 0.117784
H7    H     H_    0.065315 0.833489 0.447641 0.136923
H8    H     H_    0.044181 0.828387 0.576903 0.116029
H9    H     H_    0.901171 0.414341 0.544835 0.154282
H10   H     H_    0.014075 0.412279 0.432397 0.148462
H11   H     H_    0.399333 0.989096 0.548997 0.163287
H12   H     H_    0.488278 0.873953 0.433027 0.146610
H13   H     H_    0.467925 0.869698 0.559014 0.130338
H14   H     H_    0.416191 0.987285 0.422962 0.154994
H15   H     H_    0.994473 0.409829 0.559489 0.152010
H16   H     H_    0.918217 0.417256 0.417081 0.173262
H17   H     H_    0.635358 0.904108 0.444954 0.128670
H18   H     H_    0.323993 0.792155 0.573345 0.113573
H19   H     H_    0.136855 0.399409 0.444427 0.119396
H20   H     H_    0.809692 0.275474 0.577104 0.107603
H21   H     H_    0.886569 0.825989 0.551239 0.167002
H22   H     H_    0.108806 0.013656 0.425533 0.155960
H23   H     H_    0.388865 0.333438 0.551362 0.164983
H24   H     H_    0.609930 0.514248 0.426722 0.156480
H25   H     H_    0.921087 0.984474 0.554406 0.137375
H26   H     H_    0.152265 0.163348 0.424266 0.134235
H27   H     H_    0.420175 0.494095 0.555678 0.131745
H28   H     H_    0.655174 0.662728 0.421833 0.135831
H29   H     H_    0.911041 0.997896 0.427402 0.155193
H30   H     H_    0.147072 0.166156 0.552172 0.187054
H31   H     H_    0.410740 0.508770 0.428795 0.153258
H32   H     H_    0.650650 0.673732 0.549243 0.188217
H33   H     H_    0.878926 0.837915 0.424593 0.133953
H34   H     H_    0.108768 0.011815 0.552993 0.128935
H35   H     H_    0.381216 0.347467 0.424889 0.130433
H36   H     H_    0.609766 0.521450 0.553707 0.132317
H37   H     H_    0.530316 0.376180 0.868415 0.126347
H38   H     H_    0.486734 0.395992 0.125944 0.141183
H39   H     H_    0.036068 0.868627 0.866467 0.126520
H40   H     H_    0.992087 0.900228 0.123758 0.139416
H41   H     H_    0.870032 0.935306 0.086878 0.138029
H42   H     H_    0.141034 0.996795 0.927325 0.204004
H43   H     H_    0.365255 0.375758 0.095316 0.136697
H44   H     H_    0.638222 0.483688 0.923570 0.189134
H45   H     H_    0.886802 0.892603 0.958621 0.154873
H46   H     H_    0.135727 0.979413 0.054132 0.152573
H47   H     H_    0.382753 0.331675 0.965800 0.156068
H48   H     H_    0.627780 0.458155 0.051080 0.142415
H49   H     H_    0.639539 0.885653 0.917674 0.161992
H50   H     H_    0.291934 0.602636 0.030679 0.171879
H51   H     H_    0.110121 0.386257 0.923944 0.144423
H52   H     H_    0.807544 0.108308 0.030906 0.171511
H53   H     H_    0.620031 0.943432 0.042117 0.189330
H54   H     H_    0.329392 0.653052 0.912108 0.136333
H55   H     H_    0.090879 0.398502 0.051513 0.153812
H56   H     H_    0.839351 0.162231 0.910217 0.132113
H57   H     H_    0.603923 0.783620 0.065974 0.128926
H58   H     H_    0.236968 0.672444 0.886661 0.146511
H59   H     H_    0.136509 0.250427 0.064680 0.134824
H60   H     H_    0.745918 0.166624 0.886532 0.151721
O1    O     O_R   0.787520 0.042810 0.170440 -0.530031
O2    O     O_R   0.212480 0.042810 0.829560 -0.499963
O3    O     O_R   0.287520 0.542810 0.170440 -0.522108
O4    O     O_R   0.712480 0.542810 0.829560 -0.493665
O5    O     O_R   0.556610 0.252880 0.323980 -0.512501
O6    O     O_R   0.443390 0.252880 0.676020 -0.520492
O7    O     O_R   0.056610 0.752880 0.323980 -0.515529
O8    O     O_R   0.943390 0.752880 0.676020 -0.520483
O9    O     O_R   0.545950 0.051210 0.330860 -0.524040
O10   O     O_R   0.454050 0.051210 0.669140 -0.520098
O11   O     O_R   0.045950 0.551210 0.330860 -0.529466
O12   O     O_R   0.954050 0.551210 0.669140 -0.518461
O13   O     O_R   0.681390 0.959480 0.325510 -0.522805
O14   O     O_R   0.318610 0.959480 0.674490 -0.517574
O15   O     O_R   0.181390 0.459480 0.325510 -0.523638
O16   O     O_R   0.818610 0.459480 0.674490 -0.515982
O17   O     O_3   0.667900 0.167900 0.250060 -0.271556
O18   O     O_3   0.332100 0.167900 0.749940 -0.280430
O19   O     O_3   0.167900 0.667900 0.250060 -0.267487
O20   O     O_3   0.832100 0.667900 0.749940 -0.280507
O21   O     O_R   0.765640 0.292100 0.175020 -0.507706
O22   O     O_R   0.234360 0.292100 0.824980 -0.446458
O23   O     O_R   0.265640 0.792100 0.175020 -0.509774
O24   O     O_R   0.734360 0.792100 0.824980 -0.465048
O25   O     O_R   0.670190 0.408840 0.168540 -0.544674
O26   O     O_R   0.329810 0.408840 0.831460 -0.546550
O27   O     O_R   0.170190 0.908840 0.168540 -0.550365
O28   O     O_R   0.829810 0.908840 0.831460 -0.547890
O29   O     O_R   0.556620 0.251410 0.175160 -0.526889
O30   O     O_R   0.443380 0.251410 0.824840 -0.542393
O31   O     O_R   0.056620 0.751410 0.175160 -0.523179
O32   O     O_R   0.943380 0.751410 0.824840 -0.544381
O33   O     O_R   0.545960 0.049620 0.170320 -0.527146
O34   O     O_R   0.454040 0.049620 0.829680 -0.536512
O35   O     O_R   0.045960 0.549620 0.170320 -0.523320
O36   O     O_R   0.954040 0.549620 0.829680 -0.538567
O37   O     O_R   0.681390 0.958010 0.176690 -0.494941
O38   O     O_R   0.318610 0.958010 0.823310 -0.496806
O39   O     O_R   0.181390 0.458010 0.176690 -0.491919
O40   O     O_R   0.818610 0.458010 0.823310 -0.500583
O41   O     O_R   0.787510 0.044390 0.330970 -0.475228
O42   O     O_R   0.212490 0.044390 0.669030 -0.511744
O43   O     O_R   0.287510 0.544390 0.330970 -0.480617
O44   O     O_R   0.712490 0.544390 0.669030 -0.514275
O45   O     O_R   0.765630 0.293570 0.323840 -0.438041
O46   O     O_R   0.234370 0.293570 0.676160 -0.449427
O47   O     O_R   0.265630 0.793570 0.323840 -0.434352
O48   O     O_R   0.734370 0.793570 0.676160 -0.451250
O49   O     O_R   0.670190 0.410420 0.329080 -0.539760
O50   O     O_R   0.329810 0.410420 0.670920 -0.544235
O51   O     O_R   0.170190 0.910420 0.329080 -0.543067
O52   O     O_R   0.829810 0.910420 0.670920 -0.544907
O53   O     O_3   0.632363 0.883978 0.587880 -0.701399
H61   H     H_    0.592937 0.864468 0.556280 0.309127
O54   O     O_3   0.336868 0.753718 0.433519 -0.677770
H62   H     H_    0.366104 0.715120 0.470571 0.309901
O55   O     O_3   0.133721 0.377968 0.586963 -0.701604
H63   H     H_    0.097084 0.348804 0.554706 0.296738
O56   O     O_3   0.826338 0.237442 0.437782 -0.680968
H64   H     H_    0.856342 0.201241 0.475015 0.310284
C125  C     C_R   0.990299 0.088496 0.895697 0.019112
C126  C     C_R   0.006170 0.209968 0.906286 -0.071113
C127  C     C_R   0.001970 0.292658 0.849897 -0.081224
C128  C     C_R   0.975486 0.259169 0.783957 -0.080368
C129  C     C_R   0.954640 0.141022 0.773410 -0.133945
C130  C     C_R   0.962933 0.056769 0.828041 -0.105714
H65   H     H_    0.024872 0.240362 0.956863 0.146198
H66   H     H_    0.021417 0.382258 0.856297 0.131801
H67   H     H_    0.971974 0.324234 0.740978 0.145227
H68   H     H_    0.934054 0.113512 0.722256 0.114003
H69   H     H_    0.949022 0.965922 0.815827 0.179817
C131  C     C_R   0.992547 0.113055 0.069683 0.009640
C132  C     C_R   0.938099 0.193931 0.057225 -0.121096
C133  C     C_R   0.921768 0.283923 0.106904 -0.110999
C134  C     C_R   0.960716 0.296410 0.168998 -0.080767
C135  C     C_R   0.016727 0.219700 0.181188 -0.109449
C136  C     C_R   0.032195 0.128236 0.132369 -0.129793
H70   H     H_    0.908674 0.187176 0.009008 0.095168
H71   H     H_    0.880170 0.346888 0.096682 0.127210
H72   H     H_    0.948096 0.366727 0.207030 0.128732
H73   H     H_    0.047421 0.229562 0.229087 0.105754
H74   H     H_    0.074031 0.067024 0.144927 0.133811
C137  C     C_R   0.480427 0.593876 0.899891 0.026578
C138  C     C_R   0.494319 0.716287 0.912749 -0.073461
C139  C     C_R   0.500203 0.797500 0.855842 -0.057008
C140  C     C_R   0.479614 0.765460 0.787438 -0.073848
C141  C     C_R   0.456534 0.649055 0.774906 -0.134431
C142  C     C_R   0.458659 0.563917 0.829761 -0.097830
H75   H     H_    0.510136 0.747921 0.964331 0.132123
H76   H     H_    0.524779 0.883327 0.864079 0.131978
H77   H     H_    0.483180 0.829695 0.744019 0.144004
H78   H     H_    0.440720 0.622634 0.721766 0.107291
H79   H     H_    0.446049 0.473156 0.815376 0.176937
C143  C     C_R   0.483660 0.610213 0.074283 0.000212
C144  C     C_R   0.428910 0.691324 0.064216 -0.102145
C145  C     C_R   0.417317 0.785621 0.112524 -0.104556
C146  C     C_R   0.459298 0.798366 0.172478 -0.082120
C147  C     C_R   0.514216 0.718643 0.183362 -0.110846
C148  C     C_R   0.526356 0.625306 0.134771 -0.138277
H80   H     H_    0.396782 0.682729 0.017940 0.099758
H81   H     H_    0.376831 0.851049 0.103041 0.125521
H82   H     H_    0.449858 0.871130 0.209845 0.132107
H83   H     H_    0.547314 0.728867 0.229482 0.109025
H84   H     H_    0.568788 0.563838 0.144967 0.136570
O57   O     O_3   0.151884 0.210451 0.931724 -0.694621
H85   H     H_    0.190438 0.172789 0.958800 0.327458
O58   O     O_3   0.701095 0.109657 0.009682 -0.733650
H86   H     H_    0.667496 0.158937 0.981954 0.332943
O59   O     O_3   0.628154 0.699073 0.936421 -0.700598
H87   H     H_    0.617905 0.651408 0.979999 0.315346
O60   O     O_3   0.185970 0.637214 0.010939 -0.715170
H88   H     H_    0.157828 0.687095 0.977772 0.337526

loop_
_geom_bond_atom_site_label_1
_geom_bond_atom_site_label_2
_ccdc_geom_bond_type
Cr10  O14   S    
C144  C145  A    
C102  O50   A    
C73   C93   S    
C75   C95   S    
Cr5   O49   S    
O57   H85   S    
C140  C141  A    
C64   H16   S    
C79   C99   A    
C134  C135  A    
C22   C38   S    
C23   C43   A    
C1    O25   A    
C103  O51   A    
C34   H50   S    
C138  H75   S    
Cr1   O17   S    
C113  C122  A    
C135  C136  A    
C38   H54   S    
C70   C74   A    
C96   H32   S    
Cr8   O20   S    
C107  O11   A    
Cr6   O6    S    
C59   C60   A    
C30   H46   S    
C145  H81   S    
C109  O13   A    
C25   C29   A    
C47   C116  S    
C27   C31   A    
C7    C119  A    
C28   C32   A    
C68   C101  S    
C25   C41   A    
C6    H38   S    
C39   H59   S    
C28   C44   A    
C17   C21   A    
C36   H52   S    
C37   H57   S    
C19   C23   A    
C66   C82   A    
C39   H55   S    
C78   C82   A    
O58   H86   S    
C40   H56   S    
C68   C72   A    
C45   O29   A    
C28   H44   S    
Cr4   O48   S    
C53   C61   S    
Cr2   O42   S    
C139  H76   S    
C62   H14   S    
C64   H10   S    
C141  H78   S    
C50   C57   A    
C66   C103  S    
C106  O10   A    
C49   C106  S    
C76   C100  A    
C136  H74   S    
C129  H68   S    
C104  O48   A    
C94   H34   S    
Cr3   O19   S    
C66   C70   A    
C49   C53   A    
C87   H23   S    
Cr6   O18   S    
C51   C55   A    
C88   H24   S    
C111  O43   A    
C79   H19   S    
Cr6   O30   S    
C8    C10   A    
C5    C117  A    
C2    O22   A    
C19   C35   S    
C61   H13   S    
C76   C96   S    
Cr2   O22   S    
C41   C89   S    
C67   C83   A    
C116  C123  A    
Cr9   O13   S    
C108  O12   A    
C123  C124  A    
C74   C98   A    
C53   C54   A    
O53   H61   S    
C10   C131  S    
C132  H70   S    
C129  C130  A    
C48   O32   A    
C12   C143  S    
C91   O39   A    
C125  C126  A    
C121  H1    S    
C146  H82   S    
C77   H17   S    
Cr12  O16   S    
C85   C93   S    
C45   C114  S    
C112  O44   A    
C87   C95   S    
Cr2   O46   S    
C50   C105  S    
C56   C64   S    
C77   C97   A    
C102  O46   A    
C9    C10   A    
Cr4   O24   S    
Cr5   O5    S    
Cr2   O2    S    
C59   H7    S    
C140  H77   S    
C62   H12   S    
Cr9   O33   S    
C46   O30   A    
C134  H72   S    
Cr3   O47   S    
C138  C139  A    
C130  H69   S    
C104  O52   A    
C88   H28   S    
C116  C120  A    
C42   C90   S    
C107  O7    A    
C146  C147  A    
Cr7   O31   S    
C97   C109  S    
C105  O5    A    
C99   C111  S    
C75   C99   A    
Cr10  O38   S    
Cr4   O20   S    
C113  C117  A    
C35   H51   S    
C26   C30   A    
C115  C119  A    
C69   C85   S    
C26   C42   A    
C36   O58   S    
Cr11  O11   S    
C3    O27   A    
C46   C113  S    
C18   C22   A    
C5    H37   S    
C133  H71   S    
C128  C129  A    
C95   H31   S    
C1    O21   A    
C110  O42   A    
C15   C31   A    
C16   C32   A    
C89   O1    A    
C13   C17   A    
C126  C127  A    
C147  H83   S    
C117  C118  A    
C57   C58   A    
C95   H35   S    
Cr12  O40   S    
Cr10  O34   S    
Cr5   O17   S    
C61   C62   S    
C63   C64   S    
C47   O31   A    
Cr5   O29   S    
C141  C142  A    
Cr7   O27   S    
C51   C60   A    
C92   O4    A    
C63   H9    S    
O56   H64   S    
Cr11  O15   S    
C55   C56   A    
C88   C96   S    
Cr3   O43   S    
C98   C110  S    
C9    C125  S    
C85   H25   S    
C74   C94   S    
C37   H53   S    
C80   C84   A    
C101  O49   A    
C94   H30   S    
Cr3   O23   S    
O54   H62   S    
C15   C19   A    
C93   H33   S    
C50   C54   A    
C85   H21   S    
C13   C29   A    
C27   H43   S    
C5    C11   A    
Cr8   O32   S    
C6    C12   A    
C147  C148  A    
C25   H41   S    
Cr10  O10   S    
C35   O57   S    
C2    O26   A    
C143  C144  A    
Cr2   O18   S    
C114  C121  A    
C52   C107  S    
C4    O24   A    
C137  C138  A    
C69   C73   A    
Cr7   O7    S    
Cr11  O35   S    
C132  C133  A    
C46   O34   A    
C110  O14   A    
C17   C33   S    
C11   C137  S    
Cr8   O8    S    
C125  C130  A    
C68   C84   A    
Cr6   O26   S    
C38   H58   S    
C122  H2    S    
C127  H66   S    
Cr12  O12   S    
C78   H18   S    
C54   C62   S    
Cr7   O19   S    
C33   C37   S    
O60   H88   S    
Cr3   O3    S    
C35   C39   S    
Cr4   O4    S    
C58   H6    S    
C65   C81   A    
C77   C81   A    
C84   O56   S    
C8    H40   S    
C1    C16   S    
Cr9   O37   S    
C137  C142  A    
C2    C15   S    
C63   H15   S    
C121  C122  A    
C3    C14   S    
Cr7   O51   S    
C71   C87   S    
C142  H79   S    
C100  C112  S    
C24   C44   A    
Cr11  O39   S    
Cr1   O41   S    
C115  C124  A    
Cr8   O28   S    
C124  H4    S    
Cr8   O52   S    
C119  C120  A    
C105  O9    A    
C148  H84   S    
Cr4   O44   S    
Cr10  O18   S    
C57   H5    S    
C144  H80   S    
C61   H11   S    
C60   H8    S    
C79   C83   A    
O55   H63   S    
C65   C69   A    
C92   O40   A    
C67   C71   A    
C111  O15   A    
C20   C36   S    
C27   C43   A    
C21   C37   S    
C131  C132  A    
C3    O23   A    
O59   H87   S    
C133  C134  A    
C33   H49   S    
C128  H67   S    
Cr9   O9    S    
Cr1   O21   S    
C87   H27   S    
C135  H73   S    
C123  H3    S    
C14   C18   A    
C126  H65   S    
C72   C76   A    
Cr6   O50   S    
C73   C97   A    
Cr12  O36   S    
C29   H45   S    
C83   O55   S    
C112  O16   A    
C145  C146  A    
C47   O35   A    
C89   O37   A    
C90   O38   A    
C4    C13   S    
C86   C94   S    
Cr11  O19   S    
C20   C24   A    
C51   C108  S    
C7    H39   S    
C131  C136  A    
C78   C98   A    
C103  O47   A    
Cr1   O45   S    
C86   H26   S    
C101  O45   A    
C16   C20   A    
C91   O3    A    
Cr1   O1    S    
C80   C100  A    
C45   O33   A    
C14   C30   A    
C72   C88   S    
C80   H20   S    
C26   H42   S    
C143  C148  A    
C82   O54   S    
C36   C40   S    
Cr5   O25   S    
C139  C140  A    
C4    O28   A    
C43   C91   S    
C49   C58   A    
C55   C63   S    
C52   C59   A    
C106  O6    A    
C34   O60   S    
C18   C34   S    
C114  C118  A    
C48   C115  S    
C44   C92   S    
C21   C41   A    
C33   O59   S    
C127  C128  A    
C70   C86   S    
C8    C120  A    
C40   H60   S    
C7    C9    A    
C31   H47   S    
C34   C38   S    
C32   H48   S    
C81   O53   S    
C11   C12   A    
C86   H22   S    
C90   O2    A    
C109  O41   A    
Cr9   O17   S    
C108  O8    A    
C71   C75   A    
C22   C42   A    
C23   C39   S    
C24   C40   S    
C93   H29   S    
C48   O36   A    
C96   H36   S    
C65   C104  S    
C6    C118  A    
C52   C56   A    
C67   C102  S    
Cr12  O20   S    
