data_mof_unit_29760.cif
_audit_creation_date              2012-10-26T19:48:13-0400
_audit_creation_method            fapswitch 2.2
_symmetry_space_group_name_H-M    P1
_symmetry_Int_Tables_number       1
_space_group_crystal_system       triclinic
_cell_length_a                    10.726446
_cell_length_b                    9.425936
_cell_length_c                    10.622235
_cell_angle_alpha                 90.214514
_cell_angle_beta                  89.970556
_cell_angle_gamma                 90.010283
_cell_volume                      1073.97243478

loop_
_atom_site_label
_atom_site_type_symbol
_atom_type_description
_atom_site_fract_x
_atom_site_fract_y
_atom_site_fract_z
_atom_type_partial_charge
C1    C     C_R   0.259692 0.500199 0.500208 0.536451
C2    C     C_3   0.927991 0.424795 0.380820 -0.238782
C3    C     C_3   0.623057 0.084001 0.541659 0.419532
C4    C     C_3   0.623040 0.916381 0.541661 0.419243
C5    C     C_3   0.404972 0.084060 0.590132 -0.095821
C6    C     C_3   0.404974 0.916598 0.590118 -0.095757
C7    C     C_3   0.472371 0.083118 0.376228 -0.192135
C8    C     C_3   0.472380 0.915955 0.376217 -0.190598
C9    C     C_R   0.499838 0.499659 0.259309 0.544131
C10   C     C_R   0.740069 0.500214 0.500117 0.553792
C11   C     C_R   0.499905 0.500335 0.740770 0.563196
C12   C     C_3   0.499846 0.498880 0.122406 0.039606
C13   C     C_3   0.397381 0.566816 0.042399 -0.138558
C14   C     C_3   0.499924 0.364899 0.040023 -0.107235
C15   C     C_3   0.397461 0.432979 0.957726 -0.132732
C16   C     C_3   0.499885 0.501090 0.877655 0.048053
C17   C     C_3   0.499804 0.635068 0.960029 -0.107235
C18   C     C_3   0.602349 0.433148 0.957651 -0.107323
C19   C     C_3   0.602268 0.566987 0.042322 -0.127201
C20   C     C_3   0.071261 0.655511 0.501772 -0.234956
C21   C     C_3   0.071743 0.423256 0.618496 -0.241768
C22   C     C_3   0.928565 0.655519 0.501495 -0.230341
C23   C     C_3   0.927811 0.423381 0.618514 -0.227813
C24   C     C_3   0.071904 0.424936 0.380787 -0.230825
C25   C     C_3   0.121720 0.500931 0.500321 0.055328
C26   C     C_3   0.878038 0.500949 0.500252 0.041549
Cu1   Cu    Cu3+1 0.499860 0.642410 0.500060 0.934802
Cu2   Cu    Cu3+1 0.499860 0.357590 0.500060 0.935313
F1    F     F_    0.655979 0.135668 0.659456 -0.600336
F2    F     F_    0.655967 0.865672 0.659438 -0.599784
H1    H     H_    0.313753 0.378325 0.919774 0.096071
H2    H     H_    0.542897 0.120371 0.307039 0.106721
H3    H     H_    0.542945 0.878329 0.306987 0.112018
H4    H     H_    0.310610 0.122048 0.563253 0.095444
H5    H     H_    0.310633 0.878431 0.563153 0.095225
H6    H     H_    0.313600 0.621322 0.080389 0.097823
H7    H     H_    0.499939 0.254209 0.075393 0.113326
H8    H     H_    0.499759 0.745739 0.924596 0.142976
H9    H     H_    0.686128 0.378652 0.919633 0.134676
H10   H     H_    0.685987 0.621639 0.080237 0.104413
H11   H     H_    0.105607 0.714286 0.417849 0.117155
H12   H     H_    0.893115 0.479086 0.294857 0.102618
H13   H     H_    0.105974 0.311790 0.619984 0.118159
H14   H     H_    0.105176 0.712692 0.587071 0.117522
H15   H     H_    0.106639 0.476427 0.705356 0.104008
H16   H     H_    0.894233 0.713087 0.586450 0.167204
H17   H     H_    0.892922 0.476750 0.705313 0.120966
H18   H     H_    0.894709 0.713905 0.417209 0.110614
H19   H     H_    0.893415 0.311965 0.620143 0.164573
H20   H     H_    0.106762 0.479491 0.294910 0.103794
H21   H     H_    0.106313 0.313575 0.377242 0.118552
H22   H     H_    0.893713 0.313359 0.377493 0.117620
H23   H     H_    0.696341 0.119745 0.474779 0.064592
H24   H     H_    0.696269 0.880171 0.474734 0.061847
H25   H     H_    0.421386 0.123263 0.687514 0.171392
H26   H     H_    0.421355 0.878086 0.687467 0.165934
H27   H     H_    0.380422 0.122607 0.342865 0.133624
H28   H     H_    0.380432 0.876179 0.342813 0.133875
N1    N     N_3   0.500250 0.143650 0.502780 -0.241240
N2    N     N_3   0.500250 0.856350 0.502780 -0.241273
O1    O     O_R   0.317570 0.620260 0.500070 -0.526472
O2    O     O_R   0.317570 0.379740 0.500070 -0.525568
O3    O     O_R   0.499850 0.620240 0.316900 -0.523389
O4    O     O_R   0.499850 0.379760 0.316900 -0.526235
O5    O     O_R   0.682190 0.620260 0.500030 -0.486121
O6    O     O_R   0.682190 0.379740 0.500030 -0.485886
O7    O     O_R   0.499910 0.620280 0.683200 -0.466490
O8    O     O_R   0.499910 0.379720 0.683200 -0.461861

loop_
_geom_bond_atom_site_label_1
_geom_bond_atom_site_label_2
_ccdc_geom_bond_type
C22   H18   S    
C18   H9    S    
C23   H17   S    
C24   C25   S    
C15   H1    S    
Cu1   O5    S    
C9    O4    A    
C3    N1    S    
C11   C16   S    
C14   C18   S    
C2    C24   S    
Cu2   O6    S    
Cu2   O2    S    
C14   C15   S    
C13   C17   S    
C17   H8    S    
C8    H28   S    
C5    H4    S    
C4    N2    S    
C24   H21   S    
C10   O6    A    
C20   H11   S    
C4    F2    S    
C7    C8    S    
C2    C26   S    
C21   H13   S    
C1    O2    A    
C14   H7    S    
C1    C25   S    
C12   C13   S    
C3    H23   S    
C10   C26   S    
Cu1   N2    S    
C2    H22   S    
C2    H12   S    
C19   H10   S    
Cu2   O4    S    
C12   C19   S    
C7    N1    S    
C17   C19   S    
C12   C14   S    
C20   H14   S    
C21   H15   S    
C8    H3    S    
C13   C15   S    
C21   C23   S    
C24   H20   S    
C5    C6    S    
C9    C12   S    
C7    H27   S    
Cu2   N1    S    
Cu1   O7    S    
C20   C25   S    
C5    N1    S    
C3    C4    S    
C22   H16   S    
C6    N2    S    
C23   H19   S    
C6    H5    S    
C11   O7    A    
C13   H6    S    
C16   C18   S    
C18   C19   S    
C22   C26   S    
C23   C26   S    
C6    H26   S    
Cu1   Cu2   S    
C3    F1    S    
C21   C25   S    
C11   O8    A    
Cu1   O3    S    
C7    H2    S    
Cu1   O1    S    
C4    H24   S    
C9    O3    A    
C5    H25   S    
C8    N2    S    
C15   C16   S    
C20   C22   S    
C16   C17   S    
Cu2   O8    S    
C10   O5    A    
C1    O1    A    
