data_mof_unit_17237.cif
_audit_creation_date              2012-12-10T19:42:57-0500
_audit_creation_method            fapswitch 2.2
_symmetry_space_group_name_H-M    P1
_symmetry_Int_Tables_number       1
_space_group_crystal_system       triclinic
_cell_length_a                    10.828076
_cell_length_b                    13.013113
_cell_length_c                    11.649558
_cell_angle_alpha                 100.004237
_cell_angle_beta                  93.834515
_cell_angle_gamma                 90.533401
_cell_volume                      1612.56007136

loop_
_atom_site_label
_atom_site_type_symbol
_atom_type_description
_atom_site_fract_x
_atom_site_fract_y
_atom_site_fract_z
_atom_type_partial_charge
C1    C     C_R   0.498156 0.299044 0.478450 0.811424
C2    C     C_R   0.501871 0.984648 0.657150 -0.013935
C3    C     C_R   0.497174 0.123558 0.354818 -0.227960
C4    C     C_R   0.502830 0.876442 0.645182 -0.227960
C5    C     C_R   0.498010 0.139760 0.565368 -0.276960
C6    C     C_R   0.501994 0.860240 0.434632 -0.276956
C7    C     C_R   0.499944 0.031511 0.556317 0.106818
C8    C     C_R   0.500061 0.968489 0.443682 0.106819
C9    C     C_R   0.387568 0.398218 0.020751 -0.328286
C10   C     C_R   0.612433 0.601781 0.979248 -0.328285
C11   C     C_R   0.397746 0.408434 0.143248 0.114659
C12   C     C_R   0.501845 0.700956 0.521549 0.811425
C13   C     C_R   0.602255 0.591566 0.856751 0.114657
C14   C     C_R   0.547703 0.544648 0.157696 0.028220
C15   C     C_R   0.452297 0.455352 0.842303 0.028221
C16   C     C_R   0.262219 0.503218 0.500359 0.796547
C17   C     C_R   0.737781 0.496782 0.499641 0.796547
C18   C     C_R   0.540594 0.537157 0.034641 0.056891
C19   C     C_R   0.459407 0.462842 0.965359 0.056891
C20   C     C_R   0.230438 0.712378 0.244049 -0.110646
C21   C     C_R   0.769558 0.287608 0.755938 -0.110642
C22   C     C_R   0.178608 0.673468 0.335064 -0.104566
C23   C     C_R   0.871672 0.494315 0.499769 -0.080638
C24   C     C_R   0.821391 0.326523 0.664926 -0.104571
C25   C     C_R   0.107486 0.580326 0.311501 0.128957
C26   C     C_R   0.892513 0.419665 0.688496 0.128952
C27   C     C_R   0.087356 0.527854 0.195586 -0.161985
C28   C     C_R   0.912640 0.472132 0.804415 -0.161981
C29   C     C_R   0.139729 0.566925 0.104956 -0.150978
C30   C     C_R   0.860266 0.433056 0.895041 -0.150972
C31   C     C_R   0.211616 0.658862 0.129219 -0.096953
C32   C     C_R   0.788378 0.341118 0.870772 -0.096951
C33   C     C_R   0.926982 0.529870 0.408429 -0.239936
C34   C     C_R   0.128327 0.505684 0.500231 -0.080639
C35   C     C_R   0.073017 0.470129 0.591571 -0.239933
C36   C     C_1   0.496868 0.954844 0.226123 0.197419
C37   C     C_1   0.503143 0.045155 0.773876 0.197418
C38   C     C_R   0.945193 0.462900 0.592105 0.001801
C39   C     C_R   0.054806 0.537097 0.407895 0.001800
C40   C     C_R   0.502400 0.814285 0.534318 -0.075949
C41   C     C_R   0.497603 0.185715 0.465682 -0.075948
C42   C     C_R   0.498134 0.015352 0.342850 -0.013936
Cu1   Cu    Cu3+1 0.509250 0.507730 0.615930 0.944587
Cu2   Cu    Cu3+1 0.490750 0.492270 0.384070 0.944586
H1    H     H_    0.252605 0.688686 0.059038 0.138026
H2    H     H_    0.714806 0.215966 0.737503 0.132847
H3    H     H_    0.194555 0.715284 0.423794 0.106405
H4    H     H_    0.805445 0.284710 0.576193 0.106404
H5    H     H_    0.032798 0.455991 0.175783 0.124006
H6    H     H_    0.967198 0.543996 0.824223 0.124004
H7    H     H_    0.125349 0.525533 0.016001 0.130239
H8    H     H_    0.874644 0.474444 0.984000 0.130238
H9    H     H_    0.870372 0.555675 0.338858 0.152516
H10   H     H_    0.129627 0.444324 0.661142 0.152514
H11   H     H_    0.503318 0.811013 0.349666 0.163361
H12   H     H_    0.747387 0.311291 0.940951 0.138027
H13   H     H_    0.496686 0.188987 0.650334 0.163361
H14   H     H_    0.503641 0.840737 0.722707 0.166887
H15   H     H_    0.496364 0.159263 0.277293 0.166887
H16   H     H_    0.389847 0.398634 0.788145 0.118431
H17   H     H_    0.610153 0.601365 0.211855 0.118432
H18   H     H_    0.658046 0.641625 0.814864 0.125234
H19   H     H_    0.341955 0.358374 0.185136 0.125234
H20   H     H_    0.323954 0.340336 0.969927 0.144856
H21   H     H_    0.676047 0.659663 0.030073 0.144858
H22   H     H_    0.285190 0.784019 0.262479 0.132847
N1    N     N_R   0.523180 0.519350 0.790130 -0.179505
N2    N     N_R   0.476820 0.480650 0.209870 -0.179505
N3    N     N_1   0.495759 0.906401 0.132789 -0.293623
N4    N     N_1   0.504257 0.093598 0.867211 -0.293624
O1    O     O_R   0.506570 0.354460 0.582000 -0.589240
O2    O     O_R   0.493430 0.645540 0.418000 -0.589241
O3    O     O_R   0.490940 0.341410 0.386200 -0.593356
O4    O     O_R   0.509060 0.658590 0.613800 -0.593355
O5    O     O_R   0.327460 0.506540 0.597900 -0.591396
O6    O     O_R   0.672540 0.493460 0.402100 -0.591397
O7    O     O_R   0.311830 0.493480 0.402100 -0.574222
O8    O     O_R   0.688170 0.506520 0.597900 -0.574222

loop_
_geom_bond_atom_site_label_1
_geom_bond_atom_site_label_2
_ccdc_geom_bond_type
C3    C42   A    
C12   O4    A    
C27   C29   A    
C16   O5    A    
C15   H16   S    
C14   C18   A    
C36   C42   S    
C2    C7    A    
C6    H11   S    
C7    C8    A    
C36   N3    T    
Cu1   O8    S    
C15   C19   A    
C33   C39   A    
C20   H22   S    
Cu2   O7    S    
C24   C26   A    
C18   C19   A    
C11   H19   S    
C13   N1    A    
C9    H20   S    
C34   C35   A    
Cu2   O6    S    
C5    C41   A    
C16   C34   S    
C28   H6    S    
C9    C19   A    
C13   H18   S    
C4    C40   A    
C23   C33   A    
C22   C25   A    
C17   O6    A    
Cu1   O4    S    
C22   H3    S    
C12   O2    A    
C37   N4    T    
C35   H10   S    
Cu1   O5    S    
C33   H9    S    
C10   C18   A    
C21   C32   A    
C34   C39   A    
C24   H4    S    
C35   C38   A    
C5    C7    A    
C26   C38   S    
C6    C8    A    
C14   H17   S    
C12   C40   S    
C2    C4    A    
Cu1   Cu2   S    
C15   N1    A    
C17   C23   S    
C9    C11   A    
C1    C41   S    
C20   C22   A    
C6    C40   A    
Cu2   N2    S    
C11   N2    A    
C21   H2    S    
C29   H7    S    
C10   H21   S    
C30   H8    S    
C3    C41   A    
Cu1   O1    S    
C8    C42   A    
C10   C13   A    
C25   C27   A    
C23   C38   A    
C26   C28   A    
C5    H13   S    
C1    O3    A    
C28   C30   A    
C29   C31   A    
C25   C39   S    
C30   C32   A    
C2    C37   S    
C1    O1    A    
C17   O8    A    
Cu2   O2    S    
Cu2   O3    S    
Cu1   N1    S    
C31   H1    S    
C21   C24   A    
C4    H14   S    
C14   N2    A    
C16   O7    A    
C32   H12   S    
C27   H5    S    
C20   C31   A    
C3    H15   S    
