data_mof_unit_6808.cif
_audit_creation_date              2012-12-11T20:46:38-0500
_audit_creation_method            fapswitch 2.2
_symmetry_space_group_name_H-M    P1
_symmetry_Int_Tables_number       1
_space_group_crystal_system       triclinic
_cell_length_a                    8.413534
_cell_length_b                    18.883745
_cell_length_c                    18.780192
_cell_angle_alpha                 101.621086
_cell_angle_beta                  93.976914
_cell_angle_gamma                 91.799405
_cell_volume                      2912.43269377

loop_
_atom_site_label
_atom_site_type_symbol
_atom_type_description
_atom_site_fract_x
_atom_site_fract_y
_atom_site_fract_z
_atom_type_partial_charge
Ba1   Ba    Ba6+2 0.153490 0.533960 0.468530 1.755146
Ba2   Ba    Ba6+2 0.656680 0.466030 0.531410 1.814775
C1    C     C_3   0.358837 0.732832 0.219978 -0.319770
C2    C     C_3   0.398563 0.706947 0.290422 0.309931
C3    C     C_3   0.510188 0.688554 0.647874 0.314708
C4    C     C_3   0.505426 0.770565 0.668590 -0.297447
C5    C     C_3   0.916919 0.283081 0.727636 0.260608
C6    C     C_3   0.831491 0.208763 0.713465 -0.293085
C7    C     C_3   0.416361 0.331448 0.740664 0.709280
C8    C     C_3   0.524084 0.357295 0.811872 -0.271569
C9    C     C_R   0.971871 0.961841 0.562889 0.101728
C10   C     C_R   0.076367 0.909255 0.578833 0.038033
C11   C     C_R   0.150289 0.071296 0.626356 0.418287
C12   C     C_3   0.928530 0.731278 0.328815 0.347182
C13   C     C_R   0.017607 0.038069 0.577343 0.001912
C14   C     C_R   0.211861 0.140404 0.621707 -0.039863
C15   C     C_R   0.138988 0.181583 0.575176 -0.121695
C16   C     C_R   0.990213 0.155501 0.537257 -0.005256
C17   C     C_R   0.929607 0.083360 0.538304 0.003165
C18   C     C_R   0.213763 0.245770 0.561431 -0.059088
C19   C     C_R   0.135031 0.279908 0.509000 0.163887
C20   C     C_R   0.971137 0.268923 0.487486 0.016472
C21   C     C_R   0.905774 0.199780 0.494724 -0.065357
C22   C     C_R   0.822024 0.935801 0.525476 -0.011850
C23   C     C_3   0.952386 0.803724 0.306460 -0.299302
C24   C     C_R   0.775440 0.860044 0.514776 0.005997
C25   C     C_R   0.878046 0.810301 0.540519 -0.033525
C26   C     C_R   0.026956 0.837341 0.574063 -0.056324
C27   C     C_R   0.770548 0.168578 0.451871 0.080348
C28   C     C_R   0.720104 0.097394 0.449014 0.041773
C29   C     C_R   0.785921 0.055504 0.496190 0.034306
C30   C     C_R   0.721200 0.984260 0.496650 -0.051786
C31   C     C_R   0.563236 0.957241 0.467372 0.403858
C32   C     C_R   0.625849 0.834114 0.478770 -0.093672
C33   C     C_R   0.522979 0.883399 0.456671 -0.104060
C34   C     C_3   0.744956 0.297329 0.285316 0.880933
C35   C     C_R   0.579906 0.759661 0.467783 0.002942
C36   C     C_R   0.683736 0.711446 0.491520 -0.293946
C37   C     C_R   0.830778 0.734980 0.529113 0.028632
C38   C     C_2   0.575669 0.544608 0.310485 -0.244303
C39   C     C_3   0.672633 0.586020 0.265317 -0.072243
C40   C     C_2   0.627009 0.565970 0.184916 -0.106159
C41   C     C_2   0.490885 0.526564 0.159170 -0.061287
C42   C     C_2   0.395417 0.496832 0.212019 -0.182957
C43   C     C_1   0.454107 0.499074 0.280236 0.081659
C44   C     C_R   0.333453 0.503910 0.937032 0.462443
C45   C     C_3   0.615619 0.236602 0.283562 0.341207
C46   C     C_R   0.434829 0.517097 0.080495 0.464861
C47   C     C_R   0.378045 0.526196 0.812065 -0.148178
C48   C     C_R   0.333004 0.517398 0.737498 -0.006924
C49   C     C_R   0.092833 0.449109 0.753307 0.014819
C50   C     C_R   0.137375 0.458069 0.828089 -0.076212
C51   C     C_R   0.281799 0.495907 0.858195 -0.062150
C52   C     C_R   0.192274 0.477578 0.708323 -0.281444
C53   C     C_3   0.013585 0.627761 0.691715 0.315258
C54   C     C_3   0.059849 0.651826 0.773462 0.260978
C55   C     C_3   0.271923 0.327676 0.230160 0.200855
C56   C     C_3   0.369705 0.328285 0.164691 -0.397181
H1    H     H_    0.360532 0.648810 0.281463 0.064588
H2    H     H_    0.518088 0.240458 0.242521 0.063621
H3    H     H_    0.561575 0.244136 0.336115 0.054601
H4    H     H_    0.118294 0.604053 0.664861 -0.089043
H5    H     H_    0.914103 0.586262 0.682925 0.065786
H6    H     H_    0.165750 0.690062 0.782268 0.034245
H7    H     H_    0.090917 0.604352 0.796815 -0.031236
H8    H     H_    0.167424 0.361109 0.226895 0.108621
H9    H     H_    0.222988 0.271636 0.225158 0.176394
H10   H     H_    0.229151 0.724194 0.203786 0.157495
H11   H     H_    0.487604 0.356822 0.181383 0.172734
H12   H     H_    0.304408 0.355179 0.124889 0.122504
H13   H     H_    0.386444 0.271979 0.136009 0.186861
H14   H     H_    0.529335 0.714803 0.303646 -0.041474
H15   H     H_    0.425607 0.701972 0.175819 0.085686
H16   H     H_    0.634983 0.673810 0.638986 0.027815
H17   H     H_    0.433155 0.670271 0.596489 0.032042
H18   H     H_    0.579540 0.791296 0.720250 0.198422
H19   H     H_    0.552126 0.795438 0.625092 0.057878
H20   H     H_    0.380663 0.786520 0.675803 0.108310
H21   H     H_    0.392827 0.791320 0.227398 0.144764
H22   H     H_    0.914897 0.847796 0.349834 0.089780
H23   H     H_    0.995746 0.284096 0.682616 0.015154
H24   H     H_    0.985681 0.291828 0.781281 0.068075
H25   H     H_    0.761666 0.198383 0.659739 0.156588
H26   H     H_    0.919870 0.166318 0.713026 0.078006
H27   H     H_    0.749797 0.205562 0.756796 0.146134
H28   H     H_    0.394635 0.380437 0.718862 -0.028953
H29   H     H_    0.451629 0.375894 0.858499 0.059602
H30   H     H_    0.602703 0.403934 0.808017 0.131110
H31   H     H_    0.999672 0.732736 0.381194 0.092509
H32   H     H_    0.597707 0.313074 0.824741 0.112705
H33   H     H_    0.320271 0.161236 0.654301 0.133932
H34   H     H_    0.111036 0.803120 0.594660 0.114683
H35   H     H_    0.709035 0.196416 0.414968 0.102419
H36   H     H_    0.405576 0.865097 0.431891 0.161974
H37   H     H_    0.645645 0.655003 0.483933 0.051677
H38   H     H_    0.200835 0.921868 0.592794 0.163192
H39   H     H_    0.633489 0.074356 0.405837 0.183902
H40   H     H_    0.800038 0.724762 0.337584 -0.091436
H41   H     H_    0.698364 0.590020 0.149180 0.116632
H42   H     H_    0.273702 0.476729 0.195101 0.122135
H43   H     H_    0.487216 0.557188 0.833845 0.152017
H44   H     H_    0.058106 0.436842 0.862554 0.089611
H45   H     H_    0.598003 0.558831 0.369252 0.056968
H46   H     H_    0.155621 0.472194 0.651022 0.064507
H47   H     H_    0.079540 0.814166 0.298223 0.170508
H48   H     H_    0.879089 0.803852 0.254982 0.124226
N1    N     N_R   0.474243 0.539201 0.964523 -0.216388
N2    N     N_R   0.523515 0.545709 0.034502 -0.222521
N3    N     N_R   0.293841 0.481510 0.053144 -0.229618
N4    N     N_R   0.244386 0.474934 0.982848 -0.229468
O1    O     O_2   0.117290 0.676350 0.548250 -0.464913
O2    O     O_3   0.364415 0.345965 0.297875 -0.571903
O3    O     O_3   0.978564 0.675215 0.274513 -0.577781
O4    O     O_2   0.693010 0.323600 0.451730 -0.443956
O5    O     O_3   0.941240 0.413050 0.457220 -0.479525
O6    O     O_3   0.453310 0.371360 0.582690 -0.406272
O7    O     O_3   0.871947 0.292403 0.337043 -0.645906
O8    O     O_3   0.371310 0.539060 0.587050 -0.468686
O9    O     O_3   0.867330 0.408540 0.621000 -0.484308
O10   O     O_2   0.777662 0.473608 0.748669 -0.463595
O11   O     O_3   0.804230 0.336069 0.732083 -0.582704
O12   O     O_3   0.869060 0.586940 0.542720 -0.502159
O13   O     O_3   0.438990 0.460930 0.412890 -0.390630
O14   O     O_2   0.623700 0.539890 0.674570 -0.430496
O15   O     O_3   0.455074 0.658616 0.704772 -0.607151
O16   O     O_2   0.546971 0.239293 0.555042 -0.434326
O17   O     O_3   0.492984 0.281108 0.689948 -0.605612
O18   O     O_3   0.356990 0.628630 0.417250 -0.489801
O19   O     O_2   0.254506 0.755562 0.479975 -0.491773
O20   O     O_3   0.968125 0.687976 0.663810 -0.621760
O21   O     O_3   0.316471 0.746997 0.346206 -0.594410
O22   O     O_2   0.186600 0.460070 0.325400 -0.514306
O23   O     O_3   0.942970 0.591450 0.378940 -0.495430
O24   O     O_2   0.988620 0.533510 0.242165 -0.470190
P1    P     P_3+3 0.945300 0.665790 0.568510 0.983923
P2    P     P_3+3 0.360080 0.438780 0.334620 1.119897
P3    P     P_3+3 0.895033 0.593443 0.288198 0.958739
P4    P     P_3+3 0.865000 0.334200 0.431430 1.059694
P5    P     P_3+3 0.890658 0.415625 0.715186 0.956007
P6    P     P_3+3 0.379298 0.722508 0.428293 0.938667
P7    P     P_3+3 0.445866 0.564091 0.678347 1.006643
P8    P     P_3+3 0.422226 0.283384 0.599805 1.072363
S1    S     S_3+6 0.679155 0.145147 0.259634 -0.015662
O25   O     O_2   0.841843 0.138184 0.295307 -0.262576
O26   O     O_2   0.560171 0.096114 0.284242 -0.273907
O27   O     O_3   0.683090 0.119034 0.168781 -0.414985
H49   H     H_    0.719888 0.068937 0.160938 0.380177
S2    S     S_3+6 0.901422 0.694555 0.821907 -0.015062
O28   O     O_2   0.755633 0.644358 0.808742 -0.256870
O29   O     O_2   0.951384 0.711919 0.902116 -0.243672
O30   O     O_3   0.858309 0.771458 0.794070 -0.476021
H50   H     H_    0.960588 0.800343 0.801128 0.342002
O31   O     O_3   0.267483 0.301756 0.753686 -0.744421
C57   C     C_3   0.284412 0.248486 0.796543 0.107092
H51   H     H_    0.392919 0.216928 0.786394 0.129281
H52   H     H_    0.178810 0.210599 0.783741 0.116078
H53   H     H_    0.285684 0.273880 0.855290 0.072704
S3    S     S_3+6 0.248747 0.310884 0.447432 -0.057469
O32   O     O_2   0.260861 0.391081 0.472571 -0.298830
O33   O     O_2   0.409288 0.280023 0.444198 -0.271095
O34   O     O_3   0.161522 0.285604 0.363654 -0.494092
H54   H     H_    0.130263 0.331807 0.351364 0.339607
S4    S     S_3+6 0.236899 0.033670 0.699493 -0.095096
O35   O     O_2   0.386043 0.996646 0.676175 -0.294243
O36   O     O_2   0.283230 0.091538 0.765339 -0.308175
O37   O     O_3   0.107965 0.975057 0.724717 -0.523143
H55   H     H_    0.174739 0.945788 0.752179 0.369514
S5    S     S_3+6 0.397799 0.010076 0.450782 -0.087799
O38   O     O_2   0.379568 0.011852 0.370947 -0.248956
O39   O     O_2   0.247818 0.975170 0.469281 -0.324232
O40   O     O_3   0.419226 0.094544 0.500840 -0.533564
H56   H     H_    0.366015 0.125056 0.470054 0.374562
O41   O     O_3   0.676428 0.365219 0.302093 -0.747119
C58   C     C_3   0.790345 0.422661 0.306810 0.254087
H57   H     H_    0.916476 0.407724 0.308694 0.081479
H58   H     H_    0.767528 0.446635 0.258399 0.066809
H59   H     H_    0.777722 0.462761 0.357573 0.027441
S6    S     S_3+6 0.820553 0.282204 0.194231 -0.061269
O42   O     O_2   0.892558 0.349511 0.176051 -0.365027
O43   O     O_2   0.945370 0.226701 0.190264 -0.230108
O44   O     O_3   0.673784 0.250413 0.129354 -0.520326
H60   H     H_    0.727040 0.239636 0.083228 0.384917

loop_
_geom_bond_atom_site_label_1
_geom_bond_atom_site_label_2
_ccdc_geom_bond_type
S1    O27   S    
O40   H56   S    
O23   P3    S    
C32   C35   A    
Ba2   O4    S    
C19   S3    S    
C1    H10   S    
Ba1   O18   S    
C55   H8    S    
C53   C54   S    
Ba1   O22   S    
C17   C29   A    
O24   P3    D    
Ba1   O13   S    
O34   H54   S    
Ba2   O8    S    
C23   H47   S    
C5    C6    S    
C37   P1    S    
O41   C58   S    
C42   C43   D    
C13   C17   A    
C28   H39   S    
C50   H44   S    
C24   C25   A    
C7    O17   S    
C10   C26   A    
C3    C4    S    
C21   C27   A    
C52   H46   S    
S4    O36   D    
O2    P2    S    
C32   C33   A    
C47   H43   S    
C28   C29   A    
C56   H13   S    
C4    H20   S    
C55   O2    S    
C54   H7    S    
C23   H22   S    
C53   H4    S    
C45   S1    S    
C9    C22   A    
C15   C18   A    
C2    H1    S    
C34   C45   S    
Ba1   Ba2   S    
C39   C40   S    
C3    H16   S    
Ba1   O12   S    
O21   P6    S    
S3    O34   S    
C45   H2    S    
C58   H57   S    
S4    O35   D    
Ba2   O6    S    
C24   C32   A    
S5    O40   S    
O20   P1    S    
O15   P7    S    
C14   C15   A    
C35   P6    S    
C53   H5    S    
C36   H37   S    
O30   H50   S    
C54   H6    S    
C11   S4    S    
C3    H17   S    
Ba1   P2    S    
C7    C8    S    
C57   H52   S    
C48   P7    S    
O8    P7    S    
S5    O39   D    
C46   N3    A    
C7    O31   S    
C34   O41   S    
C19   C20   A    
S3    O33   D    
O37   H55   S    
C9    C13   A    
C55   H9    S    
Ba1   O23   S    
C23   H48   S    
C12   H40   S    
C2    O21   S    
Ba2   O12   S    
C38   C43   D    
C8    H29   S    
C16   C21   A    
Ba2   P4    S    
S6    O42   D    
S4    O37   S    
C34   S6    S    
S2    O28   D    
C57   H53   S    
C25   C37   A    
C16   C17   A    
C4    H19   S    
O44   H60   S    
C6    H27   S    
C49   C50   A    
O17   P8    S    
C36   C37   A    
C54   S2    S    
C41   C42   S    
C22   C30   A    
C12   H31   S    
C35   C36   A    
C18   P8    S    
C7    H28   S    
Ba2   O5    S    
C5    O11   S    
C29   C30   A    
O5    P4    S    
O22   P2    D    
C53   O20   S    
C8    H30   S    
C44   N1    A    
C15   C16   A    
C26   H34   S    
O10   P5    D    
C48   C52   A    
C34   O7    S    
C58   H59   S    
C57   H51   S    
O6    P8    S    
S5    O38   D    
C5    H23   S    
C11   C13   A    
S3    O32   D    
O3    P3    S    
O14   P7    D    
C31   S5    S    
C40   C41   D    
N1    N2    A    
C1    C2    S    
C2    H14   S    
C50   C51   A    
O27   H49   S    
C41   C46   S    
C33   H36   S    
S1    O26   D    
C38   C39   S    
C43   P2    S    
C6    H26   S    
C39   P3    S    
C56   H12   S    
C22   C24   A    
C6    H25   S    
S2    O29   D    
O7    P4    S    
C45   H3    S    
S6    O43   D    
Ba2   O9    S    
C56   H11   S    
C4    H18   S    
Ba2   O14   S    
C12   O3    S    
C20   P4    S    
O13   P2    S    
C49   C52   A    
O9    P5    S    
C30   C31   A    
O11   P5    S    
C44   N4    A    
O18   P6    S    
S2    O30   S    
Ba1   P1    S    
C40   H41   S    
Ba1   O1    S    
C38   H45   S    
C27   H35   S    
C42   H42   S    
O1    P1    D    
C55   C56   S    
C46   N2    A    
O19   P6    D    
C47   C51   A    
C44   C51   S    
C31   C33   A    
O16   P8    D    
Ba1   O8    S    
O4    P4    D    
C12   C23   S    
C1    H15   S    
C58   H58   S    
O12   P1    S    
S6    O44   S    
C27   C28   A    
C1    H21   S    
C5    H24   S    
C18   C19   A    
C8    H32   S    
C14   H33   S    
C47   C48   A    
C11   C14   A    
C3    O15   S    
C25   C26   A    
C20   C21   A    
C10   H38   S    
Ba1   O5    S    
O31   C57   S    
N3    N4    A    
Ba2   O13   S    
S1    O25   D    
C9    C10   A    
C49   P5    S    
