data_mof_unit_21814.cif
_audit_creation_date              2012-12-11T17:19:18-0500
_audit_creation_method            fapswitch 2.2
_symmetry_space_group_name_H-M    P1
_symmetry_Int_Tables_number       1
_space_group_crystal_system       triclinic
_cell_length_a                    14.654163
_cell_length_b                    7.263343
_cell_length_c                    13.480342
_cell_angle_alpha                 89.992244
_cell_angle_beta                  99.871043
_cell_angle_gamma                 89.999393
_cell_volume                      1413.58249468

loop_
_atom_site_label
_atom_site_type_symbol
_atom_type_description
_atom_site_fract_x
_atom_site_fract_y
_atom_site_fract_z
_atom_type_partial_charge
O1    O     O_R   0.648180 0.355050 0.151550 -0.535859
O2    O     O_R   0.351820 0.644950 0.848450 -0.535858
O3    O     O_R   0.851820 0.855050 0.348450 -0.535864
O4    O     O_R   0.148180 0.144950 0.651550 -0.535864
O5    O     O_R   0.835240 0.681980 0.154280 -0.539752
O6    O     O_R   0.164760 0.318020 0.845720 -0.539752
O7    O     O_R   0.664760 0.181980 0.345720 -0.539734
O8    O     O_R   0.335240 0.818020 0.654280 -0.539733
H1    H     H_    0.667089 0.798667 0.816471 0.122394
H2    H     H_    0.332911 0.201333 0.183529 0.122394
H3    H     H_    0.832915 0.298673 0.683586 0.122379
H4    H     H_    0.167085 0.701327 0.316414 0.122379
C1    C     C_R   0.863650 0.516217 0.133227 0.679738
C2    C     C_R   0.136350 0.483783 0.866773 0.679739
C3    C     C_R   0.636354 0.016204 0.366776 0.679743
C4    C     C_R   0.363646 0.983796 0.633224 0.679743
O9    O     O_R   0.647870 0.684600 0.139630 -0.534541
O10   O     O_R   0.352130 0.315400 0.860370 -0.534541
O11   O     O_R   0.852130 0.184600 0.360370 -0.534530
O12   O     O_R   0.147870 0.815400 0.639630 -0.534530
O13   O     O_R   0.663110 0.857440 0.333700 -0.531721
O14   O     O_R   0.336890 0.142560 0.666300 -0.531721
O15   O     O_R   0.836890 0.357440 0.166300 -0.531720
O16   O     O_R   0.163110 0.642560 0.833700 -0.531720
C5    C     C_R   0.615066 0.515985 0.113188 0.718194
C6    C     C_R   0.384934 0.484015 0.886812 0.718194
C7    C     C_R   0.884933 0.015972 0.386811 0.718179
C8    C     C_R   0.115067 0.984028 0.613189 0.718179
H5    H     H_    0.507430 0.879073 0.754944 0.127611
H6    H     H_    0.492570 0.120927 0.245056 0.127611
H7    H     H_    0.992577 0.378981 0.745108 0.127608
H8    H     H_    0.007423 0.621019 0.254891 0.127608
O17   O     O_3   0.755220 0.522230 0.313690 -0.375663
O18   O     O_3   0.244780 0.477770 0.686310 -0.375663
O19   O     O_3   0.744780 0.022230 0.186310 -0.375674
O20   O     O_3   0.255220 0.977770 0.813690 -0.375674
V1    V     V_3+5 0.749030 0.796100 0.238190 1.444559
V2    V     V_3+5 0.250970 0.203900 0.761810 1.444559
V3    V     V_3+5 0.750970 0.296100 0.261810 1.444572
V4    V     V_3+5 0.249030 0.703900 0.738190 1.444572
C9    C     C_1   0.966026 0.005343 0.466769 -0.151450
C10   C     C_1   0.033974 0.994657 0.533231 -0.151450
C11   C     C_1   0.533974 0.505358 0.033230 -0.151432
C12   C     C_1   0.466026 0.494642 0.966770 -0.151433
C13   C     C_R   0.555489 0.886831 0.702452 -0.168509
C14   C     C_R   0.444511 0.113169 0.297548 -0.168509
C15   C     C_R   0.944513 0.386787 0.797588 -0.168492
C16   C     C_R   0.055486 0.613213 0.202412 -0.168492
C17   C     C_R   0.647499 0.840732 0.738629 -0.163684
C18   C     C_R   0.352501 0.159268 0.261371 -0.163684
C19   C     C_R   0.852502 0.340736 0.761419 -0.163627
C20   C     C_R   0.147498 0.659264 0.238581 -0.163627
C21   C     C_R   0.713831 0.850244 0.675308 0.390799
C22   C     C_R   0.286169 0.149756 0.324692 0.390799
C23   C     C_R   0.786166 0.350316 0.824735 0.390801
C24   C     C_R   0.213834 0.649684 0.175265 0.390801
C25   C     C_R   0.686686 0.904964 0.575297 -0.165708
C26   C     C_R   0.313314 0.095036 0.424703 -0.165708
C27   C     C_R   0.813312 0.405034 0.924733 -0.165684
C28   C     C_R   0.186688 0.594966 0.075267 -0.165684
C29   C     C_R   0.593539 0.951156 0.536443 -0.012481
C30   C     C_R   0.406461 0.048844 0.463557 -0.012481
C31   C     C_R   0.906463 0.451179 0.963575 -0.012495
C32   C     C_R   0.093537 0.548821 0.036425 -0.012495
C33   C     C_R   0.526672 0.942658 0.601386 0.062511
C34   C     C_R   0.473327 0.057342 0.398614 0.062511
C35   C     C_R   0.973327 0.442636 0.898633 0.062507
C36   C     C_R   0.026673 0.557364 0.101367 0.062507
C37   C     C_R   0.566826 0.008037 0.434959 -0.129678
C38   C     C_R   0.433174 0.991963 0.565041 -0.129678
C39   C     C_R   0.933175 0.508071 0.065042 -0.129705
C40   C     C_R   0.066824 0.491929 0.934958 -0.129705
H9    H     H_    0.739862 0.911954 0.528752 0.120894
H10   H     H_    0.260138 0.088046 0.471247 0.120894
H11   H     H_    0.760136 0.412069 0.971279 0.120884
H12   H     H_    0.239864 0.587931 0.028721 0.120884
O21   O     O_3   0.194249 0.191824 0.291107 -0.647653
H13   H     H_    0.186122 0.225911 0.218864 0.289965
O22   O     O_3   0.805751 0.808176 0.708893 -0.647653
H14   H     H_    0.813877 0.774089 0.781136 0.289965
O23   O     O_3   0.305762 0.691650 0.208846 -0.647663
H15   H     H_    0.313856 0.726027 0.281037 0.289979
O24   O     O_3   0.694238 0.308350 0.791154 -0.647663
H16   H     H_    0.686144 0.273973 0.718963 0.289979

loop_
_geom_bond_atom_site_label_1
_geom_bond_atom_site_label_2
_ccdc_geom_bond_type
C26   C30   A    
O5    V1    S    
C9    C10   T    
O10   C6    A    
C5    C11   S    
O23   H15   S    
C6    C12   S    
C24   O23   S    
O21   H13   S    
C30   C38   A    
C18   C22   A    
O18   V4    S    
C32   C36   A    
C21   O22   S    
C14   C34   A    
C23   C27   A    
O12   V4    S    
C17   C21   A    
C34   C37   A    
C25   H9    S    
C33   C38   A    
O14   V2    S    
C1    O15   A    
C35   C40   A    
C2    O16   A    
O4    C8    A    
O17   V3    S    
O6    V2    S    
O11   C7    A    
O5    C1    A    
C22   O21   S    
O7    C3    A    
O8    C4    A    
H7    C15   S    
O1    C5    A    
H8    C16   S    
C15   C35   A    
H4    C20   S    
C3    C37   S    
C31   C35   A    
C30   C34   A    
H1    C17   S    
C21   C25   A    
C15   C19   A    
C1    C39   S    
C28   H12   S    
C24   C28   A    
H5    C13   S    
C11   C12   T    
C29   C33   A    
O6    C2    A    
C7    C9    S    
O24   H16   S    
C13   C17   A    
C4    C38   S    
O2    C6    A    
O9    V1    S    
C16   C36   A    
O11   V3    S    
O4    V2    S    
C13   C33   A    
C23   O24   S    
H2    C18   S    
C27   H11   S    
C26   H10   S    
C22   C26   A    
C29   C37   A    
C4    O14   A    
C8    C10   S    
O19   V1    S    
C2    C40   S    
H6    C14   S    
C31   C39   A    
C25   C29   A    
O12   C8    A    
C14   C18   A    
C27   C31   A    
C28   C32   A    
O9    C5    A    
O3    C7    A    
O10   V2    S    
C3    O13   A    
C36   C39   A    
O15   V3    S    
O20   V2    S    
O16   V4    S    
C19   C23   A    
C32   C40   A    
H3    C19   S    
O1    V3    S    
O22   H14   S    
O2    V4    S    
C16   C20   A    
O13   V1    S    
O3    V1    S    
O7    V3    S    
O8    V4    S    
C20   C24   A    
