data_mof_unit_27960.cif
_audit_creation_date              2012-12-10T16:51:33-0500
_audit_creation_method            fapswitch 2.2
_symmetry_space_group_name_H-M    P1
_symmetry_Int_Tables_number       1
_space_group_crystal_system       triclinic
_cell_length_a                    7.814342
_cell_length_b                    8.57536
_cell_length_c                    12.61077
_cell_angle_alpha                 92.449056
_cell_angle_beta                  102.605387
_cell_angle_gamma                 93.928636
_cell_volume                      821.305495527

loop_
_atom_site_label
_atom_site_type_symbol
_atom_type_description
_atom_site_fract_x
_atom_site_fract_y
_atom_site_fract_z
_atom_type_partial_charge
C1    C     C_R   0.044377 0.794595 0.497238 0.957267
C2    C     C_R   0.191019 0.590409 0.820368 -0.130220
C3    C     C_2   0.067584 0.958173 0.495761 -0.378279
C4    C     C_R   0.114856 0.532150 0.706977 0.864565
C5    C     C_2   0.932606 0.041857 0.504604 -0.385052
C6    C     C_R   0.955697 0.205428 0.502900 0.978953
C7    C     C_R   0.889650 0.486979 0.292077 0.875629
C8    C     C_R   0.855029 0.403740 0.995806 -0.185345
C9    C     C_R   0.826163 0.477376 0.176261 -0.053918
C10   C     C_R   0.083830 0.653293 0.884081 -0.217424
C11   C     C_R   0.147341 0.683213 0.995463 -0.119922
C12   C     C_R   0.428554 0.586047 0.981242 0.077838
C13   C     C_R   0.314218 0.642050 0.044983 -0.196991
C14   C     C_R   0.371820 0.580352 0.867393 0.096049
C15   C     C_R   0.596346 0.533031 0.024882 0.078188
C16   C     C_R   0.698631 0.472211 0.954505 0.163486
C17   C     C_R   0.650352 0.492212 0.844425 -0.281362
C18   C     C_R   0.498511 0.562360 0.804553 -0.183662
C19   C     C_R   0.665631 0.537537 0.135656 -0.270577
C20   C     C_R   0.919601 0.406945 0.107192 -0.208128
H1    H     H_    0.042984 0.357376 0.139083 0.162500
H2    H     H_    0.194930 0.009182 0.487356 0.178960
H3    H     H_    0.528645 0.640721 0.566082 0.172666
H4    H     H_    0.930658 0.354031 0.942039 0.152192
H5    H     H_    0.805277 0.990843 0.513040 0.178282
H6    H     H_    0.471409 0.366279 0.426463 0.190367
H7    H     H_    0.733890 0.461119 0.790173 0.186136
H8    H     H_    0.599047 0.591274 0.192136 0.160755
H9    H     H_    0.950595 0.677992 0.848047 0.164082
H10   H     H_    0.348711 0.656327 0.132476 0.135087
H11   H     H_    0.062893 0.729867 0.044586 0.155483
H12   H     H_    0.484165 0.605019 0.725094 0.171305
N1    N     N_2   0.434800 0.456690 0.470850 -0.176180
N2    N     N_2   0.565200 0.543310 0.529150 -0.182927
O1    O     O_R   0.893060 0.738880 0.507150 -0.615736
O2    O     O_R   0.172250 0.711130 0.488470 -0.636566
O3    O     O_R   0.944700 0.520730 0.667600 -0.630626
O4    O     O_R   0.223890 0.492980 0.648920 -0.622873
O5    O     O_R   0.827750 0.288870 0.511530 -0.626291
O6    O     O_R   0.106940 0.261120 0.492850 -0.608972
O7    O     O_R   0.776110 0.507020 0.351080 -0.628470
O8    O     O_R   0.055300 0.479270 0.332400 -0.623281
Zn1   Zn    Zn3+2 0.813580 0.518530 0.512470 0.928371
Zn2   Zn    Zn3+2 0.186420 0.481470 0.487530 0.934640

loop_
_geom_bond_atom_site_label_1
_geom_bond_atom_site_label_2
_ccdc_geom_bond_type
O3    Zn1   S    
C2    C4    S    
O4    Zn2   S    
O1    Zn1   S    
C14   C18   A    
C9    C20   A    
C12   C15   A    
O6    Zn2   S    
H3    N2    S    
N1    N2    D    
C11   H11   S    
C8    C16   A    
C20   H1    S    
C15   C19   A    
C19   H8    S    
O7    Zn1   S    
C10   H9    S    
C8    C20   A    
O8    Zn2   S    
C5    H5    S    
C8    H4    S    
C12   C14   A    
C17   C18   A    
C7    O7    A    
C5    C6    S    
C2    C14   A    
C6    O6    A    
O2    Zn2   S    
C18   H12   S    
C10   C11   A    
C15   C16   A    
C2    C10   A    
C3    C5    D    
C13   H10   S    
C11   C13   A    
C4    O3    A    
C1    O1    A    
C7    O8    A    
C7    C9    S    
C6    O5    A    
C3    H2    S    
O5    Zn1   S    
H6    N1    S    
C12   C13   A    
N1    Zn2   S    
C9    C19   A    
N2    Zn1   S    
C1    O2    A    
C4    O4    A    
C16   C17   A    
C1    C3    S    
C17   H7    S    
