data_mof_unit_59453.cif
_audit_creation_date              2013-03-05T16:44:17-0500
_audit_creation_method            fapswitch 2.2
_symmetry_space_group_name_H-M    P1
_symmetry_Int_Tables_number       1
_space_group_crystal_system       triclinic
_cell_length_a                    23.335651
_cell_length_b                    10.728401
_cell_length_c                    9.996936
_cell_angle_alpha                 89.29183
_cell_angle_beta                  89.845784
_cell_angle_gamma                 91.098573
_cell_volume                      2502.11322627

loop_
_atom_site_label
_atom_site_type_symbol
_atom_site_description
_atom_site_fract_x
_atom_site_fract_y
_atom_site_fract_z
_atom_type_partial_charge
O1    O     O_R   0.500010 0.316790 0.614690 -0.637580
O2    O     O_R   0.500000 0.316760 0.385350 -0.576663
C1    C     C_R   0.501556 0.260071 0.500692 0.951449
O3    O     O_R   0.416160 0.499980 0.614700 -0.618750
O4    O     O_R   0.416150 0.499940 0.385360 -0.630252
C2    C     C_R   0.389784 0.504231 0.499113 0.868856
Zn1   Zn    Zn3+2 0.500000 0.500020 0.653130 1.017121
Zn2   Zn    Zn3+2 0.500000 0.499980 0.346870 1.020846
O5    O     O_R   0.500000 0.683240 0.614650 -0.588086
O6    O     O_R   0.499990 0.683210 0.385310 -0.628939
O7    O     O_R   0.583850 0.500060 0.614640 -0.547373
O8    O     O_R   0.583840 0.500020 0.385300 -0.592957
C3    C     C_R   0.502494 0.739266 0.499341 0.873866
C4    C     C_R   0.610503 0.499390 0.498944 0.967097
C5    C     C_R   0.880607 0.608380 0.393982 0.562960
N1    N     N_R   0.852530 0.498846 0.426782 -0.331276
C6    C     C_R   0.881546 0.389662 0.441622 0.521248
C7    C     C_R   0.941080 0.388733 0.426342 -0.049517
C8    C     C_R   0.970877 0.502559 0.407462 -0.026008
C9    C     C_R   0.940451 0.613838 0.391302 -0.016171
C10   C     C_R   0.971305 0.277419 0.434538 -0.226185
C11   C     C_R   0.031191 0.278154 0.428703 0.216868
C12   C     C_R   0.061770 0.393526 0.416957 -0.053396
C13   C     C_R   0.031134 0.505648 0.407771 -0.060907
C14   C     C_R   0.060524 0.621583 0.401787 0.007011
C15   C     C_R   0.029851 0.732043 0.385086 -0.161834
C16   C     C_R   0.970351 0.727905 0.376983 -0.163518
C17   C     C_R   0.121965 0.401831 0.415677 0.503905
N2    N     N_R   0.149413 0.515520 0.425291 -0.357339
C18   C     C_R   0.119916 0.624482 0.417549 0.503181
O9    O     O_2   0.850651 0.711842 0.365944 -0.553657
O10   O     O_2   0.853040 0.282859 0.474305 -0.549505
H1    H     H_    0.948632 0.188981 0.447713 0.193614
O11   O     O_2   0.153153 0.297852 0.404455 -0.526223
O12   O     O_2   0.147762 0.735331 0.428327 -0.559708
H2    H     H_    0.051674 0.821973 0.378645 0.185819
H3    H     H_    0.947853 0.814671 0.364689 0.189095
C19   C     C_R   0.246532 0.593092 0.368419 -0.082883
H4    H     H_    0.229719 0.647974 0.286374 0.168970
C20   C     C_R   0.305188 0.594051 0.391258 -0.224588
H5    H     H_    0.332951 0.650908 0.327231 0.162415
C21   C     C_R   0.328112 0.517308 0.491511 -0.036105
C22   C     C_R   0.292031 0.441846 0.569670 -0.250144
H6    H     H_    0.309822 0.374255 0.636595 0.179878
C23   C     C_R   0.233114 0.445982 0.552640 -0.096248
H7    H     H_    0.205595 0.387760 0.615708 0.151953
C24   C     C_R   0.209987 0.519429 0.449544 0.286360
C25   C     C_R   0.756673 0.418322 0.376464 -0.208526
H8    H     H_    0.775587 0.357717 0.303293 0.212063
C26   C     C_R   0.698100 0.410792 0.400705 0.233637
C27   C     C_R   0.673062 0.494229 0.491375 -0.212607
C28   C     C_R   0.707748 0.582182 0.559042 0.098206
C29   C     C_R   0.767818 0.578322 0.545044 0.201531
C30   C     C_R   0.791800 0.498823 0.449587 0.183782
C31   C     C_R   0.513615 0.059989 0.620236 -0.022729
C32   C     C_R   0.509820 0.127962 0.501119 -0.053990
C33   C     C_R   0.518629 0.065781 0.380226 -0.068463
H9    H     H_    0.522247 0.114911 0.286649 0.250659
C34   C     C_R   0.518798 0.936892 0.378419 -0.226109
H10   H     H_    0.519980 0.890687 0.283001 0.181293
C35   C     C_R   0.512472 0.870309 0.498872 -0.077196
C36   C     C_R   0.516923 0.933092 0.619145 0.037704
C37   C     C_3   0.486341 0.914300 0.749437 -0.410531
C38   C     C_3   0.481646 0.056149 0.751250 0.428781
H11   H     H_    0.444600 0.863934 0.736887 0.209588
H12   H     H_    0.513799 0.871987 0.826988 0.217023
C39   C     C_R   0.451672 0.471714 0.071594 -0.005256
N3    N     N_R   0.499610 0.499140 0.142800 -0.105214
C40   C     C_R   0.546352 0.542031 0.071485 0.204974
C41   C     C_R   0.546739 0.539649 0.928044 0.311535
N4    N     N_R   0.499610 0.499180 0.857150 -0.177371
C42   C     C_R   0.450062 0.480051 0.930774 -0.034891
C43   C     C_3   0.408158 0.371579 0.925598 -0.058522
C44   C     C_3   0.416765 0.353379 0.076748 0.434210
H13   H     H_    0.423106 0.296597 0.860668 0.203605
N5    N     N_R   0.664603 0.317111 0.333352 0.230802
O13   O     O_R   0.676116 0.289177 0.209938 -0.378108
O14   O     O_R   0.628638 0.246781 0.400954 -0.417970
N6    N     N_2   0.682092 0.678130 0.634212 -0.230916
H14   H     H_    0.703413 0.701460 0.720771 0.273140
C45   C     C_3   0.666270 0.786221 0.555573 -0.680896
H15   H     H_    0.704851 0.830673 0.508545 0.235767
H16   H     H_    0.645598 0.855249 0.620990 0.260456
H17   H     H_    0.635256 0.759263 0.476697 0.214470
N7    N     N_2   0.804585 0.656022 0.623003 -0.288761
H18   H     H_    0.790540 0.745151 0.638560 0.243954
C46   C     C_3   0.826401 0.596489 0.742413 -0.739682
H19   H     H_    0.857154 0.660685 0.792604 0.244848
H20   H     H_    0.849283 0.510115 0.716568 0.255319
H21   H     H_    0.790674 0.573175 0.812663 0.257369
N8    N     N_R   0.421289 0.092078 0.744533 0.186291
O15   O     O_R   0.386715 0.057898 0.841053 -0.362181
O16   O     O_R   0.400051 0.144768 0.638225 -0.460992
N9    N     N_2   0.512766 0.120058 0.857840 -0.257407
H22   H     H_    0.511671 0.215494 0.846618 0.244515
C47   C     C_3   0.569706 0.079462 0.894928 -0.639308
H23   H     H_    0.591023 0.151414 0.957547 0.279918
H24   H     H_    0.596878 0.065611 0.805187 0.222858
H25   H     H_    0.566933 0.992690 0.956185 0.237392
N10   N     N_2   0.594384 0.591321 0.141110 -0.252814
H26   H     H_    0.632181 0.545550 0.125080 0.272459
C48   C     C_3   0.600484 0.725908 0.139671 -0.689106
H27   H     H_    0.611225 0.757841 0.241726 0.230174
H28   H     H_    0.560382 0.771592 0.107102 0.219060
H29   H     H_    0.635730 0.755700 0.070809 0.258574
N11   N     N_2   0.059832 0.162627 0.440919 -0.248748
H30   H     H_    0.039850 0.091004 0.389921 0.216286
C49   C     C_3   0.072789 0.126893 0.577390 -0.663208
H31   H     H_    0.032524 0.109238 0.634807 0.212742
H32   H     H_    0.098517 0.201217 0.626977 0.247759
H33   H     H_    0.098067 0.040243 0.577679 0.255425
N12   N     N_R   0.595241 0.589888 0.858789 0.227575
O17   O     O_R   0.593214 0.703488 0.812782 -0.434551
O18   O     O_R   0.644423 0.535678 0.869948 -0.420795
N13   N     N_2   0.350561 0.411628 0.894069 -0.312807
H34   H     H_    0.348278 0.475766 0.816963 0.259140
C50   C     C_3   0.307084 0.313257 0.889764 -0.668019
H35   H     H_    0.264711 0.354315 0.868420 0.215091
H36   H     H_    0.303831 0.262029 0.986351 0.279464
H37   H     H_    0.317249 0.245240 0.811046 0.282281
N14   N     N_2   0.364942 0.364974 0.158206 -0.321873
H38   H     H_    0.349737 0.453614 0.171645 0.233344
C51   C     C_3   0.350775 0.274252 0.262270 -0.595957
H39   H     H_    0.312826 0.305243 0.319119 0.229164
H40   H     H_    0.387139 0.263287 0.332420 0.252897
H41   H     H_    0.339000 0.183309 0.217527 0.268026
N15   N     N_R   0.450707 0.242048 0.106010 0.191718
O19   O     O_R   0.506393 0.250724 0.107021 -0.436529
O20   O     O_R   0.427091 0.131748 0.096265 -0.371532

loop_
_geom_bond_atom_site_label_1
_geom_bond_atom_site_label_2
_geom_bond_distance
_ccdc_geom_bond_type
C46   H19   1.110238 S    
C37   H11   1.112942 S    
C7    C10   1.400193 A    
C43   C44   1.535435 S    
C8    C9    1.408484 A    
C31   C32   1.392559 A    
C47   H25   1.108693 S    
N12   O18   1.300981 A    
C45   H15   1.111185 S    
C51   H39   1.109507 S    
C29   C30   1.409546 A    
C49   H31   1.111667 S    
Zn1   O7    1.993143 S    
C15   C16   1.390934 A    
N2    C18   1.369396 A    
C18   O12   1.349826 S    
N2    C24   1.434731 S    
C17   N2    1.371294 A    
N5    O14   1.300182 A    
C39   C42   1.410154 A    
C40   C41   1.434520 A    
C50   H36   1.106817 S    
Zn1   N4    2.039478 S    
C19   H4    1.082585 S    
O7    C4    1.311918 A    
C51   H40   1.109376 S    
C10   H1    1.083875 S    
N11   H30   1.031997 S    
C5    N1    1.370223 A    
C31   C36   1.365243 A    
C32   C33   1.404186 A    
C48   H29   1.110851 S    
C7    C8    1.404057 A    
C23   C24   1.404850 A    
O5    C3    1.294077 A    
C48   H27   1.108058 S    
C44   N15   1.472547 S    
N1    C6    1.370854 A    
N13   C50   1.450967 S    
C47   H24   1.110333 S    
C12   C13   1.413171 A    
C41   N4    1.376158 A    
C28   N6    1.422346 S    
N9    C47   1.453800 S    
C20   C21   1.402800 A    
C37   H12   1.105817 S    
C17   O11   1.349238 S    
C34   H10   1.080947 S    
C10   C11   1.398408 A    
C31   C38   1.505281 S    
C43   H13   1.101172 S    
N9    H22   1.029438 S    
O3    Zn1   1.994832 S    
N12   O17   1.299075 A    
C45   H16   1.110305 S    
C6    C7    1.397477 A    
N7    C46   1.445334 S    
C5    C9    1.396768 A    
C34   C35   1.398505 A    
C37   C38   1.528171 S    
C39   N3    1.357038 A    
N5    O13   1.301765 A    
O3    C2    1.311390 A    
C50   H37   1.108096 S    
N8    O15   1.300834 A    
N6    C45   1.447261 S    
N3    C40   1.370491 A    
C51   H41   1.108460 S    
C14   C15   1.404590 A    
N7    H18   1.030231 S    
C27   C28   1.411581 A    
O1    C1    1.299267 A    
C25   C30   1.394222 A    
C22   H6    1.070909 S    
N15   O20   1.300618 A    
C36   C37   1.493148 S    
C26   N5    1.436640 S    
N8    O16   1.301290 A    
C1    C32   1.433991 S    
C4    C27   1.463762 S    
Zn2   O8    1.994829 S    
C47   H23   1.110894 S    
N10   C48   1.448076 S    
C26   C27   1.414745 A    
C19   C24   1.401471 A    
C39   C44   1.495469 S    
C12   C17   1.405830 A    
C13   C14   1.409324 A    
C48   H28   1.112307 S    
C22   C23   1.387310 A    
N14   H38   1.031574 S    
C41   N12   1.419158 S    
C15   H2    1.083413 S    
C25   H8    1.083356 S    
O8    C4    1.296793 A    
Zn2   N3    2.040250 S    
C46   H20   1.111182 S    
C21   C22   1.389071 A    
N15   O19   1.301106 A    
C45   H17   1.109001 S    
C28   C29   1.409826 A    
C14   C18   1.395085 A    
Zn1   O5    1.998275 S    
C20   H5    1.083722 S    
O1    Zn1   2.007634 S    
O2    Zn2   1.998273 S    
C42   C43   1.507074 S    
O6    C3    1.296365 A    
O4    Zn2   1.993144 S    
C5    O9    1.349974 S    
C9    C16   1.402605 A    
C43   N13   1.453103 S    
C49   H33   1.110454 S    
O2    C1    1.297891 A    
C38   N9    1.461524 S    
N4    C42   1.379612 A    
C11   N11   1.423469 S    
C50   H35   1.110314 S    
C19   C20   1.388171 A    
C33   H9    1.070403 S    
O4    C2    1.293250 A    
N11   C49   1.446868 S    
C16   H3    1.083277 S    
C25   C26   1.388163 A    
N10   H26   1.030806 S    
C49   H32   1.111310 S    
C8    C13   1.405913 A    
C35   C36   1.388582 A    
N1    C30   1.434793 S    
N14   C51   1.449023 S    
C33   C34   1.383203 A    
N6    H14   1.030476 S    
C40   N10   1.418093 S    
C23   H7    1.082936 S    
C44   N14   1.464248 S    
C3    C35   1.420567 S    
Zn2   O6    2.007635 S    
C2    C21   1.450755 S    
C46   H21   1.111463 S    
C6    O10   1.350003 S    
C11   C12   1.420255 A    
C29   N7    1.425001 S    
C38   N8    1.468863 S    
N13   H34   1.029084 S    
