data_mof_unit_58435.cif
_audit_creation_date              2013-03-05T16:10:46-0500
_audit_creation_method            fapswitch 2.2
_symmetry_space_group_name_H-M    P1
_symmetry_Int_Tables_number       1
_space_group_crystal_system       triclinic
_cell_length_a                    22.39777
_cell_length_b                    7.086029
_cell_length_c                    19.358509
_cell_angle_alpha                 90.171417
_cell_angle_beta                  99.724603
_cell_angle_gamma                 90.003498
_cell_volume                      3028.25164823

loop_
_atom_site_label
_atom_site_type_symbol
_atom_site_description
_atom_site_fract_x
_atom_site_fract_y
_atom_site_fract_z
_atom_type_partial_charge
O1    O     O_R   0.443980 0.494320 0.557430 -0.595744
O2    O     O_R   0.556020 0.994320 0.442570 -0.588638
O3    O     O_R   0.441210 0.822520 0.414610 -0.585739
O4    O     O_R   0.558790 0.322520 0.585390 -0.595666
C1    C     C_R   0.427050 0.654841 0.388121 1.060626
C2    C     C_R   0.573044 0.155594 0.611649 1.071038
O5    O     O_R   0.436920 0.823940 0.555180 -0.582907
O6    O     O_R   0.563080 0.323940 0.444820 -0.587981
O7    O     O_R   0.551700 0.995760 0.584140 -0.585816
O8    O     O_R   0.448300 0.495760 0.415860 -0.591518
C3    C     C_R   0.421944 0.655655 0.575275 1.022514
C4    C     C_R   0.578328 0.155238 0.425096 1.026188
O9    O     O_3   0.537660 0.661290 0.509340 -0.273324
O10   O     O_3   0.462340 0.161290 0.490660 -0.279132
V1    V     V_3+5 0.493010 0.935560 0.498270 1.222122
V2    V     V_3+5 0.506990 0.435560 0.501730 1.210294
H1    H     H_    0.660953 0.899303 0.236411 0.190479
H2    H     H_    0.329867 0.368882 0.750582 0.185214
C5    C     C_R   0.741297 0.976487 0.195235 0.351651
C6    C     C_R   0.254849 0.461187 0.799123 0.361220
C7    C     C_R   0.791660 0.100418 0.202271 -0.208554
C8    C     C_R   0.209949 0.602030 0.799838 -0.224496
C9    C     C_R   0.799465 0.237477 0.256396 0.298030
C10   C     C_R   0.208107 0.758875 0.754178 0.308538
C11   C     C_R   0.757859 0.249859 0.304227 0.040452
C12   C     C_R   0.250914 0.775135 0.707744 0.078008
C13   C     C_R   0.707394 0.126513 0.296293 0.058701
C14   C     C_R   0.294509 0.631009 0.706302 0.057957
C15   C     C_R   0.699888 0.992418 0.242231 -0.318342
C16   C     C_R   0.295711 0.476801 0.751525 -0.321288
C17   C     C_1   0.837325 0.083815 0.156739 0.262287
C18   C     C_1   0.163624 0.583511 0.844461 0.269134
C19   C     C_1   0.661889 0.136697 0.342108 0.055616
C20   C     C_1   0.339489 0.639807 0.659751 0.060837
C21   C     C_1   0.623971 0.145500 0.380143 -0.252704
C22   C     C_1   0.376913 0.647212 0.621052 -0.265510
C23   C     C_1   0.875651 0.072509 0.119299 -0.162013
C24   C     C_1   0.124853 0.571748 0.881309 -0.151993
C25   C     C_R   0.630736 0.144770 0.807924 0.297190
C26   C     C_R   0.367488 0.576202 0.193466 0.298138
C27   C     C_R   0.614719 0.149113 0.680042 -0.344242
C28   C     C_R   0.385211 0.641913 0.319712 -0.356991
C29   C     C_R   0.911298 0.087133 0.758710 0.200591
C30   C     C_R   0.090473 0.546959 0.242107 0.200364
C31   C     C_R   0.874142 0.129719 0.694427 0.272649
C32   C     C_R   0.129617 0.540262 0.307172 0.274291
C33   C     C_R   0.811704 0.153199 0.691863 -0.225621
C34   C     C_R   0.191906 0.567349 0.309956 -0.222346
C35   C     C_R   0.783521 0.121206 0.750699 0.109098
C36   C     C_R   0.217091 0.609117 0.249731 0.114474
C37   C     C_R   0.821807 0.095083 0.816412 0.029174
C38   C     C_R   0.177911 0.602349 0.183695 0.035588
C39   C     C_R   0.718702 0.126920 0.746872 -0.053577
C40   C     C_R   0.281132 0.636831 0.252843 -0.052228
C41   C     C_R   0.694808 0.146339 0.810498 -0.114283
C42   C     C_R   0.305145 0.622193 0.189676 -0.112463
C43   C     C_R   0.735961 0.160017 0.875347 0.215199
C44   C     C_R   0.265188 0.646625 0.124671 0.227319
C45   C     C_R   0.796505 0.108001 0.877563 -0.159862
C46   C     C_R   0.202726 0.626898 0.122597 -0.169299
C47   C     C_R   0.676957 0.110900 0.682224 0.262275
C48   C     C_R   0.322314 0.673712 0.316408 0.261422
C49   C     C_R   0.591186 0.164926 0.743038 0.019334
C50   C     C_R   0.407476 0.583438 0.258720 0.015574
C51   C     C_R   0.885597 0.074088 0.820247 -0.360706
C52   C     C_R   0.114523 0.571922 0.179899 -0.366342
H3    H     H_    0.786018 0.202779 0.643292 0.216827
H4    H     H_    0.220545 0.542678 0.359651 0.210373
H5    H     H_    0.825266 0.095906 0.928182 0.095584
H6    H     H_    0.173369 0.630540 0.072146 0.094630
O11   O     O_R   0.051730 0.724670 0.084120 -0.591943
O12   O     O_R   0.948270 0.224670 0.915880 -0.593260
O13   O     O_R   0.063080 0.393540 0.944820 -0.570182
O14   O     O_R   0.936920 0.893540 0.055180 -0.576504
C53   C     C_R   0.078398 0.562034 0.925180 0.951618
C54   C     C_R   0.921693 0.062307 0.074914 0.953156
O15   O     O_R   0.058800 0.395030 0.085390 -0.572590
O16   O     O_R   0.941200 0.895030 0.914610 -0.574125
O17   O     O_R   0.943980 0.223310 0.057440 -0.566389
O18   O     O_R   0.056020 0.723310 0.942560 -0.566666
C55   C     C_R   0.072591 0.563790 0.111735 1.020918
C56   C     C_R   0.927210 0.063551 0.888480 1.019786
O19   O     O_3   0.962360 0.556290 0.990650 -0.280166
O20   O     O_3   0.037640 0.056290 0.009350 -0.275660
V3    V     V_3+5 0.006980 0.281990 0.001730 1.261055
V4    V     V_3+5 0.993020 0.781990 0.998270 1.256528
N1    N     N_R   0.899117 0.147948 0.630917 0.274560
O21   O     O_R   0.943075 0.038619 0.619320 -0.245761
O22   O     O_R   0.873434 0.257904 0.580829 -0.323685
N2    N     N_R   0.107149 0.497605 0.370822 0.271054
O23   O     O_R   0.062127 0.381169 0.370237 -0.249618
O24   O     O_R   0.135609 0.559492 0.430821 -0.328020
N3    N     N_R   0.731511 0.832650 0.141572 0.259521
O25   O     O_R   0.749369 0.856544 0.081641 -0.410406
O26   O     O_R   0.700236 0.682358 0.150310 -0.376027
N4    N     N_R   0.259965 0.301748 0.846013 0.266036
O27   O     O_R   0.243587 0.314720 0.907217 -0.394396
O28   O     O_R   0.287330 0.148743 0.830973 -0.397329
N5    N     N_R   0.849990 0.364499 0.262744 0.246302
O29   O     O_R   0.896047 0.341550 0.312772 -0.276906
O30   O     O_R   0.853784 0.484882 0.213048 -0.338442
N6    N     N_R   0.162101 0.900339 0.754448 0.250278
O31   O     O_R   0.124128 0.936752 0.697449 -0.300320
O32   O     O_R   0.155325 0.983470 0.812648 -0.328677
C57   C     C_3   0.766699 0.397867 0.362052 -0.279651
C58   C     C_3   0.742333 0.589003 0.334319 -0.773061
H7    H     H_    0.767410 0.639733 0.293170 0.283562
H8    H     H_    0.693348 0.578009 0.312114 0.250863
H9    H     H_    0.748112 0.693780 0.377709 0.263618
H10   H     H_    0.743671 0.356873 0.406244 0.215270
H11   H     H_    0.815284 0.411403 0.385323 0.254461
C59   C     C_3   0.251916 0.949064 0.662131 -0.393320
C60   C     C_3   0.222432 0.909871 0.586375 -0.582675
H12   H     H_    0.247624 0.799091 0.562621 0.258074
H13   H     H_    0.174822 0.863095 0.583975 0.288261
H14   H     H_    0.222643 0.040776 0.555032 0.252449
H15   H     H_    0.228525 0.070121 0.682398 0.240871
H16   H     H_    0.299358 0.996933 0.663477 0.193047
C61   C     C_3   0.523013 0.184216 0.740649 -0.317460
C62   C     C_3   0.492508 0.992085 0.743324 -0.761089
H17   H     H_    0.501394 0.901287 0.699356 0.231174
H18   H     H_    0.509380 0.919625 0.793539 0.293823
H19   H     H_    0.442786 0.011472 0.738730 0.238582
H20   H     H_    0.512891 0.275826 0.783622 0.241753
H21   H     H_    0.501184 0.258448 0.692587 0.160478
C63   C     C_3   0.473875 0.528237 0.262909 -0.293127
C64   C     C_3   0.481726 0.314037 0.263171 -0.758102
H22   H     H_    0.465407 0.251658 0.309145 0.239649
H23   H     H_    0.456410 0.249588 0.214667 0.287202
H24   H     H_    0.530408 0.279218 0.266253 0.226067
H25   H     H_    0.493127 0.591024 0.219204 0.237351
H26   H     H_    0.502892 0.586178 0.310306 0.154177
C65   C     C_3   0.718833 0.243241 0.942148 -0.322558
C66   C     C_3   0.762827 0.396914 0.975381 -0.774672
H27   H     H_    0.807184 0.336170 0.999119 0.232241
H28   H     H_    0.769701 0.503887 0.935604 0.261542
H29   H     H_    0.743774 0.468620 0.017899 0.306533
H30   H     H_    0.674480 0.314931 0.931251 0.245650
H31   H     H_    0.716845 0.129213 0.980895 0.258091
C67   C     C_3   0.286608 0.707751 0.057469 -0.353880
C68   C     C_3   0.254075 0.885044 0.025267 -0.730582
H32   H     H_    0.205975 0.855109 0.003289 0.234441
H33   H     H_    0.256462 0.999000 0.065201 0.271124
H34   H     H_    0.276305 0.935789 0.981647 0.300546
H35   H     H_    0.335137 0.745841 0.067297 0.248256
H36   H     H_    0.279443 0.590884 0.018565 0.248664
N7    N     N_R   0.605955 0.088454 0.868660 0.224600
O33   O     O_R   0.622600 0.929184 0.899278 -0.360412
O34   O     O_R   0.568826 0.197360 0.895207 -0.372120
N8    N     N_R   0.387659 0.490117 0.134015 0.225294
O35   O     O_R   0.359557 0.342498 0.104375 -0.382111
O36   O     O_R   0.431324 0.564653 0.106628 -0.372146
N9    N     N_R   0.695325 0.030018 0.620910 0.222922
O37   O     O_R   0.721657 0.865790 0.624641 -0.362507
O38   O     O_R   0.684472 0.117017 0.560988 -0.436457
N10   N     N_R   0.301541 0.763629 0.374758 0.227461
O39   O     O_R   0.316278 0.697072 0.437920 -0.443958
O40   O     O_R   0.266258 0.910363 0.364377 -0.367361
N11   N     N_R   0.975860 0.075057 0.762867 0.262702
O41   O     O_R   0.005723 0.214895 0.741640 -0.291043
O42   O     O_R   0.005296 0.928412 0.790974 -0.332500
N12   N     N_R   0.026124 0.533788 0.239430 0.261883
O43   O     O_R   0.998668 0.651741 0.275078 -0.268575
O44   O     O_R   0.995175 0.400038 0.203665 -0.338733

loop_
_geom_bond_atom_site_label_1
_geom_bond_atom_site_label_2
_geom_bond_distance
_ccdc_geom_bond_type
C9    N5    1.434609 S    
C1    C28   1.490083 S    
N3    O25   1.300998 A    
C28   C50   1.417906 A    
C13   C15   1.400374 A    
H1    C15   1.083891 S    
C30   C52   1.411420 A    
N7    O33   1.301323 A    
O1    C3    1.313469 A    
C54   O17   1.313194 A    
C27   C47   1.413709 A    
C57   H10   1.110314 S    
O2    C4    1.312877 A    
C2    O7    1.305835 A    
O12   V3    1.978319 S    
C51   C56   1.484490 S    
C11   C57   1.519965 S    
C33   C35   1.411202 A    
C6    C16   1.408693 A    
C61   H20   1.106957 S    
C13   C19   1.461367 S    
O5    C3    1.316301 A    
C7    C17   1.463151 S    
C63   C64   1.527918 S    
C8    C18   1.464046 S    
C8    C10   1.418380 A    
N10   O39   1.301368 A    
C5    C7    1.417557 A    
C10   C12   1.425577 A    
N12   O43   1.301132 A    
C29   N11   1.437220 S    
C68   H33   1.111234 S    
C59   H15   1.109836 S    
C43   C45   1.398966 A    
C58   H7    1.109987 S    
C44   C46   1.399766 A    
C37   C51   1.425917 A    
C31   C33   1.400895 A    
O18   V4    1.959223 S    
C38   C46   1.400506 A    
C31   N1    1.440297 S    
C39   C47   1.434286 A    
N10   O40   1.301433 A    
C25   C41   1.427541 A    
N5    O29   1.300773 A    
C30   C32   1.408805 A    
C14   C16   1.399620 A    
C35   C37   1.421538 A    
C2    C27   1.486350 S    
N4    O28   1.301688 A    
C36   C38   1.423802 A    
N11   O42   1.301080 A    
H2    C16   1.084010 S    
C18   C24   1.216340 T    
C42   C44   1.426641 A    
N9    O38   1.301446 A    
C53   O18   1.313452 A    
C28   C48   1.417449 A    
C10   N6    1.438258 S    
C5    N3    1.443173 S    
C62   H19   1.110698 S    
C29   C51   1.411142 A    
C60   H14   1.110391 S    
O16   V4    1.996114 S    
C34   C36   1.410401 A    
C57   H11   1.109244 S    
C14   C20   1.462190 S    
C65   H30   1.104230 S    
O6    V2    1.969785 S    
O13   C53   1.317011 A    
C43   C65   1.526537 S    
N6    O31   1.300830 A    
C30   N12   1.436437 S    
C66   H29   1.110843 S    
C33   H3    1.076003 S    
C59   C60   1.527826 S    
C62   H18   1.109199 S    
N12   O44   1.300762 A    
C24   C53   1.451728 S    
C39   C41   1.429741 A    
C67   C68   1.532722 S    
C40   C42   1.420122 A    
O20   V3    1.737376 S    
O4    C2    1.307002 A    
C68   H34   1.110889 S    
C67   H36   1.110930 S    
C66   H28   1.111199 S    
C40   C48   1.431037 A    
C26   C42   1.423720 A    
C34   H4    1.077051 S    
C17   C23   1.215913 T    
O4    V2    1.995915 S    
C64   H23   1.108728 S    
O11   V4    1.980394 S    
C49   C61   1.525961 S    
O16   C56   1.315353 A    
N2    O24   1.301731 A    
N11   O41   1.301283 A    
C46   H6    1.081708 S    
O6    C4    1.316378 A    
N4    O27   1.301145 A    
C26   N8    1.439522 S    
O1    V2    1.959395 S    
C36   C40   1.438873 A    
O14   V4    1.969751 S    
C4    C21   1.451665 S    
N6    O32   1.301242 A    
O2    V1    1.960727 S    
C29   C31   1.408774 A    
O13   V3    1.972334 S    
O14   C54   1.316715 A    
C45   H5    1.081576 S    
C61   H21   1.109354 S    
N5    O30   1.301122 A    
C23   C54   1.451184 S    
C6    C8    1.418562 A    
C65   H31   1.110132 S    
C50   C63   1.526709 S    
C41   C43   1.429434 A    
C65   C66   1.533662 S    
N8    O36   1.301273 A    
C37   C45   1.398890 A    
C27   C49   1.412047 A    
C64   H22   1.110537 S    
C5    C15   1.408926 A    
C12   C59   1.520651 S    
O17   V3    1.960551 S    
C38   C52   1.425551 A    
C62   H17   1.109965 S    
C60   H12   1.109766 S    
C44   C67   1.524592 S    
C3    C22   1.452029 S    
N7    O34   1.301287 A    
N8    O35   1.301499 A    
O20   V4    2.178898 S    
O3    C1    1.310218 A    
C47   N9    1.437872 S    
C67   H35   1.104671 S    
C61   C62   1.528169 S    
C66   H27   1.109272 S    
C32   N2    1.440335 S    
C11   C13   1.416165 A    
C25   C49   1.417058 A    
C57   C58   1.525092 S    
C12   C14   1.416460 A    
C26   C50   1.420535 A    
C7    C9    1.415493 A    
O7    V1    1.982604 S    
C64   H24   1.109705 S    
C1    O8    1.304963 A    
O8    V2    1.984779 S    
C68   H32   1.109615 S    
C52   C55   1.485774 S    
C59   H16   1.111491 S    
N2    O23   1.301423 A    
C58   H8    1.111334 S    
C63   H25   1.106868 S    
C35   C39   1.441714 A    
O5    V1    1.972370 S    
C19   C21   1.215847 T    
C48   N10   1.439312 S    
C20   C22   1.216122 T    
C9    C11   1.422842 A    
C6    N4    1.443785 S    
O19   V3    2.180152 S    
C63   H26   1.108652 S    
O15   V3    1.992163 S    
C32   C34   1.400233 A    
O19   V4    1.736486 S    
N1    O21   1.301402 A    
N3    O26   1.301718 A    
O15   C55   1.314774 A    
O9    V2    1.736763 S    
C25   N7    1.439767 S    
N1    O22   1.301650 A    
O10   V1    1.737653 S    
O3    V1    1.991966 S    
C60   H13   1.110077 S    
N9    O37   1.301353 A    
O12   C56   1.311138 A    
O11   C55   1.312636 A    
C58   H9    1.110421 S    
