data_mof_unit_58530.cif
_audit_creation_date              2012-12-10T18:07:37-0500
_audit_creation_method            fapswitch 2.2
_symmetry_space_group_name_H-M    P1
_symmetry_Int_Tables_number       1
_space_group_crystal_system       triclinic
_cell_length_a                    11.540703
_cell_length_b                    12.617384
_cell_length_c                    13.120699
_cell_angle_alpha                 82.273332
_cell_angle_beta                  90.561714
_cell_angle_gamma                 102.626348
_cell_volume                      1847.04065376

loop_
_atom_site_label
_atom_site_type_symbol
_atom_type_description
_atom_site_fract_x
_atom_site_fract_y
_atom_site_fract_z
_atom_type_partial_charge
C1    C     C_R   0.490234 0.438772 0.691311 0.847826
C2    C     C_R   0.690558 0.626978 0.905052 -0.223293
C3    C     C_R   0.642856 0.551399 0.839957 -0.203848
C4    C     C_R   0.717839 0.500965 0.500291 0.905644
C5    C     C_R   0.492861 0.526782 0.133008 -0.328789
C6    C     C_R   0.638672 0.688255 0.166203 0.484708
C7    C     C_R   0.482880 0.399250 0.801137 -0.110821
C8    C     C_R   0.350355 0.094253 0.334321 0.120821
C9    C     C_R   0.642050 0.799728 0.627157 -0.060746
C10   C     C_R   0.683076 0.906450 0.646956 -0.325656
C11   C     C_R   0.638434 0.991022 0.592403 0.499938
C12   C     C_R   0.544802 0.598443 0.200337 -0.182165
C13   C     C_R   0.542009 0.965507 0.524137 -0.110491
C14   C     C_R   0.508920 0.855841 0.502652 0.174484
C15   C     C_R   0.480841 0.043460 0.473098 -0.052853
C16   C     C_R   0.516283 0.561375 0.308774 0.894037
C17   C     C_R   0.403256 0.014974 0.391089 0.153124
C18   C     C_R   0.379699 0.908035 0.367502 -0.279131
C19   C     C_R   0.428166 0.829284 0.425029 -0.215545
C20   C     C_R   0.490860 0.148167 0.501671 -0.061851
C21   C     C_R   0.373126 0.199207 0.362044 -0.066737
C22   C     C_R   0.282157 0.499000 0.499819 0.891789
C23   C     C_R   0.401414 0.301804 0.837189 -0.179808
C24   C     C_1   0.838868 0.502460 0.500775 -0.188138
C25   C     C_1   0.940890 0.501284 0.500629 -0.004566
C26   C     C_1   0.059128 0.498776 0.500079 -0.008197
C27   C     C_1   0.161118 0.497473 0.499677 -0.184534
C28   C     C_R   0.685099 0.698082 0.066645 -0.282504
C29   C     C_3   0.637236 0.842395 0.240085 0.131832
C30   C     C_3   0.691265 0.944218 0.164470 -0.398624
C31   C     C_3   0.636190 0.040577 0.180259 -0.926008
C32   C     C_3   0.153334 0.027762 0.274654 -0.799285
C33   C     C_3   0.770695 0.145022 0.518659 0.075485
C34   C     C_R   0.373853 0.274936 0.941536 -0.151835
C35   C     C_3   0.897243 0.129889 0.539651 -0.350217
C36   C     C_3   0.982125 0.188977 0.451379 -0.946670
C37   C     C_R   0.420980 0.348323 0.009347 -0.191772
C38   C     C_R   0.502107 0.448057 0.973843 0.109606
C39   C     C_R   0.543360 0.466182 0.870998 0.089312
C40   C     C_R   0.544161 0.530310 0.036822 0.091001
C41   C     C_R   0.639741 0.619307 0.002327 0.105171
H1    H     H_    0.321720 0.883660 0.305422 0.185134
H2    H     H_    0.394887 0.323652 0.089211 0.122274
H3    H     H_    0.311701 0.199236 0.969430 0.142223
H4    H     H_    0.685500 0.559228 0.765424 0.150056
H5    H     H_    0.335797 0.262610 0.318803 0.136794
H6    H     H_    0.649731 0.864225 0.319247 0.180242
H7    H     H_    0.539398 0.818107 0.228877 0.120169
H8    H     H_    0.788646 0.967298 0.175925 0.234288
H9    H     H_    0.675663 0.926067 0.084321 0.218249
H10   H     H_    0.538977 0.019903 0.167581 0.271476
H11   H     H_    0.676812 0.113255 0.124603 0.269677
H12   H     H_    0.536094 0.173146 0.569355 0.201068
H13   H     H_    0.652256 0.061655 0.259492 0.257190
H14   H     H_    0.290126 0.133750 0.188584 0.217000
H15   H     H_    0.104643 0.003443 0.205095 0.242174
H16   H     H_    0.141189 0.954539 0.334163 0.258876
H17   H     H_    0.115237 0.091763 0.303682 0.239596
H18   H     H_    0.772439 0.234215 0.506895 0.186745
H19   H     H_    0.739040 0.113917 0.445248 0.122887
H20   H     H_    0.928552 0.162891 0.611875 0.235563
H21   H     H_    0.898047 0.041230 0.549179 0.217859
H22   H     H_    0.952809 0.156289 0.378658 0.258621
H23   H     H_    0.680747 0.735191 0.666041 0.156481
H24   H     H_    0.072970 0.176304 0.468355 0.271512
H25   H     H_    0.984955 0.278258 0.441426 0.273766
H26   H     H_    0.753847 0.924374 0.701039 0.165386
H27   H     H_    0.404225 0.748618 0.404151 0.208821
H28   H     H_    0.765941 0.692475 0.878553 0.141865
H29   H     H_    0.759962 0.764639 0.041362 0.150690
H30   H     H_    0.415086 0.464962 0.159956 0.161075
H31   H     H_    0.355912 0.248430 0.784353 0.158309
N1    N     N_R   0.440320 0.222190 0.444690 -0.122483
N2    N     N_R   0.559060 0.776980 0.554780 -0.120307
N3    N     N_2   0.277769 0.070107 0.248437 -0.322555
O1    O     O_R   0.471500 0.366730 0.627160 -0.614218
O2    O     O_3   0.694850 0.097014 0.604657 -0.667686
O3    O     O_R   0.509620 0.544830 0.662520 -0.608231
O4    O     O_R   0.646490 0.410960 0.482310 -0.615666
O5    O     O_R   0.684610 0.589050 0.517670 -0.607067
O6    O     O_R   0.490380 0.455170 0.337480 -0.613656
O7    O     O_R   0.528500 0.633270 0.372840 -0.620806
O8    O     O_R   0.315390 0.410950 0.482330 -0.608893
O9    O     O_R   0.353510 0.589040 0.517690 -0.620829
O10   O     O_3   0.697189 0.756976 0.233001 -0.638182
Zn1   Zn    Zn3+2 0.474550 0.381080 0.476390 0.939410
Zn2   Zn    Zn3+2 0.525450 0.618920 0.523610 0.944405

loop_
_geom_bond_atom_site_label_1
_geom_bond_atom_site_label_2
_ccdc_geom_bond_type
O3    Zn2   S    
C9    H23   S    
C35   C36   S    
O9    Zn2   S    
C32   H17   S    
C31   H11   S    
C32   N3    S    
C10   H26   S    
C26   C27   T    
C29   C30   S    
C6    O10   S    
C29   H6    S    
C14   N2    A    
C4    O5    A    
O5    Zn2   S    
C18   H1    S    
C6    C12   A    
C38   C39   A    
C4    C24   S    
C36   H25   S    
C2    C41   A    
O7    Zn2   S    
C34   C37   A    
C21   N1    A    
C28   C41   A    
C18   C19   A    
C11   O2    S    
C6    C28   A    
C12   C16   S    
N2    Zn2   S    
C2    H28   S    
C9    C10   A    
C29   O10   S    
O6    Zn1   S    
H14   N3    S    
C30   H9    S    
C3    C39   A    
C33   H18   S    
C13   C14   A    
C1    O3    A    
C32   H16   S    
C14   C19   A    
C17   C18   A    
C15   C20   A    
C29   H7    S    
C34   H3    S    
C24   C25   T    
C5    C12   A    
C36   H24   S    
C25   C26   S    
C3    H4    S    
C8    N3    S    
C22   O9    A    
C37   H2    S    
C37   C38   A    
C23   C34   A    
C16   O7    A    
C8    C21   A    
C19   H27   S    
C35   H20   S    
C4    O4    A    
C40   C41   A    
C30   H8    S    
C33   H19   S    
C22   C27   S    
C13   C15   A    
C9    N2    A    
C36   H22   S    
O1    Zn1   S    
C21   H5    S    
C15   C17   A    
C1    C7    S    
C1    O1    A    
C23   H31   S    
C28   H29   S    
C31   H10   S    
C20   H12   S    
C8    C17   A    
C22   O8    A    
C2    C3    A    
C5    H30   S    
C38   C40   A    
C11   C13   A    
C33   O2    S    
C30   C31   S    
C7    C23   A    
C16   O6    A    
C33   C35   S    
C20   N1    A    
C35   H21   S    
C31   H13   S    
N1    Zn1   S    
C10   C11   A    
O8    Zn1   S    
C5    C40   A    
C7    C39   A    
C32   H15   S    
O4    Zn1   S    
