data_mof_unit_48555.cif
_audit_creation_date              2012-12-11T15:07:36-0500
_audit_creation_method            fapswitch 2.2
_symmetry_space_group_name_H-M    P1
_symmetry_Int_Tables_number       1
_space_group_crystal_system       triclinic
_cell_length_a                    21.667785
_cell_length_b                    7.20201
_cell_length_c                    18.611613
_cell_angle_alpha                 89.76471
_cell_angle_beta                  96.080701
_cell_angle_gamma                 90.277475
_cell_volume                      2887.97841551

loop_
_atom_site_label
_atom_site_type_symbol
_atom_type_description
_atom_site_fract_x
_atom_site_fract_y
_atom_site_fract_z
_atom_type_partial_charge
O1    O     O_R   0.449650 0.506500 0.414480 -0.541302
O2    O     O_R   0.550350 0.006500 0.585520 -0.536789
O3    O     O_R   0.432010 0.173150 0.560250 -0.507357
O4    O     O_R   0.567990 0.673150 0.439750 -0.508026
C1    C     C_R   0.415615 0.344147 0.580415 0.788761
C2    C     C_R   0.583775 0.845275 0.418804 0.782722
O5    O     O_R   0.442320 0.176650 0.413480 -0.533957
O6    O     O_R   0.557680 0.676650 0.586520 -0.538987
O7    O     O_R   0.560730 0.008380 0.437700 -0.504803
O8    O     O_R   0.439270 0.508380 0.562300 -0.507894
C3    C     C_R   0.428321 0.345272 0.387656 0.759862
C4    C     C_R   0.571490 0.845163 0.612433 0.757378
O9    O     O_3   0.538840 0.339860 0.508120 -0.375153
O10   O     O_3   0.461160 0.839860 0.491880 -0.370238
V1    V     V_3+5 0.492800 0.064220 0.498490 1.657963
V2    V     V_3+5 0.507200 0.564220 0.501510 1.649771
C5    C     C_R   0.872401 0.962410 0.689071 -0.096297
C6    C     C_R   0.127673 0.466329 0.310999 -0.102702
H1    H     H_    0.960410 0.989438 0.752668 0.138517
H2    H     H_    0.039747 0.493845 0.247313 0.154281
H3    H     H_    0.893145 0.982164 0.639112 0.181483
H4    H     H_    0.107104 0.488055 0.360857 0.180675
C7    C     C_R   0.886538 0.941066 0.819520 -0.039200
C8    C     C_R   0.113248 0.441214 0.180693 -0.042557
C9    C     C_R   0.585325 0.827900 0.745528 0.636487
C10   C     C_R   0.413999 0.328230 0.254576 0.635423
C11   C     C_R   0.621501 0.830689 0.811837 -0.194435
C12   C     C_R   0.377727 0.330294 0.188358 -0.199066
C13   C     C_R   0.685516 0.857104 0.815640 -0.230934
C14   C     C_R   0.313817 0.356319 0.184640 -0.229688
C15   C     C_R   0.715600 0.881995 0.752417 0.085298
C16   C     C_R   0.283973 0.381974 0.247858 0.086553
C17   C     C_R   0.678077 0.879906 0.684200 -0.115774
C18   C     C_R   0.321628 0.380799 0.316012 -0.119838
C19   C     C_R   0.781532 0.908860 0.754703 0.028048
C20   C     C_R   0.218160 0.409176 0.245575 0.029478
C21   C     C_R   0.808077 0.934063 0.688583 -0.011303
C22   C     C_R   0.191855 0.436660 0.311585 -0.011604
C23   C     C_R   0.770321 0.931103 0.622511 0.622091
C24   C     C_R   0.229726 0.434827 0.377607 0.622403
C25   C     C_R   0.706564 0.904249 0.620456 -0.210015
C26   C     C_R   0.293365 0.406857 0.379688 -0.215067
C27   C     C_R   0.822312 0.912052 0.820111 -0.179623
C28   C     C_R   0.177295 0.410763 0.180228 -0.180409
C29   C     C_R   0.911053 0.966526 0.753820 -0.165845
C30   C     C_R   0.088961 0.469507 0.246256 -0.172403
C31   C     C_R   0.612657 0.852455 0.681254 -0.178695
C32   C     C_R   0.386951 0.352879 0.318904 -0.180611
H5    H     H_    0.805834 0.893690 0.872309 0.087834
H6    H     H_    0.193572 0.390266 0.128127 0.086352
H7    H     H_    0.710062 0.857339 0.869052 0.134411
H8    H     H_    0.289204 0.356148 0.131268 0.133734
H9    H     H_    0.599688 0.811842 0.861097 0.152349
H10   H     H_    0.399400 0.311321 0.139098 0.151276
H11   H     H_    0.679551 0.902909 0.568057 0.137453
H12   H     H_    0.320486 0.406414 0.432018 0.152273
C33   C     C_R   0.633504 0.010490 0.319985 0.518945
C34   C     C_R   0.359774 0.218995 0.682770 0.498090
C35   C     C_R   0.633088 0.859693 0.368664 -0.275660
C36   C     C_R   0.365093 0.354399 0.628989 -0.271052
C37   C     C_R   0.680024 0.726309 0.370093 0.516818
C38   C     C_R   0.323486 0.503750 0.622880 0.543564
C39   C     C_R   0.726913 0.741396 0.323604 -0.047128
C40   C     C_R   0.277552 0.521093 0.670371 -0.051911
C41   C     C_R   0.727902 0.892848 0.275344 -0.092101
C42   C     C_R   0.272220 0.387121 0.724800 -0.087137
C43   C     C_R   0.681089 0.031788 0.273344 -0.071470
C44   C     C_R   0.313375 0.232055 0.731573 -0.085552
C45   C     C_R   0.772653 0.604654 0.325079 -0.086297
C46   C     C_R   0.237188 0.672920 0.663712 -0.078893
C47   C     C_R   0.820335 0.611372 0.279252 0.092094
C48   C     C_R   0.190921 0.699080 0.710475 0.092062
C49   C     C_R   0.822330 0.764966 0.230422 -0.062784
C50   C     C_R   0.184583 0.564195 0.765904 -0.071124
C51   C     C_R   0.775688 0.904332 0.228998 0.021286
C52   C     C_R   0.225532 0.408622 0.772168 0.032073
C53   C     C_R   0.776800 0.056205 0.181053 0.073680
C54   C     C_R   0.219892 0.273898 0.826151 0.069327
C55   C     C_R   0.731573 0.193670 0.179608 -0.162964
C56   C     C_R   0.259860 0.121739 0.832925 -0.164743
C57   C     C_R   0.683520 0.186298 0.224868 0.117820
C58   C     C_R   0.306654 0.096501 0.786771 0.122294
C59   C     C_R   0.869159 0.784873 0.182596 0.538647
C60   C     C_R   0.138867 0.578413 0.815600 0.534211
C61   C     C_R   0.869075 0.935965 0.134010 -0.157953
C62   C     C_R   0.133515 0.441847 0.868928 -0.159310
C63   C     C_R   0.823236 0.071078 0.134390 -0.321486
C64   C     C_R   0.173984 0.290614 0.873349 -0.305080
H13   H     H_    0.770240 0.490884 0.362596 0.201956
H14   H     H_    0.242748 0.772400 0.621338 0.203977
H15   H     H_    0.823197 0.187617 0.097284 0.156029
H16   H     H_    0.169960 0.185297 0.914449 0.156979
H17   H     H_    0.734660 0.307398 0.142100 0.137840
H18   H     H_    0.253547 0.022287 0.875179 0.138600
O11   O     O_R   0.060820 0.290050 0.937800 -0.546019
O12   O     O_R   0.939180 0.790050 0.062200 -0.501321
O13   O     O_R   0.057690 0.616620 0.086540 -0.530964
O14   O     O_R   0.942310 0.116620 0.913460 -0.541651
C65   C     C_R   0.071445 0.448669 0.112663 0.703909
C66   C     C_R   0.928426 0.948661 0.887467 0.694825
O15   O     O_R   0.068010 0.619890 0.939770 -0.506354
O16   O     O_R   0.931990 0.119890 0.060230 -0.546506
O17   O     O_R   0.949640 0.787940 0.914460 -0.527590
O18   O     O_R   0.050360 0.287940 0.085540 -0.538524
C67   C     C_R   0.084120 0.451734 0.918787 0.751484
C68   C     C_R   0.916761 0.950457 0.082197 0.749128
O19   O     O_3   0.961210 0.453080 0.991940 -0.374683
O20   O     O_3   0.038790 0.953080 0.008060 -0.378874
V3    V     V_3+5 0.007200 0.728820 0.001500 1.538002
V4    V     V_3+5 0.992800 0.228820 0.998500 1.459718
F1    F     F_    0.680791 0.582639 0.417867 -0.666448
F2    F     F_    0.327221 0.632141 0.569646 -0.659509
C69   C     C_3   0.868248 0.455207 0.282002 -0.289266
C70   C     C_3   0.860519 0.294732 0.334642 -0.763791
H19   H     H_    0.865958 0.345219 0.391280 0.250078
H20   H     H_    0.814666 0.226236 0.322386 0.241382
H21   H     H_    0.896919 0.189229 0.329111 0.232422
H22   H     H_    0.866862 0.393037 0.227326 0.230379
H23   H     H_    0.915044 0.515486 0.297469 0.231785
C71   C     C_3   0.148713 0.869264 0.701351 -0.284177
C72   C     C_3   0.160496 0.007430 0.641486 -0.765849
H24   H     H_    0.208430 0.063752 0.650086 0.234628
H25   H     H_    0.152343 0.940480 0.587639 0.250366
H26   H     H_    0.127902 0.125735 0.642437 0.236643
H27   H     H_    0.099896 0.821047 0.689792 0.234782
H28   H     H_    0.153556 0.948493 0.752691 0.234875
F3    F     F_    0.916560 0.662189 0.183682 -0.729447
F4    F     F_    0.097427 0.719619 0.811792 -0.723946
C73   C     C_3   0.635602 0.342391 0.221679 -0.214181
C74   C     C_3   0.644176 0.504063 0.169865 -0.840703
H29   H     H_    0.690084 0.571538 0.182974 0.234510
H30   H     H_    0.639229 0.455053 0.113031 0.234543
H31   H     H_    0.607869 0.609924 0.175299 0.246391
H32   H     H_    0.589050 0.282234 0.204879 0.270244
H33   H     H_    0.636072 0.403227 0.276488 0.247522
C75   C     C_3   0.348878 0.926428 0.796170 -0.218260
C76   C     C_3   0.336526 0.787747 0.855626 -0.825550
H34   H     H_    0.344188 0.854271 0.909589 0.230869
H35   H     H_    0.288622 0.731563 0.846399 0.230169
H36   H     H_    0.369154 0.669456 0.854926 0.248164
H37   H     H_    0.344599 0.847796 0.744674 0.238159
H38   H     H_    0.397609 0.974693 0.808559 0.253437
F5    F     F_    0.795233 0.954391 0.559069 -0.673487
F6    F     F_    0.205053 0.460384 0.440963 -0.671128
F7    F     F_    0.523091 0.801253 0.743995 -0.665752
F8    F     F_    0.476110 0.302796 0.255916 -0.663340
F9    F     F_    0.585751 0.131978 0.317564 -0.646124
F10   F     F_    0.401977 0.079778 0.687930 -0.660912

loop_
_geom_bond_atom_site_label_1
_geom_bond_atom_site_label_2
_ccdc_geom_bond_type
C60   F4    S    
C42   C44   A    
C39   C41   A    
C48   C50   A    
C7    C29   A    
C63   H15   S    
C11   C13   A    
C8    C65   S    
O1    C3    A    
O2    C4    A    
C2    O7    A    
C70   H19   S    
C23   C25   A    
O5    C3    A    
C76   H35   S    
C50   C52   A    
O14   V4    S    
C16   C20   A    
C19   C21   A    
C60   C62   A    
C55   H17   S    
C34   F10   S    
C33   C35   A    
O15   V3    S    
C7    C27   A    
O20   V3    S    
C47   C69   S    
C36   C38   A    
C45   C47   A    
C25   H11   S    
C72   H26   S    
C75   H38   S    
O11   C67   A    
C26   H12   S    
C69   H23   S    
C64   H16   S    
C41   C43   A    
C18   C26   A    
C38   C40   A    
C15   C17   A    
O16   C68   A    
C40   C46   A    
C19   C27   A    
C9    C31   A    
C10   C32   A    
C69   H22   S    
C53   C55   A    
C7    C66   S    
O6    V2    S    
C22   C24   A    
C73   H33   S    
C58   C75   S    
C49   C51   A    
C3    C32   S    
C46   H14   S    
C33   C43   A    
C4    C31   S    
C45   H13   S    
C6    C30   A    
O13   C65   A    
C61   C63   A    
O15   C67   A    
C76   H36   S    
C54   C64   A    
C35   C37   A    
C62   C64   A    
C52   C54   A    
C39   C45   A    
C17   C25   A    
C56   C58   A    
C59   F3    S    
C47   C49   A    
C12   H10   S    
C71   H27   S    
C27   H5    S    
O5    V1    S    
C71   H28   S    
C10   F8    S    
C66   O17   A    
C5    H3    S    
H1    C29   S    
C5    C29   A    
C40   C42   A    
O4    V2    S    
C74   H30   S    
C75   H37   S    
O13   V3    S    
C57   C73   S    
O6    C4    A    
C42   C52   A    
C48   C71   S    
C37   C39   A    
O1    V2    S    
C5    C21   A    
O2    V1    S    
C51   C53   A    
C72   H24   S    
C69   C70   S    
O12   V3    S    
O4    C2    A    
C59   C61   A    
C23   F5    S    
C43   C57   A    
O14   C66   A    
C33   F9    S    
C17   C31   A    
O19   V4    S    
C15   C19   A    
C20   C28   A    
C62   C67   S    
C18   C32   A    
C56   H18   S    
C61   C68   S    
C37   F1    S    
O3    V1    S    
C71   C72   S    
O18   V4    S    
C55   C57   A    
C73   C74   S    
C13   H7    S    
C28   H6    S    
O12   C68   A    
C9    F7    S    
C1    C36   S    
C6    H4    S    
C2    C35   S    
C50   C60   A    
C75   C76   S    
O3    C1    A    
O11   V4    S    
C70   H20   S    
C11   H9    S    
C9    C11   A    
C76   H34   S    
C10   C12   A    
C41   C51   A    
O17   V3    S    
C44   C58   A    
C24   F6    S    
C74   H29   S    
O7    V1    S    
C8    C30   A    
C12   C14   A    
C13   C15   A    
O8    V2    S    
C20   C22   A    
C14   C16   A    
C34   C44   A    
C14   H8    S    
C8    C28   A    
C24   C26   A    
C65   O18   A    
C54   C56   A    
C6    C22   A    
C72   H25   S    
C70   H21   S    
O16   V4    S    
C73   H32   S    
C74   H31   S    
C1    O8    A    
C38   F2    S    
C53   C63   A    
C21   C23   A    
O9    V2    S    
O10   V1    S    
C46   C48   A    
C34   C36   A    
C49   C59   A    
H2    C30   S    
C16   C18   A    
