data_mof_unit_39410.cif
_audit_creation_date              2012-12-10T18:09:37-0500
_audit_creation_method            fapswitch 2.2
_symmetry_space_group_name_H-M    P1
_symmetry_Int_Tables_number       1
_space_group_crystal_system       triclinic
_cell_length_a                    15.533048
_cell_length_b                    15.156308
_cell_length_c                    9.941427
_cell_angle_alpha                 90.527934
_cell_angle_beta                  89.614766
_cell_angle_gamma                 89.243836
_cell_volume                      2340.08912158

loop_
_atom_site_label
_atom_site_type_symbol
_atom_type_description
_atom_site_fract_x
_atom_site_fract_y
_atom_site_fract_z
_atom_type_partial_charge
C1    C     C_R   0.115550 0.376929 0.499068 0.803169
C2    C     C_R   0.120778 0.618763 0.499329 0.878109
C3    C     C_R   0.614434 0.876122 0.499097 0.825242
C4    C     C_R   0.619563 0.119915 0.500452 0.870715
C5    C     C_3   0.085005 0.468919 0.079759 -0.182764
C6    C     C_3   0.078072 0.452425 0.918447 -0.196141
C7    C     C_3   0.587681 0.977710 0.080101 -0.184455
C8    C     C_3   0.582443 0.960689 0.918373 -0.193474
C9    C     C_R   0.881460 0.380185 0.500037 0.795246
C10   C     C_R   0.875688 0.613656 0.500570 0.826562
C11   C     C_R   0.382803 0.878985 0.499650 0.806172
C12   C     C_R   0.377267 0.115415 0.500632 0.824225
C13   C     C_3   0.853781 0.216531 0.503799 -0.353438
C14   C     C_3   0.757865 0.315497 0.374415 -0.402035
C15   C     C_3   0.747849 0.677333 0.632760 -0.359223
C16   C     C_3   0.840097 0.771315 0.488648 -0.333225
C17   C     C_3   0.338983 0.731548 0.399748 -0.347454
C18   C     C_3   0.228011 0.850187 0.456857 -0.437635
C19   C     C_3   0.261904 0.191453 0.641376 -0.362484
C20   C     C_3   0.341663 0.272372 0.465426 -0.322284
C21   C     C_3   0.274773 0.654119 0.416642 0.070170
C22   C     C_3   0.163280 0.776308 0.428414 0.116978
C23   C     C_3   0.187281 0.259013 0.638458 0.076875
C24   C     C_3   0.270584 0.343452 0.461127 0.091748
C25   C     C_3   0.782360 0.145443 0.492659 0.067032
C26   C     C_3   0.679348 0.255379 0.384085 0.104028
C27   C     C_3   0.672250 0.744566 0.626723 0.079725
C28   C     C_3   0.770388 0.843666 0.491205 0.065441
C29   C     C_3   0.751902 0.322450 0.622072 -0.360326
C30   C     C_3   0.736111 0.661403 0.385665 -0.326325
C31   C     C_3   0.301889 0.767705 0.636986 -0.320495
C32   C     C_3   0.230437 0.154285 0.404359 -0.330536
C33   C     C_3   0.813162 0.310262 0.500637 -0.010083
C34   C     C_3   0.801482 0.678848 0.501168 -0.039736
C35   C     C_3   0.315024 0.808877 0.497533 -0.018316
C36   C     C_3   0.304432 0.181495 0.501441 -0.032228
C37   C     C_3   0.192411 0.687487 0.496356 -0.066356
C38   C     C_3   0.181655 0.303716 0.496886 -0.041746
C39   C     C_3   0.690283 0.189336 0.502163 -0.074660
C40   C     C_3   0.679685 0.802347 0.496949 -0.037968
C41   C     C_3   0.221870 0.710314 0.639910 -0.289899
C42   C     C_3   0.162660 0.229969 0.391615 -0.306282
C43   C     C_3   0.689146 0.245775 0.632510 -0.254014
C44   C     C_3   0.671046 0.739323 0.373350 -0.307390
C45   C     C_3   0.985204 0.592957 0.080740 0.112078
C46   C     C_3   0.009300 0.593401 0.919670 0.123516
C47   C     C_3   0.934974 0.436595 0.083981 0.149671
C48   C     C_3   0.927682 0.445988 0.918374 0.126759
C49   C     C_3   0.474395 0.089906 0.080784 0.111951
C50   C     C_3   0.501156 0.093991 0.921632 0.120374
C51   C     C_3   0.441636 0.929945 0.083808 0.139146
C52   C     C_3   0.433610 0.938823 0.918192 0.123246
Cu1   Cu    Cu3+1 0.000100 0.500000 0.642410 1.030394
Cu2   Cu    Cu3+1 0.000100 0.500000 0.357590 1.039642
Cu3   Cu    Cu3+1 0.500100 1.000000 0.642410 1.038592
Cu4   Cu    Cu3+1 0.500100 1.000000 0.357590 1.036618
H1    H     H_    0.890653 0.209219 0.598449 0.269542
H2    H     H_    0.736829 0.384761 0.358416 0.233250
H3    H     H_    0.724181 0.609523 0.650758 0.230173
H4    H     H_    0.879454 0.774884 0.396072 0.289950
H5    H     H_    0.406628 0.709613 0.416739 0.239577
H6    H     H_    0.204361 0.894349 0.539735 0.214722
H7    H     H_    0.239039 0.126477 0.676066 0.256936
H8    H     H_    0.379357 0.269636 0.371390 0.297024
H9    H     H_    0.900782 0.207438 0.419654 0.190620
H10   H     H_    0.798502 0.291348 0.289638 0.236744
H11   H     H_    0.788209 0.696141 0.718454 0.253262
H12   H     H_    0.883536 0.783118 0.574440 0.189608
H13   H     H_    0.336421 0.753805 0.294969 0.234708
H14   H     H_    0.233665 0.892274 0.367644 0.211805
H15   H     H_    0.309245 0.215687 0.713250 0.223844
H16   H     H_    0.389074 0.292474 0.541860 0.163242
H17   H     H_    0.256232 0.628892 0.315618 0.194107
H18   H     H_    0.164451 0.766662 0.318561 0.191094
H19   H     H_    0.199113 0.309683 0.717787 0.151810
H20   H     H_    0.284756 0.393338 0.539560 0.168384
H21   H     H_    0.788990 0.111103 0.393897 0.186981
H22   H     H_    0.677801 0.218184 0.288190 0.202017
H23   H     H_    0.674814 0.787095 0.718422 0.161384
H24   H     H_    0.778829 0.883450 0.584049 0.180878
H25   H     H_    0.789134 0.321433 0.714027 0.277424
H26   H     H_    0.716407 0.386558 0.615881 0.202975
H27   H     H_    0.700565 0.599634 0.406377 0.215044
H28   H     H_    0.767936 0.650329 0.288462 0.243878
H29   H     H_    0.358999 0.726498 0.662349 0.276518
H30   H     H_    0.292524 0.819339 0.712775 0.247153
H31   H     H_    0.198221 0.094785 0.444629 0.196153
H32   H     H_    0.254059 0.133809 0.304322 0.238185
H33   H     H_    0.238803 0.649298 0.694451 0.258380
H34   H     H_    0.169500 0.746983 0.693593 0.268124
H35   H     H_    0.096817 0.203688 0.405875 0.213101
H36   H     H_    0.164345 0.256318 0.287807 0.221725
H37   H     H_    0.712079 0.204744 0.715393 0.273636
H38   H     H_    0.624528 0.272181 0.658227 0.247908
H39   H     H_    0.604585 0.713702 0.365379 0.229550
H40   H     H_    0.683509 0.774916 0.278141 0.221453
H41   H     H_    0.136713 0.516214 0.103245 0.235674
H42   H     H_    0.139102 0.467176 0.865601 0.205145
H43   H     H_    0.110033 0.408221 0.127206 0.221902
H44   H     H_    0.078759 0.380541 0.899721 0.220002
H45   H     H_    0.634338 0.029980 0.104680 0.228734
H46   H     H_    0.641371 0.982190 0.865337 0.220159
H47   H     H_    0.618815 0.920043 0.127923 0.214290
H48   H     H_    0.590637 0.889199 0.899595 0.205260
N1    N     N_3   0.001260 0.500000 0.143650 -0.252606
N2    N     N_3   0.001260 0.500000 0.856350 -0.255981
N3    N     N_3   0.501260 1.000000 0.143650 -0.253218
N4    N     N_3   0.501260 1.000000 0.856350 -0.248655
O1    O     O_R   0.091250 0.408820 0.620260 -0.579379
O2    O     O_R   0.091250 0.408820 0.379740 -0.549050
O3    O     O_R   0.091250 0.591180 0.620260 -0.523018
O4    O     O_R   0.091250 0.591180 0.379740 -0.540405
O5    O     O_R   0.591250 0.908820 0.620260 -0.578115
O6    O     O_R   0.591250 0.908820 0.379740 -0.550653
O7    O     O_R   0.591250 0.091180 0.620260 -0.505085
O8    O     O_R   0.591250 0.091180 0.379740 -0.549452
O9    O     O_R   0.908940 0.408800 0.620260 -0.565595
O10   O     O_R   0.908940 0.408800 0.379740 -0.554878
O11   O     O_R   0.908940 0.591200 0.620260 -0.551331
O12   O     O_R   0.908940 0.591200 0.379740 -0.536390
O13   O     O_R   0.408940 0.908800 0.620260 -0.564459
O14   O     O_R   0.408940 0.908800 0.379740 -0.561846
O15   O     O_R   0.408940 0.091200 0.620260 -0.540714
O16   O     O_R   0.408940 0.091200 0.379740 -0.540510
Br1   Br    Br    0.337047 0.559304 0.507087 -0.450778
Br2   Br    Br    0.049548 0.820153 0.474155 -0.476059
Br3   Br    Br    0.081210 0.199011 0.687828 -0.433600
Br4   Br    Br    0.274933 0.401121 0.284879 -0.441108
Br5   Br    Br    0.802388 0.058281 0.633242 -0.443220
Br6   Br    Br    0.575376 0.330705 0.405649 -0.441692
Br7   Br    Br    0.563424 0.681085 0.634987 -0.437357
Br8   Br    Br    0.787879 0.921567 0.336941 -0.475555
Br9   Br    Br    0.056772 0.684813 0.163606 -0.392190
Br10  Br    Br    0.133540 0.632813 0.899229 -0.467419
Br11  Br    Br    0.970395 0.315493 0.148316 -0.432664
Br12  Br    Br    0.929856 0.321658 0.850720 -0.353764
Br13  Br    Br    0.532000 0.187060 0.170284 -0.355141
Br14  Br    Br    0.620537 0.146456 0.906845 -0.444055
Br15  Br    Br    0.489052 0.813428 0.147693 -0.443400
Br16  Br    Br    0.448368 0.817127 0.847429 -0.378768
C53   C     C_2   0.894845 0.635798 0.109032 0.934250
O17   O     O_2   0.829894 0.606848 0.058683 -0.592753
O18   O     O_R   0.886943 0.719677 0.169393 -0.684540
H49   H     H_    0.829063 0.749489 0.153826 0.354774
C54   C     C_2   0.966216 0.671385 0.842753 1.003817
O19   O     O_2   0.897466 0.704102 0.877180 -0.595569
O20   O     O_R   0.010928 0.715798 0.742456 -0.709705
H50   H     H_    0.986912 0.777330 0.727788 0.349806
C55   C     C_2   0.843179 0.439003 0.142258 0.898762
O21   O     O_2   0.818670 0.492828 0.226202 -0.602384
O22   O     O_R   0.785589 0.374471 0.099688 -0.685106
H51   H     H_    0.723812 0.387816 0.127618 0.367550
C56   C     C_2   0.839442 0.479597 0.867858 0.905372
O23   O     O_2   0.831644 0.552355 0.821101 -0.585665
O24   O     O_R   0.765537 0.428434 0.873931 -0.719547
H52   H     H_    0.711935 0.460523 0.841482 0.349015
C57   C     C_2   0.378782 0.121453 0.103084 0.942162
O25   O     O_2   0.319595 0.088376 0.042692 -0.596843
O26   O     O_R   0.359545 0.202467 0.165758 -0.681817
H53   H     H_    0.299692 0.225952 0.144852 0.362919
C58   C     C_2   0.455770 0.170671 0.846141 0.994741
O27   O     O_2   0.396626 0.213269 0.896512 -0.593369
O28   O     O_R   0.493407 0.206526 0.731425 -0.728685
H54   H     H_    0.471799 0.268412 0.712366 0.323385
C59   C     C_2   0.350045 0.922401 0.142607 0.927576
O29   O     O_2   0.317324 0.978241 0.216517 -0.609941
O30   O     O_R   0.303175 0.846247 0.113717 -0.679124
H55   H     H_    0.241364 0.849808 0.146626 0.350283
C60   C     C_2   0.342973 0.963314 0.867752 0.902922
O31   O     O_2   0.331025 0.030561 0.805581 -0.587877
O32   O     O_R   0.271640 0.910612 0.892626 -0.716873
H56   H     H_    0.216125 0.935851 0.854825 0.354086

loop_
_geom_bond_atom_site_label_1
_geom_bond_atom_site_label_2
_ccdc_geom_bond_type
C16   C28   S    
C41   H33   S    
Cu3   Cu4   S    
Cu3   O13   S    
C17   H13   S    
C57   O25   D    
C31   H29   S    
Cu2   O12   S    
C27   Br7   S    
C60   O31   D    
C4    O7    A    
C19   H15   S    
O28   H54   S    
C48   C56   S    
C25   Br5   S    
C14   C33   S    
C58   O27   D    
C7    C8    S    
C49   N3    S    
C13   H9    S    
C45   C46   S    
C29   H25   S    
C2    O4    A    
C59   O29   D    
C37   C41   S    
C25   H21   S    
Cu4   O16   S    
C38   C42   S    
C49   Br13  S    
C19   C36   S    
C53   O18   S    
O26   H53   S    
C5    C6    S    
Cu1   O9    S    
C26   C39   S    
C22   Br2   S    
C46   C54   S    
C13   H1    S    
C28   C40   S    
O18   H49   S    
C32   H32   S    
C21   H17   S    
C43   H38   S    
C9    O9    A    
Cu2   O2    S    
C42   H35   S    
C16   H4    S    
C30   H27   S    
C10   O11   A    
O20   H50   S    
C1    O1    A    
Cu1   N2    S    
C48   N2    S    
C5    H43   S    
C29   C33   S    
C19   H7    S    
C47   N1    S    
C24   C38   S    
O22   H51   S    
C58   O28   S    
C16   H12   S    
C12   C36   S    
C18   C35   S    
C15   C34   S    
C26   Br6   S    
C48   Br12  S    
C17   H5    S    
Cu1   O3    S    
C41   H34   S    
C59   O30   S    
C31   H30   S    
C7    H47   S    
C29   C43   S    
C50   C58   S    
C9    C33   S    
C9    O10   A    
C60   O32   S    
C30   C44   S    
C11   O13   A    
C8    N4    S    
C54   O20   S    
C45   N1    S    
C54   O19   D    
C6    N2    S    
C14   H2    S    
Cu3   O15   S    
C2    O3    A    
C30   C34   S    
C51   C52   S    
C20   C24   S    
C49   C57   S    
C3    O5    A    
O30   H55   S    
C47   C55   S    
C24   H20   S    
C5    N1    S    
Cu3   O5    S    
Cu1   Cu2   S    
C22   C37   S    
C50   N4    S    
C17   C21   S    
C28   Br8   S    
Cu4   O14   S    
C20   H8    S    
C19   C23   S    
Cu4   N3    S    
C13   C33   S    
C16   C34   S    
C44   H40   S    
C1    O2    A    
C46   Br10  S    
C15   C27   S    
C47   C48   S    
C12   O16   A    
C4    C39   S    
C27   C40   S    
C52   Br16  S    
C15   H11   S    
C50   Br14  S    
Cu4   O8    S    
Cu2   O4    S    
C10   C34   S    
C26   H22   S    
C14   C26   S    
C32   C36   S    
C8    H48   S    
O32   H56   S    
C1    C38   S    
C45   C53   S    
C51   N3    S    
C5    H41   S    
C3    C40   S    
Cu2   O10   S    
C7    N3    S    
C51   C59   S    
C11   O14   A    
C56   O24   S    
C22   H18   S    
C21   Br1   S    
C6    H42   S    
C23   Br3   S    
Cu1   O1    S    
C32   C42   S    
C31   C41   S    
Cu2   N1    S    
C47   Br11  S    
C18   C22   S    
C15   H3    S    
C14   H10   S    
C4    O8    A    
C18   H6    S    
C23   H19   S    
C13   C25   S    
C3    O6    A    
C52   C60   S    
C39   C43   S    
Cu1   O11   S    
C45   Br9   S    
C23   C38   S    
C27   H23   S    
C18   H14   S    
Cu3   N4    S    
C55   O22   S    
C29   H26   S    
C44   H39   S    
C55   O21   D    
C25   C39   S    
C32   H31   S    
C2    C37   S    
C12   O15   A    
Cu3   O7    S    
C46   N2    S    
C31   C35   S    
C11   C35   S    
C43   H37   S    
C42   H36   S    
C30   H28   S    
C28   H24   S    
C10   O12   A    
C20   C36   S    
C40   C44   S    
C21   C37   S    
C52   N4    S    
C57   O26   S    
C49   C50   S    
C7    H45   S    
O24   H52   S    
C24   Br4   S    
Cu4   O6    S    
C20   H16   S    
C17   C35   S    
C56   O23   D    
C53   O17   D    
C8    H46   S    
C6    H44   S    
C51   Br15  S    
