data_mof_unit_11262.cif
_audit_creation_date              2012-12-11T17:00:26-0500
_audit_creation_method            fapswitch 2.2
_symmetry_space_group_name_H-M    P1
_symmetry_Int_Tables_number       1
_space_group_crystal_system       triclinic
_cell_length_a                    6.959668
_cell_length_b                    13.532944
_cell_length_c                    20.303948
_cell_angle_alpha                 103.187377
_cell_angle_beta                  89.894802
_cell_angle_gamma                 90.742653
_cell_volume                      1861.73607319

loop_
_atom_site_label
_atom_site_type_symbol
_atom_type_description
_atom_site_fract_x
_atom_site_fract_y
_atom_site_fract_z
_atom_type_partial_charge
O1    O     O_R   0.506770 0.599700 0.449550 -0.545040
O2    O     O_R   0.179980 0.595740 0.587960 -0.550724
O3    O     O_R   0.004580 0.400300 0.550450 -0.539552
C1    C     C_R   0.348452 0.617532 0.615075 0.710466
O4    O     O_R   0.177380 0.611700 0.452380 -0.539613
O5    O     O_R   0.001970 0.416370 0.413900 -0.539580
C2    C     C_R   0.346991 0.638003 0.435501 0.730472
O6    O     O_R   0.509390 0.583630 0.586100 -0.544526
O7    O     O_3   0.337530 0.435890 0.487530 -0.355417
V1    V     V_3+5 0.064660 0.511890 0.502310 1.455705
O8    O     O_R   0.671950 0.404260 0.412040 -0.517577
C3    C     C_R   0.840275 0.382575 0.384844 0.731748
O9    O     O_R   0.674540 0.388300 0.547620 -0.536268
C4    C     C_R   0.842186 0.361986 0.564631 0.699842
V2    V     V_3+5 0.564030 0.488110 0.497690 1.498379
O10   O     O_3   0.841030 0.564110 0.512470 -0.383573
C5    C     C_R   0.802724 0.110131 0.611611 -0.130335
H1    H     H_    0.797617 0.159719 0.518581 0.155666
H2    H     H_    0.780226 0.985393 0.694734 0.139101
H3    H     H_    0.779026 0.031363 0.586143 0.133895
C6    C     C_R   0.845506 0.284644 0.604465 -0.052871
C7    C     C_R   0.891634 0.317835 0.930687 -0.193870
C8    C     C_R   0.898115 0.394809 0.895426 0.021421
C9    C     C_R   0.883083 0.371296 0.824921 -0.196954
C10   C     C_R   0.859406 0.269549 0.787909 0.070693
C11   C     C_R   0.846670 0.191690 0.824788 0.042554
C12   C     C_R   0.847719 0.242434 0.715626 0.083846
C13   C     C_R   0.818411 0.138801 0.682361 0.103331
C14   C     C_R   0.803187 0.064426 0.719785 -0.157594
C15   C     C_R   0.817303 0.090256 0.789761 -0.126307
C16   C     C_R   0.863342 0.314341 0.674898 -0.209856
C17   C     C_R   0.814279 0.182786 0.573006 -0.123311
C18   C     C_R   0.865530 0.216753 0.896175 -0.093395
H4    H     H_    0.885806 0.394184 0.696051 0.091336
H5    H     H_    0.906929 0.336550 0.985321 0.122084
H6    H     H_    0.889619 0.434293 0.800700 0.107192
H7    H     H_    0.803822 0.029662 0.816289 0.162464
C19   C     C_R   0.715569 0.255540 0.202358 -0.012221
C20   C     C_R   0.867559 0.188217 0.182712 -0.075202
C21   C     C_R   0.018298 0.191233 0.229430 -0.136456
H8    H     H_    0.137827 0.140195 0.216718 0.130408
C22   C     C_R   0.009600 0.254810 0.294837 -0.133786
H9    H     H_    0.121770 0.251306 0.330763 0.200595
C23   C     C_R   0.850111 0.316829 0.315670 -0.034042
C24   C     C_R   0.706456 0.317480 0.267625 0.005861
C25   C     C_3   0.496436 0.297795 0.272652 0.435065
C26   C     C_3   0.505342 0.232842 0.200935 -0.284022
H10   H     H_    0.408853 0.367623 0.279896 0.061944
H11   H     H_    0.471599 0.151134 0.196317 0.147783
C27   C     C_R   0.488046 0.672544 0.732258 0.099865
C28   C     C_R   0.352031 0.683987 0.683983 -0.178902
C29   C     C_R   0.204851 0.754907 0.705477 -0.259128
H12   H     H_    0.093312 0.764682 0.670487 0.148300
C30   C     C_R   0.206758 0.818910 0.770833 0.594304
C31   C     C_R   0.354011 0.812105 0.817224 -0.214298
C32   C     C_R   0.488809 0.734787 0.797117 0.003058
C33   C     C_3   0.702975 0.739005 0.799641 -0.346607
C34   C     C_3   0.702039 0.671219 0.728687 -0.385015
H13   H     H_    0.761644 0.701293 0.838387 0.179156
H14   H     H_    0.759626 0.816682 0.801839 0.228573
H15   H     H_    0.760041 0.594407 0.726585 0.155871
H16   H     H_    0.759163 0.709509 0.689656 0.177492
C35   C     C_R   0.446529 0.883568 0.386004 0.636640
H17   H     H_    0.464436 0.830606 0.477377 0.137240
H18   H     H_    0.455299 0.011171 0.303758 0.219562
C36   C     C_R   0.360364 0.713457 0.394180 -0.163160
C37   C     C_R   0.345555 0.681341 0.067507 -0.138564
C38   C     C_R   0.352972 0.604282 0.102308 -0.094409
C39   C     C_R   0.363393 0.627579 0.172691 -0.135492
C40   C     C_R   0.358039 0.729361 0.210555 0.098525
C41   C     C_R   0.366758 0.807759 0.174238 0.074773
C42   C     C_R   0.360985 0.755962 0.283064 -0.036622
C43   C     C_R   0.411025 0.857698 0.316045 -0.002488
C44   C     C_R   0.424070 0.932847 0.279006 -0.118930
C45   C     C_R   0.394575 0.908996 0.209676 -0.217621
C46   C     C_R   0.315195 0.687016 0.324664 -0.106682
C47   C     C_R   0.429586 0.810504 0.423935 -0.258158
C48   C     C_R   0.355705 0.782774 0.102729 -0.076949
H19   H     H_    0.339671 0.661875 0.012721 0.124595
H20   H     H_    0.387222 0.564729 0.195927 0.132521
H21   H     H_    0.355273 0.525864 0.074489 0.148607
H22   H     H_    0.402747 0.970325 0.183650 0.110562
O11   O     O_R   0.203450 0.916320 0.913910 -0.508085
O12   O     O_R   0.535520 0.888300 0.047620 -0.541346
O13   O     O_R   0.710860 0.083650 0.086100 -0.545058
C49   C     C_R   0.365961 0.861007 0.063614 0.679145
O14   O     O_R   0.532860 0.904250 0.912040 -0.552834
O15   O     O_R   0.708190 0.099710 0.949550 -0.543833
C50   C     C_R   0.364188 0.882824 0.884732 0.756634
O16   O     O_R   0.206120 0.900260 0.050460 -0.541479
O17   O     O_3   0.375280 0.064080 0.012470 -0.371656
V3    V     V_3+5 0.648180 0.988110 0.997690 1.459490
O18   O     O_R   0.038220 0.111740 0.952370 -0.527644
C51   C     C_R   0.870371 0.138282 0.935540 0.715439
O19   O     O_R   0.040880 0.095790 0.087940 -0.543552
C52   C     C_R   0.872785 0.117388 0.115194 0.693143
V4    V     V_3+5 0.148800 0.011950 0.002300 1.505322
O20   O     O_3   0.871820 0.935920 0.987530 -0.366245
F1    F     F_    0.460845 0.239874 0.319559 -0.686732
C53   C     C_1   0.405156 0.277730 0.151296 0.297867
N1    N     N_1   0.326087 0.312994 0.112271 -0.356167
F2    F     F_    0.074332 0.893104 0.786357 -0.728823
F3    F     F_    0.502408 0.979205 0.417546 -0.687110
C54   C     C_1   0.201107 0.595582 0.299987 0.290383
N2    N     N_1   0.109316 0.522805 0.280660 -0.376609
C55   C     C_1   0.921680 0.498916 0.931834 0.282849
N3    N     N_1   0.940387 0.582539 0.961035 -0.369477

loop_
_geom_bond_atom_site_label_1
_geom_bond_atom_site_label_2
_ccdc_geom_bond_type
C34   H16   S    
C31   C32   A    
C46   C54   S    
O18   C51   A    
H17   C47   S    
O19   C52   A    
C1    O6    A    
C18   C51   S    
V4    O20   S    
V3    O20   S    
C26   H11   S    
C24   C25   S    
C23   C24   A    
C7    H5    S    
C6    C16   A    
C9    H6    S    
C38   H21   S    
C4    C6    S    
C13   C14   A    
O12   C49   A    
O5    C3    A    
C19   C20   A    
O13   C52   A    
C33   H13   S    
C55   N3    T    
V2    O10   S    
C5    H3    S    
C32   C33   S    
C43   C44   A    
C7    C18   A    
C19   C24   A    
C30   C31   A    
O8    V2    S    
O15   V3    S    
C38   C39   A    
C8    C9    A    
C40   C41   A    
O1    V2    S    
O7    V1    S    
O16   V4    S    
C42   C46   A    
C48   C49   S    
C34   H15   S    
C21   C22   A    
O14   V3    S    
C37   C48   A    
C22   C23   A    
C54   N2    T    
O13   V3    S    
C29   C30   A    
C25   H10   S    
O11   C50   A    
C6    C17   A    
O15   C51   A    
C44   C45   A    
C1    C28   S    
C12   C16   A    
C28   C29   A    
C27   C34   S    
C37   H19   S    
C9    C10   A    
C35   F3    S    
C49   O16   A    
O17   V3    S    
O4    C2    A    
C33   H14   S    
C35   C43   A    
C10   C11   A    
C8    C55   S    
C27   C32   A    
H18   C44   S    
C37   C38   A    
C15   H7    S    
O2    C1    A    
C14   C15   A    
C11   C18   A    
C36   C46   A    
C27   C28   A    
C16   H4    S    
O17   V4    S    
C19   C26   S    
O3    C4    A    
C21   H8    S    
C11   C15   A    
O6    V2    S    
O14   C50   A    
H1    C17   S    
C22   H9    S    
O2    V1    S    
O18   V4    S    
C20   C21   A    
C29   H12   S    
C35   C47   A    
C36   C47   A    
C25   C26   S    
O1    C2    A    
C5    C13   A    
C30   F2    S    
C42   C43   A    
O5    V1    S    
O8    C3    A    
O19   V4    S    
C45   H22   S    
C10   C12   A    
C25   F1    S    
O9    V2    S    
O7    V2    S    
O4    V1    S    
C3    C23   S    
O3    V1    S    
V1    O10   S    
C2    C36   S    
C41   C45   A    
C33   C34   S    
C53   N1    T    
C39   C40   A    
C20   C52   S    
C26   C53   S    
C31   C50   S    
O11   V4    S    
C12   C13   A    
C5    C17   A    
C7    C8    A    
C39   H20   S    
C40   C42   A    
O12   V3    S    
O9    C4    A    
C41   C48   A    
H2    C14   S    
