data_mof_unit_46152.cif
_audit_creation_date              2012-12-11T17:38:31-0500
_audit_creation_method            fapswitch 2.2
_symmetry_space_group_name_H-M    P1
_symmetry_Int_Tables_number       1
_space_group_crystal_system       monoclinic
_cell_length_a                    24.94231
_cell_length_b                    7.148674
_cell_length_c                    22.546803
_cell_angle_alpha                 90.0
_cell_angle_beta                  96.309098
_cell_angle_gamma                 90.0
_cell_volume                      3995.84691154

loop_
_atom_site_label
_atom_site_type_symbol
_atom_type_description
_atom_site_fract_x
_atom_site_fract_y
_atom_site_fract_z
_atom_type_partial_charge
O1    O     O_R   0.551910 0.505710 0.449140 -0.538609
O2    O     O_R   0.448090 0.005710 0.550860 -0.538609
O3    O     O_R   0.442510 0.174130 0.436530 -0.545082
O4    O     O_R   0.557490 0.674130 0.563470 -0.545082
C1    C     C_R   0.423933 0.343606 0.421472 0.680858
C2    C     C_R   0.576067 0.843606 0.578528 0.680858
O5    O     O_R   0.551150 0.175880 0.442070 -0.513785
O6    O     O_R   0.448850 0.675880 0.557930 -0.513785
O7    O     O_R   0.557510 0.007410 0.556440 -0.526840
O8    O     O_R   0.442490 0.507410 0.443560 -0.526840
C3    C     C_R   0.567546 0.344781 0.427517 0.724545
C4    C     C_R   0.432454 0.844781 0.572483 0.724545
O9    O     O_3   0.501960 0.339800 0.537520 -0.373007
O10   O     O_3   0.498040 0.839800 0.462480 -0.373007
V1    V     V_3+5 0.499640 0.064240 0.493040 1.454498
V2    V     V_3+5 0.500360 0.564240 0.506960 1.454499
C5    C     C_R   0.161906 0.065275 0.810506 -0.136121
C6    C     C_R   0.838094 0.565275 0.189494 -0.136121
H1    H     H_    0.167383 0.176940 0.779245 0.186712
H2    H     H_    0.832617 0.676940 0.220755 0.186712
C7    C     C_R   0.120540 0.080627 0.847748 -0.095085
C8    C     C_R   0.879460 0.580627 0.152252 -0.095085
H3    H     H_    0.094968 0.203438 0.844281 0.157066
H4    H     H_    0.905032 0.703438 0.155719 0.157066
C9    C     C_R   0.112153 0.938235 0.888659 -0.135125
C10   C     C_R   0.887847 0.438235 0.111341 -0.135125
C11   C     C_R   0.146331 0.781211 0.891668 -0.226424
C12   C     C_R   0.853669 0.281211 0.108332 -0.226423
H5    H     H_    0.141089 0.671951 0.923776 0.180648
H6    H     H_    0.858911 0.171951 0.076224 0.180648
C13   C     C_R   0.188194 0.765091 0.855063 0.499105
C14   C     C_R   0.811806 0.265091 0.144937 0.499105
C15   C     C_R   0.196244 0.908893 0.813842 -0.054661
C16   C     C_R   0.803755 0.408893 0.186158 -0.054660
C17   C     C_1   0.239092 0.899733 0.774860 0.100141
C18   C     C_1   0.760908 0.399734 0.225140 0.100141
C19   C     C_1   0.274597 0.891560 0.742094 0.066187
C20   C     C_1   0.725403 0.391560 0.257906 0.066187
C21   C     C_R   0.321371 0.023413 0.660769 -0.156026
C22   C     C_R   0.678629 0.523413 0.339230 -0.156026
H7    H     H_    0.294564 0.143028 0.659199 0.175017
H8    H     H_    0.705436 0.643028 0.340800 0.175017
C23   C     C_R   0.359403 0.011639 0.619649 -0.196053
C24   C     C_R   0.640597 0.511639 0.380351 -0.196054
H9    H     H_    0.360816 0.123112 0.587320 0.167264
H10   H     H_    0.639184 0.623112 0.412679 0.167264
C25   C     C_R   0.393878 0.855942 0.618722 -0.213203
C26   C     C_R   0.606122 0.355942 0.381278 -0.213201
C27   C     C_R   0.391202 0.714689 0.662644 0.339479
C28   C     C_R   0.608797 0.214688 0.337356 0.339480
C29   C     C_R   0.352961 0.727830 0.704407 0.386510
C30   C     C_R   0.647039 0.227830 0.295593 0.386510
C31   C     C_R   0.316991 0.881093 0.702593 -0.075011
C32   C     C_R   0.683008 0.381093 0.297407 -0.075011
C33   C     C_3   0.742874 0.869093 0.820565 -0.415874
C34   C     C_3   0.257125 0.369092 0.179435 -0.415881
C35   C     C_3   0.780816 0.101231 0.754305 -0.517278
C36   C     C_3   0.219184 0.601231 0.245695 -0.517278
C37   C     C_3   0.726628 0.088366 0.709278 0.732131
C38   C     C_3   0.273372 0.588366 0.290721 0.732127
H11   H     H_    0.730544 0.994066 0.845105 0.241418
H12   H     H_    0.269456 0.494065 0.154895 0.241415
H13   H     H_    0.816869 0.133521 0.731756 0.169558
H14   H     H_    0.183131 0.633521 0.268244 0.169558
H15   H     H_    0.777663 0.216298 0.786110 0.224317
H16   H     H_    0.222337 0.716298 0.213890 0.224316
C39   C     C_1   0.621237 0.848300 0.624855 -0.103727
C40   C     C_1   0.378762 0.348300 0.375145 -0.103729
C41   C     C_3   0.793887 0.916543 0.789513 -0.033367
C42   C     C_3   0.206113 0.416543 0.210487 -0.033363
C43   C     C_3   0.696570 0.804923 0.773900 0.343418
C44   C     C_3   0.303430 0.304922 0.226100 0.343419
C45   C     C_3   0.706472 0.879692 0.709885 -0.102894
C46   C     C_3   0.293528 0.379692 0.290115 -0.102892
C47   C     C_3   0.755077 0.761345 0.692466 -0.523760
C48   C     C_3   0.244923 0.261346 0.307534 -0.523760
C49   C     C_3   0.803949 0.755150 0.743640 0.734120
C50   C     C_3   0.196051 0.255150 0.256360 0.734120
C51   C     C_1   0.659217 0.854676 0.663523 0.230879
C52   C     C_1   0.340783 0.354676 0.336477 0.230877
C53   C     C_1   0.840337 0.940845 0.836623 0.017900
C54   C     C_1   0.159662 0.440845 0.163377 0.017899
C55   C     C_1   0.878266 0.948950 0.875378 -0.171462
C56   C     C_1   0.121734 0.448949 0.124622 -0.171461
H17   H     H_    0.740913 0.620236 0.682297 0.213202
H18   H     H_    0.259086 0.120237 0.317704 0.213201
H19   H     H_    0.751283 0.756837 0.854345 0.194686
H20   H     H_    0.248717 0.256837 0.145655 0.194686
H21   H     H_    0.700371 0.651084 0.771478 0.208089
H22   H     H_    0.299629 0.151084 0.228522 0.208090
H23   H     H_    0.767025 0.809878 0.649131 0.232594
H24   H     H_    0.232975 0.309879 0.350869 0.232594
O11   O     O_R   0.057480 0.291690 0.056480 -0.531077
O12   O     O_R   0.942520 0.791690 0.943520 -0.531077
O13   O     O_R   0.948840 0.619880 0.057940 -0.535911
O14   O     O_R   0.051160 0.119880 0.942060 -0.535911
C57   C     C_R   0.931290 0.450883 0.071036 0.723995
C58   C     C_R   0.068710 0.950883 0.928964 0.723995
O15   O     O_R   0.057480 0.621520 0.063480 -0.543669
O16   O     O_R   0.942520 0.121520 0.936520 -0.543669
O17   O     O_R   0.051910 0.789880 0.949130 -0.536284
O18   O     O_R   0.948090 0.289880 0.050870 -0.536284
C59   C     C_R   0.076278 0.453792 0.078589 0.734069
C60   C     C_R   0.923722 0.953792 0.921411 0.734070
O19   O     O_3   0.998020 0.455790 0.962510 -0.372538
O20   O     O_3   0.001980 0.955790 0.037490 -0.372538
V3    V     V_3+5 0.000370 0.731410 0.006960 1.443294
V4    V     V_3+5 0.999630 0.231410 0.993040 1.443294
S1    S     S_3+6 0.673950 0.247468 0.729664 0.023536
O21   O     O_2   0.619511 0.156195 0.724626 -0.310847
O22   O     O_2   0.686637 0.317495 0.792451 -0.295312
O23   O     O_3   0.666981 0.430091 0.682990 -0.538543
H25   H     H_    0.641016 0.389091 0.649061 0.339739
S2    S     S_3+6 0.326050 0.747468 0.270335 0.023547
O24   O     O_2   0.380489 0.656194 0.275373 -0.310831
O25   O     O_2   0.313363 0.817493 0.207548 -0.295309
O26   O     O_3   0.333019 0.930091 0.317008 -0.538543
H26   H     H_    0.358983 0.889092 0.350938 0.339737
O27   O     O_3   0.734181 0.126702 0.648126 -0.578886
C61   C     C_3   0.771481 0.269122 0.638118 0.136692
H27   H     H_    0.810492 0.204538 0.630677 0.204378
H28   H     H_    0.779269 0.366280 0.675898 0.165645
C62   C     C_3   0.751796 0.376522 0.581549 -0.673918
H29   H     H_    0.712477 0.444597 0.585692 0.213956
H30   H     H_    0.781612 0.486293 0.573336 0.217982
H31   H     H_    0.747107 0.279696 0.542801 0.227318
O28   O     O_3   0.265819 0.626703 0.351874 -0.578886
C63   C     C_3   0.228519 0.769123 0.361881 0.136690
H32   H     H_    0.189508 0.704538 0.369323 0.204378
H33   H     H_    0.220731 0.866281 0.324101 0.165645
C64   C     C_3   0.248205 0.876524 0.418451 -0.673919
H34   H     H_    0.287523 0.944600 0.414307 0.213955
H35   H     H_    0.218388 0.986294 0.426663 0.217982
H36   H     H_    0.252894 0.779698 0.457199 0.227319
O29   O     O_3   0.801181 0.576093 0.771994 -0.582124
C65   C     C_3   0.847862 0.518346 0.809508 0.133726
H37   H     H_    0.881352 0.619608 0.814571 0.186777
H38   H     H_    0.864016 0.390630 0.789867 0.154992
C66   C     C_3   0.833492 0.470056 0.871835 -0.748453
H39   H     H_    0.796284 0.384479 0.869723 0.255318
H40   H     H_    0.867120 0.390671 0.896457 0.198976
H41   H     H_    0.827269 0.598956 0.897465 0.215636
O30   O     O_3   0.198819 0.076093 0.228006 -0.582124
C67   C     C_3   0.152138 0.018346 0.190493 0.133726
H42   H     H_    0.118648 0.119609 0.185429 0.186777
H43   H     H_    0.135984 0.890630 0.210133 0.154992
C68   C     C_3   0.166507 0.970056 0.128165 -0.748452
H44   H     H_    0.203714 0.884474 0.130277 0.255315
H45   H     H_    0.132878 0.890676 0.103543 0.198976
H46   H     H_    0.172731 0.098956 0.102536 0.215636
S3    S     S_3+6 0.866290 0.779721 0.707418 -0.017407
O31   O     O_2   0.881023 0.591233 0.684515 -0.305896
O32   O     O_2   0.858766 0.910873 0.655124 -0.349825
O33   O     O_3   0.918602 0.858388 0.754335 -0.510000
H47   H     H_    0.917230 0.996499 0.750847 0.345016
S4    S     S_3+6 0.133710 0.279722 0.292583 -0.017407
O34   O     O_2   0.118977 0.091234 0.315485 -0.305896
O35   O     O_2   0.141234 0.410874 0.344877 -0.349825
O36   O     O_3   0.081398 0.358389 0.245665 -0.510000
H48   H     H_    0.082770 0.496501 0.249153 0.345015
S5    S     S_3+6 0.230862 0.567348 0.864599 -0.039983
O37   O     O_2   0.243080 0.494269 0.805040 -0.343311
O38   O     O_2   0.282366 0.624294 0.900943 -0.345739
O39   O     O_3   0.201364 0.397699 0.901228 -0.521482
H49   H     H_    0.228808 0.297377 0.907438 0.370991
S6    S     S_3+6 0.769138 0.067348 0.135401 -0.039982
O40   O     O_2   0.756920 0.994269 0.194960 -0.343311
O41   O     O_2   0.717634 0.124294 0.099057 -0.345737
O42   O     O_3   0.798636 0.897699 0.098772 -0.521482
H50   H     H_    0.771192 0.797377 0.092562 0.370992
O43   O     O_3   0.423314 0.556444 0.663367 -0.539685
C69   C     C_3   0.474742 0.597151 0.693467 0.106864
H51   H     H_    0.471909 0.657496 0.738378 0.129604
H52   H     H_    0.497074 0.697146 0.667518 0.125890
C70   C     C_3   0.507346 0.417431 0.701608 -0.506668
H53   H     H_    0.512868 0.355676 0.657544 0.212440
H54   H     H_    0.547602 0.447775 0.725789 0.257495
H55   H     H_    0.486206 0.314951 0.727860 0.202762
O44   O     O_3   0.576686 0.056444 0.336633 -0.539686
C71   C     C_3   0.525258 0.097150 0.306533 0.106859
H56   H     H_    0.528091 0.157495 0.261622 0.129606
H57   H     H_    0.502926 0.197146 0.332482 0.125891
C72   C     C_3   0.492654 0.917430 0.298392 -0.506655
H58   H     H_    0.487132 0.855675 0.342456 0.212437
H59   H     H_    0.452398 0.947774 0.274211 0.257497
H60   H     H_    0.513794 0.814950 0.272140 0.202766
O45   O     O_3   0.349286 0.582358 0.744208 -0.524870
C73   C     C_3   0.373378 0.636767 0.801305 0.159432
H61   H     H_    0.344394 0.719087 0.824560 0.185522
H62   H     H_    0.410243 0.723725 0.799767 0.062504
C74   C     C_3   0.389120 0.462405 0.837780 -0.532311
H63   H     H_    0.419469 0.380871 0.816069 0.192174
H64   H     H_    0.406724 0.502903 0.883346 0.188610
H65   H     H_    0.353088 0.373464 0.841249 0.257796
O46   O     O_3   0.650714 0.082358 0.255792 -0.524870
C75   C     C_3   0.626622 0.136766 0.198695 0.159430
H66   H     H_    0.655606 0.219087 0.175440 0.185523
H67   H     H_    0.589757 0.223725 0.200233 0.062506
C76   C     C_3   0.610880 0.962405 0.162220 -0.532307
H68   H     H_    0.580531 0.880870 0.183931 0.192176
H69   H     H_    0.593276 0.002902 0.116654 0.188612
H70   H     H_    0.646912 0.873463 0.158751 0.257796
S7    S     S_3+6 0.631742 0.825333 0.802170 0.086333
O47   O     O_2   0.586334 0.807372 0.752919 -0.346063
O48   O     O_2   0.627186 0.668409 0.845711 -0.288666
O49   O     O_3   0.626211 0.028328 0.838691 -0.426367
H71   H     H_    0.589221 0.027545 0.850794 0.379406
S8    S     S_3+6 0.368257 0.325331 0.197830 0.086334
O50   O     O_2   0.413666 0.307371 0.247080 -0.346047
O51   O     O_2   0.372814 0.168406 0.154289 -0.288681
O52   O     O_3   0.373788 0.528325 0.161309 -0.426365
H72   H     H_    0.410769 0.527500 0.149180 0.379397

loop_
_geom_bond_atom_site_label_1
_geom_bond_atom_site_label_2
_ccdc_geom_bond_type
C40   C52   T    
O15   C59   A    
O43   C69   S    
C13   S5    S    
O17   V3    S    
C14   S6    S    
C11   H5    S    
C66   H40   S    
O42   H50   S    
C62   H30   S    
C41   C49   S    
C68   H44   S    
O1    C3    A    
S7    O47   D    
C64   H36   S    
O2    C4    A    
C63   H32   S    
C49   S3    S    
C2    O7    A    
S5    O37   D    
C62   H29   S    
C44   S8    S    
C61   H27   S    
C43   S7    S    
S7    O48   D    
C36   H16   S    
C46   C48   S    
C73   C74   S    
O39   H49   S    
C17   C19   T    
C48   C50   S    
C72   H59   S    
O11   V4    S    
C69   H51   S    
C66   H41   S    
C34   H20   S    
C42   C50   S    
O20   V3    S    
C36   C38   S    
O30   C67   S    
O16   C60   A    
C73   H62   S    
S3    O33   S    
S1    O22   D    
C53   C55   T    
C38   S2    S    
S4    O35   D    
C47   H17   S    
O36   H48   S    
C30   C32   A    
S8    O50   D    
C27   C29   A    
O14   C58   A    
C76   H70   S    
C28   C30   A    
S3    O31   D    
C13   C15   A    
O18   V4    S    
C24   C26   A    
O10   V2    S    
C37   C45   S    
C6    H2    S    
C57   O18   A    
C69   C70   S    
C47   H23   S    
O3    C1    A    
C19   C31   S    
C26   C28   A    
O14   V4    S    
O12   C60   A    
C76   H68   S    
O6    V2    S    
C46   C52   S    
S6    O41   D    
C45   C47   S    
O11   C59   A    
C3    C26   S    
C30   O46   S    
C5    C15   A    
O15   V3    S    
C67   C68   S    
O46   C75   S    
O23   H25   S    
S5    O38   D    
C69   H52   S    
C35   H13   S    
C70   H55   S    
C6    C16   A    
C36   H14   S    
C35   C37   S    
O19   V4    S    
O12   V3    S    
O16   V4    S    
C55   C60   S    
C11   C13   A    
C74   H63   S    
S2    O26   S    
S7    O49   S    
O29   C65   S    
C68   H46   S    
C41   C53   S    
C70   H54   S    
S1    O23   S    
C43   C45   S    
O49   H71   S    
C75   H66   S    
C62   H31   S    
C21   C23   A    
O5    V1    S    
C24   H10   S    
C34   C44   S    
C50   O30   S    
C5    C7    A    
C37   S1    S    
C22   C32   A    
C73   H61   S    
C29   C31   A    
C61   C62   S    
C65   C66   S    
O4    V2    S    
O5    C3    A    
C72   H58   S    
C74   H64   S    
C67   H43   S    
C44   H22   S    
O52   H72   S    
C43   H21   S    
O9    V1    S    
C12   C14   A    
O6    C4    A    
O13   C57   A    
C45   C51   S    
C39   C51   T    
O1    V2    S    
O2    V1    S    
C47   C49   S    
O33   H47   S    
C33   C41   S    
O13   V3    S    
C48   H24   S    
C44   C46   S    
C2    C39   S    
C34   C42   S    
C7    H3    S    
S6    O40   D    
C34   H12   S    
C72   H60   S    
O4    C2    A    
C9    C11   A    
C5    H1    S    
C64   H34   S    
C63   C64   S    
C1    C40   S    
S5    O39   S    
O3    V1    S    
C71   H56   S    
C61   H28   S    
C65   H38   S    
C27   O43   S    
C1    O8    A    
C7    C9    A    
S4    O34   D    
C37   O27   S    
C71   H57   S    
C75   C76   S    
C6    C8    A    
C10   C12   A    
C38   O28   S    
C36   C42   S    
C4    C25   S    
C35   H15   S    
C22   H8    S    
C64   H35   S    
C63   H33   S    
S2    O25   D    
O27   C61   S    
C71   C72   S    
O9    V2    S    
S2    O24   D    
S4    O36   S    
C25   C27   A    
C58   O17   A    
C68   H45   S    
C54   C56   T    
C67   H42   S    
C12   H6    S    
C28   O44   S    
O7    V1    S    
C74   H65   S    
O45   C73   S    
C23   H9    S    
C70   H53   S    
O8    V2    S    
O26   H26   S    
C18   C20   T    
C66   H39   S    
C50   S4    S    
C21   C31   A    
S8    O52   S    
C33   H11   S    
C38   C46   S    
C15   C17   S    
C16   C18   S    
C8    H4    S    
S3    O32   D    
C33   H19   S    
C42   C54   S    
C75   H67   S    
C29   O45   S    
C10   C57   S    
O44   C71   S    
C20   C32   S    
C9    C58   S    
C22   C24   A    
C21   H7    S    
S6    O42   S    
S8    O51   D    
C8    C10   A    
C48   H18   S    
C76   H69   S    
C56   C59   S    
O10   V1    S    
C65   H37   S    
C49   O29   S    
C35   C41   S    
S1    O21   D    
C23   C25   A    
C33   C43   S    
O28   C63   S    
C14   C16   A    
