data_mof_unit_21367.cif
_audit_creation_date              2012-12-10T19:46:37-0500
_audit_creation_method            fapswitch 2.2
_symmetry_space_group_name_H-M    P1
_symmetry_Int_Tables_number       1
_space_group_crystal_system       triclinic
_cell_length_a                    12.831351
_cell_length_b                    14.978299
_cell_length_c                    14.161507
_cell_angle_alpha                 89.175552
_cell_angle_beta                  95.465488
_cell_angle_gamma                 90.04653
_cell_volume                      2709.07113324

loop_
_atom_site_label
_atom_site_type_symbol
_atom_type_description
_atom_site_fract_x
_atom_site_fract_y
_atom_site_fract_z
_atom_type_partial_charge
C1    C     C_R   0.501566 0.327331 0.500958 0.852595
C2    C     C_R   0.500714 0.672437 0.499209 0.919383
C3    C     C_R   0.514096 0.231179 0.503824 -0.126644
C4    C     C_R   0.512261 0.768199 0.497836 -0.128717
C5    C     C_R   0.548068 0.189474 0.424205 -0.279496
C6    C     C_R   0.566139 0.808681 0.576634 -0.262884
C7    C     C_R   0.563115 0.098325 0.424868 -0.190151
C8    C     C_R   0.580823 0.899998 0.576855 -0.183115
C9    C     C_R   0.541260 0.047696 0.504047 0.085317
C10   C     C_R   0.539663 0.951417 0.499136 0.081006
C11   C     C_R   0.416203 0.538656 0.098019 -0.285848
C12   C     C_R   0.593508 0.500250 0.903180 -0.275006
C13   C     C_R   0.418072 0.537118 0.197435 0.011161
C14   C     C_R   0.592210 0.498707 0.803936 0.007309
C15   C     C_R   0.580762 0.462599 0.211412 0.022378
C16   C     C_R   0.407525 0.503549 0.787463 -0.007894
C17   C     C_R   0.581506 0.461459 0.112432 -0.283518
C18   C     C_R   0.405217 0.502937 0.886402 -0.279237
C19   C     C_R   0.498837 0.500503 0.053317 0.132925
C20   C     C_R   0.499125 0.501279 0.946658 0.144903
C21   C     C_R   0.298277 0.494230 0.482843 0.940042
C22   C     C_R   0.701765 0.494322 0.517527 0.925288
C23   C     C_R   0.812792 0.476521 0.528148 -0.258569
C24   C     C_R   0.187573 0.475005 0.473844 -0.256140
C25   C     C_R   0.025052 0.461670 0.373050 0.542283
C26   C     C_R   0.974829 0.465385 0.629854 0.546469
C27   C     C_R   0.132364 0.478726 0.384200 -0.408216
C28   C     C_R   0.867889 0.483084 0.617514 -0.411609
C29   C     C_R   0.136760 0.451217 0.554090 0.491016
C30   C     C_R   0.863902 0.449729 0.450173 0.511022
C31   C     C_R   0.028354 0.457131 0.547633 -0.171488
C32   C     C_R   0.972262 0.455875 0.456055 -0.177028
C33   C     C_R   0.508685 0.088608 0.584212 -0.281175
C34   C     C_R   0.486866 0.911303 0.419921 -0.274609
C35   C     C_R   0.497934 0.180833 0.586163 0.456324
C36   C     C_R   0.475720 0.819120 0.417049 0.466693
H1    H     H_    0.644908 0.433316 0.255345 0.172323
H2    H     H_    0.334688 0.506397 0.742915 0.197875
H3    H     H_    0.646154 0.429045 0.082988 0.142823
H4    H     H_    0.329936 0.502587 0.914860 0.145698
H5    H     H_    0.827599 0.501233 0.677984 0.187866
H6    H     H_    0.173216 0.494936 0.322975 0.194991
H7    H     H_    0.487287 0.048757 0.643860 0.148556
H8    H     H_    0.451039 0.951625 0.361460 0.148412
H9    H     H_    0.562649 0.227111 0.360998 0.169877
H10   H     H_    0.597456 0.769618 0.637834 0.176544
H11   H     H_    0.588568 0.066905 0.362544 0.141542
H12   H     H_    0.622030 0.930802 0.638342 0.139707
H13   H     H_    0.351248 0.571247 0.057119 0.144175
H14   H     H_    0.668362 0.501624 0.945101 0.141990
H15   H     H_    0.354043 0.566350 0.230708 0.137142
H16   H     H_    0.665548 0.497167 0.772376 0.128051
N1    N     N_R   0.500000 0.499980 0.252470 -0.100664
N2    N     N_R   0.500000 0.500020 0.747530 -0.098767
O1    O     O_R   0.500010 0.369070 0.579480 -0.595528
O2    O     O_R   0.499990 0.630930 0.420520 -0.595858
O3    O     O_R   0.500010 0.369060 0.420520 -0.639281
O4    O     O_R   0.499990 0.630940 0.579480 -0.621336
O5    O     O_R   0.346360 0.499990 0.566340 -0.600625
O6    O     O_R   0.653640 0.500010 0.433660 -0.590186
O7    O     O_R   0.346360 0.499980 0.407390 -0.632004
O8    O     O_R   0.653640 0.500020 0.592610 -0.648888
Zn1   Zn    Zn3+2 0.500000 0.500010 0.606140 0.949205
Zn2   Zn    Zn3+2 0.500000 0.499990 0.393860 0.954201
O9    O     O_3   0.809110 0.416917 0.368999 -0.601836
C37   C     C_3   0.780302 0.326894 0.385536 0.098448
H17   H     H_    0.716652 0.309343 0.330486 0.147855
H18   H     H_    0.747699 0.316954 0.455192 0.108590
C38   C     C_3   0.871652 0.262364 0.376709 -0.378183
H19   H     H_    0.903031 0.273003 0.306982 0.227908
H20   H     H_    0.935352 0.274845 0.433710 0.199842
C39   C     C_3   0.836503 0.165447 0.384988 -0.951065
H21   H     H_    0.805491 0.153122 0.454632 0.270534
H22   H     H_    0.904182 0.120358 0.379265 0.266459
H23   H     H_    0.774774 0.149864 0.327167 0.259948
O10   O     O_3   0.191652 0.426346 0.639526 -0.617698
C40   C     C_3   0.233424 0.339219 0.632865 0.150307
H24   H     H_    0.295362 0.330424 0.692522 0.190994
H25   H     H_    0.272150 0.329691 0.566576 0.127299
C41   C     C_3   0.150018 0.266900 0.641870 -0.428847
H26   H     H_    0.113642 0.275286 0.709142 0.220857
H27   H     H_    0.087918 0.272965 0.581869 0.203522
C42   C     C_3   0.197817 0.173679 0.641198 -0.884087
H28   H     H_    0.235131 0.163502 0.574515 0.271425
H29   H     H_    0.135506 0.122785 0.645964 0.253241
H30   H     H_    0.257354 0.164359 0.702805 0.279059
O11   O     O_3   0.968138 0.467327 0.284126 -0.591692
C43   C     C_3   0.017381 0.422001 0.213072 0.085619
H31   H     H_    0.957167 0.380593 0.172657 0.152168
H32   H     H_    0.079372 0.374022 0.241935 0.119505
C44   C     C_3   0.059638 0.489606 0.143638 -0.340549
H33   H     H_    0.993463 0.517148 0.095785 0.224306
H34   H     H_    0.097653 0.546679 0.182403 0.222473
C45   C     C_3   0.139093 0.446733 0.084561 -0.984174
H35   H     H_    0.208898 0.424097 0.131162 0.270390
H36   H     H_    0.164706 0.496328 0.032545 0.259183
H37   H     H_    0.103924 0.388693 0.045467 0.268962
O12   O     O_3   0.029499 0.472465 0.719151 -0.591793
C46   C     C_3   0.987310 0.415277 0.786698 0.089956
H38   H     H_    0.052394 0.374276 0.821686 0.153497
H39   H     H_    0.927846 0.366879 0.755299 0.111430
C47   C     C_3   0.942075 0.470419 0.863500 -0.337892
H40   H     H_    0.006931 0.504457 0.906401 0.232113
H41   H     H_    0.888540 0.522818 0.830958 0.214066
C48   C     C_3   0.881778 0.411456 0.928288 -1.005666
H42   H     H_    0.812999 0.381208 0.887100 0.258653
H43   H     H_    0.853528 0.452286 0.985455 0.263995
H44   H     H_    0.932779 0.357413 0.961165 0.266940
O13   O     O_3   0.459008 0.219886 0.663522 -0.659207
C49   C     C_3   0.537280 0.219228 0.740824 0.082184
H45   H     H_    0.603916 0.262660 0.724226 0.149343
H46   H     H_    0.566838 0.150438 0.758201 0.122930
C50   C     C_3   0.490627 0.255227 0.827981 -0.313805
H47   H     H_    0.458530 0.322954 0.811691 0.235980
H48   H     H_    0.425327 0.211261 0.845978 0.212558
C51   C     C_3   0.572439 0.259947 0.913323 -0.968233
H49   H     H_    0.603416 0.192259 0.932776 0.259473
H50   H     H_    0.536149 0.287514 0.974799 0.271637
H51   H     H_    0.638084 0.304125 0.897038 0.262026
O14   O     O_3   0.417427 0.780570 0.340902 -0.639264
C52   C     C_3   0.474247 0.783771 0.259926 0.092347
H52   H     H_    0.527499 0.725076 0.261814 0.173618
H53   H     H_    0.522335 0.845489 0.254988 0.113049
C53   C     C_3   0.397342 0.780234 0.170755 -0.325706
H54   H     H_    0.346217 0.720708 0.174194 0.222589
H55   H     H_    0.346692 0.840591 0.167081 0.221021
C54   C     C_3   0.454547 0.776394 0.081181 -0.967640
H56   H     H_    0.501913 0.837784 0.073915 0.262351
H57   H     H_    0.396619 0.771356 0.018044 0.267866
H58   H     H_    0.506872 0.717203 0.083708 0.276213

loop_
_geom_bond_atom_site_label_1
_geom_bond_atom_site_label_2
_ccdc_geom_bond_type
C37   H18   S    
O11   C43   S    
C4    C36   A    
C38   C39   S    
C39   H22   S    
C19   C20   S    
C24   C27   A    
C8    H12   S    
C29   O10   S    
C40   H24   S    
C48   H43   S    
C11   C19   A    
C15   N1    A    
C21   O5    A    
C41   C42   S    
C22   O6    A    
C47   H41   S    
N1    Zn2   S    
C37   C38   S    
C44   H34   S    
N2    Zn1   S    
C28   H5    S    
C25   O11   S    
C51   H49   S    
C47   C48   S    
C15   C17   A    
C17   H3    S    
C38   H20   S    
C18   H4    S    
C49   H45   S    
C15   H1    S    
C52   C53   S    
C17   C19   A    
C13   H15   S    
C14   H16   S    
C42   H28   S    
O1    Zn1   S    
C46   C47   S    
O2    Zn2   S    
C9    C10   S    
C21   O7    A    
C35   O13   S    
C50   C51   S    
C25   C32   A    
C37   H17   S    
C26   C31   A    
C9    C33   A    
C38   H19   S    
C39   H23   S    
C13   N1    A    
C40   H25   S    
C48   H44   S    
C33   H7    S    
C23   C30   A    
C34   H8    S    
O10   C40   S    
C4    C6    A    
C44   H33   S    
C5    C7    A    
C41   H26   S    
C6    C8    A    
C45   H37   S    
C5    H9    S    
C1    C3    S    
C7    H11   S    
O7    Zn2   S    
C2    C4    S    
C54   H57   S    
O8    Zn1   S    
C11   H13   S    
C1    O3    A    
C22   O8    A    
C46   H38   S    
C43   C44   S    
C3    C35   A    
C12   C20   A    
C45   H35   S    
C10   C34   A    
C16   C18   A    
C23   C28   A    
C45   H36   S    
C49   C50   S    
C52   H52   S    
C26   O12   S    
C53   C54   S    
C41   H27   S    
C14   N2    A    
C12   C14   A    
O12   C46   S    
C54   H56   S    
O14   C52   S    
O3    Zn2   S    
C53   H55   S    
C50   H47   S    
C40   C41   S    
O4    Zn1   S    
C7    C9    A    
C6    H10   S    
C46   H39   S    
C26   C28   A    
C31   C32   A    
C43   H32   S    
C39   H21   S    
C3    C5    A    
C18   C20   A    
C12   H14   S    
C2    O4    A    
C25   C27   A    
C48   H42   S    
O5    Zn1   S    
C51   H51   S    
C42   H29   S    
O6    Zn2   S    
C16   N2    A    
C1    O1    A    
C54   H58   S    
C29   C31   A    
C2    O2    A    
O13   C49   S    
C44   C45   S    
C30   C32   A    
C11   C13   A    
C27   H6    S    
C33   C35   A    
C51   H50   S    
C34   C36   A    
C47   H40   S    
C36   O14   S    
C49   H46   S    
C52   H53   S    
C30   O9    S    
C24   C29   A    
C42   H30   S    
C43   H31   S    
C8    C10   A    
O9    C37   S    
C21   C24   S    
C22   C23   S    
C16   H2    S    
C53   H54   S    
C50   H48   S    
