data_mof_unit_24248.cif
_audit_creation_date              2012-12-11T14:58:23-0500
_audit_creation_method            fapswitch 2.2
_symmetry_space_group_name_H-M    P1
_symmetry_Int_Tables_number       1
_space_group_crystal_system       triclinic
_cell_length_a                    10.944484
_cell_length_b                    10.926481
_cell_length_c                    18.81895
_cell_angle_alpha                 90.304222
_cell_angle_beta                  90.780728
_cell_angle_gamma                 59.774933
_cell_volume                      1944.33541027

loop_
_atom_site_label
_atom_site_type_symbol
_atom_type_description
_atom_site_fract_x
_atom_site_fract_y
_atom_site_fract_z
_atom_type_partial_charge
C1    C     C_R   0.359870 0.769100 0.396118 0.537612
C2    C     C_R   0.613798 0.130318 0.165291 0.051620
C3    C     C_R   0.354864 0.330506 0.163850 -0.005611
C4    C     C_R   0.481897 0.243234 0.274188 -0.149241
C5    C     C_R   0.482028 0.238867 0.200794 -0.031017
C6    C     C_R   0.040588 0.689953 0.288827 -0.099955
C7    C     C_R   0.927342 0.796225 0.326483 -0.110220
C8    C     C_R   0.680872 0.987645 0.187142 -0.103433
C9    C     C_R   0.795927 0.883285 0.149666 -0.124816
C10   C     C_R   0.236557 0.432753 0.201408 -0.155315
C11   C     C_R   0.236543 0.437382 0.275419 -0.041592
C12   C     C_R   0.385406 0.354026 0.387781 0.532568
C13   C     C_R   0.878851 0.762288 0.387257 -0.113966
C14   C     C_R   0.942035 0.621613 0.409745 -0.096166
C15   C     C_R   0.052112 0.514137 0.370853 -0.053894
C16   C     C_R   0.106729 0.547887 0.311595 0.046189
C17   C     C_R   0.361629 0.339828 0.312345 -0.002957
C18   C     C_R   0.861569 0.228126 0.296310 -0.144926
C19   C     C_R   0.883499 0.215786 0.223782 -0.132254
C20   C     C_R   0.861546 0.334029 0.183922 0.025350
C21   C     C_R   0.813953 0.464861 0.216443 -0.138447
C22   C     C_R   0.793481 0.476723 0.288499 -0.123820
C23   C     C_R   0.773935 0.381255 0.401929 0.542070
C24   C     C_R   0.818683 0.358166 0.329008 0.029951
C25   C     C_R   0.342845 0.710673 0.272946 -0.122192
C26   C     C_R   0.339777 0.733927 0.200633 -0.144566
C27   C     C_R   0.356839 0.844435 0.176112 0.033800
C28   C     C_R   0.385275 0.926323 0.224148 -0.132625
C29   C     C_R   0.387565 0.903080 0.297048 -0.153510
C30   C     C_R   0.359077 0.799531 0.321304 0.038158
C31   C     C_R   0.381736 0.199222 0.693686 -0.141907
C32   C     C_R   0.369979 0.185549 0.765555 -0.125473
C33   C     C_R   0.299239 0.306478 0.808777 0.027958
C34   C     C_R   0.345180 0.768482 0.604808 0.548849
C35   C     C_R   0.231394 0.441023 0.778857 -0.161630
C36   C     C_R   0.241706 0.455203 0.706364 -0.138141
C37   C     C_R   0.322501 0.334037 0.664316 0.028684
C38   C     C_R   0.914616 0.383308 0.706680 -0.130763
C39   C     C_R   0.951226 0.365710 0.778011 -0.134224
C40   C     C_R   0.911924 0.288693 0.821830 0.034064
C41   C     C_R   0.837742 0.226097 0.793418 -0.135742
C42   C     C_R   0.800912 0.243257 0.721615 -0.142137
C43   C     C_R   0.835629 0.325766 0.678557 0.029484
C44   C     C_R   0.199884 0.836206 0.711149 -0.127726
C45   C     C_R   0.369164 0.350671 0.595535 0.544695
C46   C     C_R   0.189343 0.843924 0.784350 0.089969
C47   C     C_R   0.300048 0.840705 0.825306 0.067969
C48   C     C_R   0.423673 0.818297 0.791960 -0.170910
C49   C     C_R   0.434672 0.806508 0.718795 -0.153369
C50   C     C_R   0.322597 0.815562 0.678035 0.009829
C51   C     C_R   0.912259 0.314792 0.112170 0.552743
C52   C     C_R   0.328799 0.294743 0.092454 0.541255
C53   C     C_R   0.309443 0.897682 0.104876 0.545063
C54   C     C_R   0.946055 0.281457 0.897083 0.568005
C55   C     C_R   0.292794 0.285133 0.883944 0.538532
C56   C     C_R   0.767174 0.374196 0.609524 0.547968
C57   C     C_R   0.275079 0.893478 0.897906 0.556261
C58   C     C_R   0.845056 0.919829 0.090004 -0.106636
C59   C     C_R   0.779782 0.060979 0.068056 -0.082858
C60   C     C_R   0.667078 0.166521 0.106417 -0.063584
Cr1   Cr    Cr6+3 0.601770 0.606860 0.505860 0.997071
Cr2   Cr    Cr6+3 0.291380 0.601660 0.495070 1.019015
Cr3   Cr    Cr6+3 0.606880 0.291510 0.499120 1.007221
Cr4   Cr    Cr6+3 0.062440 0.063090 0.008210 0.996824
Cr5   Cr    Cr6+3 0.062880 0.375170 0.998920 1.004854
Cr6   Cr    Cr6+3 0.374700 0.061720 0.992470 1.018349
H1    H     H_    0.580562 0.172549 0.301455 0.140902
H2    H     H_    0.792834 0.845044 0.417120 0.104561
H3    H     H_    0.906619 0.596085 0.457852 0.132729
H4    H     H_    0.099013 0.405488 0.388821 0.099277
H5    H     H_    0.877459 0.137154 0.326628 0.119734
H6    H     H_    0.922156 0.112802 0.199565 0.151298
H7    H     H_    0.796302 0.557103 0.186646 0.130543
H8    H     H_    0.754001 0.580506 0.311920 0.153770
H9    H     H_    0.330775 0.624135 0.291571 0.141811
H10   H     H_    0.317283 0.670544 0.164108 0.113827
H11   H     H_    0.394663 0.014817 0.205565 0.136184
H12   H     H_    0.845463 0.773636 0.166174 0.109796
H13   H     H_    0.405483 0.968815 0.334112 0.110807
H14   H     H_    0.443338 0.105152 0.661932 0.122649
H15   H     H_    0.419202 0.079767 0.787608 0.139822
H16   H     H_    0.174192 0.533377 0.811888 0.119221
H17   H     H_    0.195127 0.560949 0.684367 0.137002
H18   H     H_    0.941259 0.448310 0.674480 0.127840
H19   H     H_    0.004749 0.417732 0.799942 0.134638
H20   H     H_    0.802697 0.170011 0.827123 0.132199
H21   H     H_    0.737051 0.200579 0.701102 0.136025
H22   H     H_    0.113385 0.839893 0.680609 0.127657
H23   H     H_    0.878765 0.905306 0.309206 0.105064
H24   H     H_    0.510338 0.814605 0.822288 0.133042
H25   H     H_    0.532151 0.786607 0.694480 0.138848
H26   H     H_    0.932953 0.838669 0.060450 0.113134
H27   H     H_    0.815919 0.088466 0.020898 0.152704
H28   H     H_    0.617585 0.275474 0.088603 0.102114
H29   H     H_    0.078651 0.719412 0.242916 0.103648
H30   H     H_    0.642187 0.956342 0.232143 0.099768
H31   H     H_    0.139040 0.503560 0.173280 0.137164
O1    O     O_R   0.748800 0.497470 0.428000 -0.542878
O2    O     O_R   0.300070 0.471040 0.567100 -0.510704
O3    O     O_R   0.491670 0.258900 0.574910 -0.522130
O4    O     O_R   0.718780 0.304180 0.577850 -0.503547
O5    O     O_3   0.500010 0.500010 0.500020 -0.243449
O6    O     O_R   0.186690 0.923650 0.086970 -0.523528
O7    O     O_R   0.957250 0.194250 0.084630 -0.515790
O8    O     O_R   0.934970 0.407490 0.085330 -0.520499
O9    O     O_R   0.203780 0.365190 0.067090 -0.507368
O10   O     O_R   0.417600 0.174890 0.067840 -0.501632
O11   O     O_R   0.375320 0.946260 0.070860 -0.496167
O12   O     O_R   0.476420 0.724060 0.429470 -0.504870
O13   O     O_R   0.160600 0.919630 0.926660 -0.482465
O14   O     O_R   0.933060 0.190520 0.936020 -0.519175
O15   O     O_R   0.908880 0.403460 0.925020 -0.515157
O16   O     O_R   0.179600 0.361450 0.918490 -0.525332
O17   O     O_R   0.391510 0.170860 0.907530 -0.523637
O18   O     O_R   0.351130 0.942530 0.922260 -0.524496
O19   O     O_3   0.166667 0.166667 0.999870 -0.270161
O20   O     O_R   0.264580 0.744340 0.416750 -0.509001
O21   O     O_R   0.309380 0.472470 0.418200 -0.495063
O22   O     O_R   0.501710 0.260430 0.414300 -0.533720
O23   O     O_R   0.728090 0.305600 0.428960 -0.504195
O24   O     O_R   0.738760 0.495930 0.588610 -0.527757
O25   O     O_R   0.467110 0.722640 0.578360 -0.503970
O26   O     O_R   0.254530 0.742800 0.577360 -0.529574
N1    N     N_3   0.064980 0.857012 0.816144 -0.596102
H32   H     H_    0.057231 0.768872 0.801695 0.207126
H33   H     H_    0.977189 0.944468 0.793572 0.221110

loop_
_geom_bond_atom_site_label_1
_geom_bond_atom_site_label_2
_ccdc_geom_bond_type
C33   C55   S    
Cr4   O6    S    
C34   O26   A    
Cr4   O19   S    
C41   C42   A    
C35   C36   A    
C8    H30   S    
Cr6   O10   S    
Cr3   O4    S    
Cr1   O12   S    
C31   H14   S    
C57   O18   A    
C32   H15   S    
C28   C29   A    
C26   C27   A    
Cr3   O3    S    
Cr6   O19   S    
C18   C24   A    
C36   C37   A    
C56   O4    A    
C18   C19   A    
C20   C51   S    
C38   C39   A    
C33   C35   A    
C2    C60   A    
C36   H17   S    
C15   C16   A    
C7    H23   S    
C21   H7    S    
C18   H5    S    
Cr1   O24   S    
C9    C58   A    
Cr2   O20   S    
C1    O12   A    
C11   C17   A    
C19   C20   A    
C52   O10   A    
C8    C9    A    
C12   C17   S    
C26   H10   S    
C23   C24   S    
C13   C14   A    
C52   O9    A    
C59   C60   A    
C34   O25   A    
C48   H24   S    
C21   C22   A    
C46   N1    S    
C19   H6    S    
C49   H25   S    
Cr3   O5    S    
Cr5   O8    S    
Cr2   O26   S    
C35   H16   S    
C44   C46   A    
C34   C50   S    
Cr6   O18   S    
C45   O2    A    
C23   O23   A    
Cr4   O14   S    
C55   O16   A    
C51   O7    A    
C31   C37   A    
Cr1   O25   S    
C25   H9    S    
C10   H31   S    
Cr5   O15   S    
C29   C30   A    
C41   H20   S    
C47   C57   S    
C12   O22   A    
Cr3   O22   S    
C11   C16   S    
Cr4   O13   S    
C47   C48   A    
C29   H13   S    
C51   O8    A    
C54   O15   A    
C1    O20   A    
C28   H11   S    
C12   O21   A    
C4    C17   A    
C40   C41   A    
C49   C50   A    
C40   C54   S    
C14   H3    S    
C22   C24   A    
C58   C59   A    
C2    C5    S    
C42   C43   A    
C22   H8    S    
C37   C45   S    
Cr5   O9    S    
C39   C40   A    
N1    H33   S    
C44   C50   A    
C25   C30   A    
Cr4   O7    S    
C15   H4    S    
C46   C47   A    
C48   C49   A    
Cr6   O17   S    
C38   H18   S    
Cr5   O16   S    
C31   C32   A    
C2    C8    A    
Cr6   O11   S    
C4    C5    A    
C3    C5    A    
C45   O3    A    
C4    H1    S    
C3    C52   S    
C27   C53   S    
C57   O13   A    
C6    C7    A    
C55   O17   A    
C56   O24   A    
Cr1   O5    S    
C25   C26   A    
C38   C43   A    
C3    C10   A    
C32   C33   A    
Cr3   O23   S    
Cr1   O1    S    
C53   O6    A    
C53   O11   A    
C1    C30   S    
Cr5   O19   S    
C54   O14   A    
C9    H12   S    
Cr2   O21   S    
C10   C11   A    
C6    C16   A    
Cr2   O2    S    
C43   C56   S    
C7    C13   A    
C23   O1    A    
C20   C21   A    
C6    H29   S    
C27   C28   A    
C39   H19   S    
C14   C15   A    
C42   H21   S    
C59   H27   S    
C44   H22   S    
C58   H26   S    
N1    H32   S    
Cr2   O5    S    
C13   H2    S    
C60   H28   S    
