data_mof_unit_38824.cif
_audit_creation_date              2012-12-11T16:26:33-0500
_audit_creation_method            fapswitch 2.2
_symmetry_space_group_name_H-M    P1
_symmetry_Int_Tables_number       1
_space_group_crystal_system       triclinic
_cell_length_a                    6.933037
_cell_length_b                    17.550195
_cell_length_c                    19.468688
_cell_angle_alpha                 108.704938
_cell_angle_beta                  89.630074
_cell_angle_gamma                 90.547253
_cell_volume                      2243.64056065

loop_
_atom_site_label
_atom_site_type_symbol
_atom_type_description
_atom_site_fract_x
_atom_site_fract_y
_atom_site_fract_z
_atom_type_partial_charge
O1    O     O_R   0.494330 0.415720 0.413720 -0.545110
O2    O     O_R   0.819330 0.430070 0.560210 -0.510222
O3    O     O_R   0.994320 0.584280 0.586280 -0.538046
C1    C     C_R   0.650336 0.415590 0.582376 0.799428
O4    O     O_R   0.823730 0.406300 0.412670 -0.526626
O5    O     O_R   0.998760 0.560340 0.437690 -0.522784
C2    C     C_R   0.654942 0.383897 0.384718 0.804656
O6    O     O_R   0.489890 0.439660 0.562310 -0.516184
O7    O     O_3   0.662340 0.550560 0.508380 -0.382990
V1    V     V_3+5 0.935370 0.490620 0.498450 1.613274
O8    O     O_R   0.328750 0.569930 0.439790 -0.542399
C3    C     C_R   0.160676 0.585094 0.418292 0.707258
O9    O     O_R   0.324340 0.593700 0.587330 -0.552316
C4    C     C_R   0.155482 0.616586 0.614925 0.692768
V2    V     V_3+5 0.435940 0.509380 0.501550 1.550204
O10   O     O_3   0.159100 0.449440 0.491620 -0.349360
C5    C     C_R   0.290280 0.601610 0.750365 -0.190671
C6    C     C_R   0.354844 0.592178 0.814773 0.720858
C7    C     C_R   0.342240 0.655618 0.879401 -0.157734
C8    C     C_R   0.265132 0.728894 0.880086 -0.226923
C9    C     C_R   0.200215 0.740591 0.815414 0.052974
C10   C     C_R   0.213057 0.675611 0.749176 -0.029128
C11   C     C_R   0.119989 0.814951 0.816210 -0.137964
C12   C     C_R   0.052779 0.824344 0.750733 0.046064
C13   C     C_R   0.065558 0.759351 0.684494 0.063897
C14   C     C_R   0.145622 0.684978 0.683716 -0.132885
C15   C     C_R   0.975974 0.898396 0.749502 -0.098039
C16   C     C_R   0.911940 0.907853 0.685060 -0.043407
C17   C     C_R   0.924312 0.844426 0.620453 -0.094595
C18   C     C_R   0.000869 0.771071 0.619792 -0.145142
H1    H     H_    0.853516 0.964917 0.685235 0.165868
C19   C     C_R   0.305791 0.632860 0.320949 -0.112655
C20   C     C_R   0.153074 0.634530 0.369252 -0.095084
C21   C     C_R   0.991999 0.682841 0.369859 -0.088318
C22   C     C_R   0.983492 0.729872 0.323465 -0.095542
C23   C     C_R   0.136206 0.726962 0.274330 0.054082
C24   C     C_R   0.297183 0.677823 0.272957 0.112028
C25   C     C_R   0.825451 0.779945 0.325456 0.484222
C26   C     C_R   0.817553 0.826199 0.278885 0.669693
C27   C     C_R   0.967350 0.822932 0.228609 -0.175199
C28   C     C_R   0.128109 0.773145 0.226574 -0.233213
C29   C     C_R   0.280954 0.769393 0.177014 -0.035418
C30   C     C_R   0.439376 0.719028 0.175778 0.718004
C31   C     C_R   0.446912 0.674127 0.223411 -0.254964
C32   C     C_R   0.960223 0.868463 0.180676 0.691016
C33   C     C_R   0.112001 0.865379 0.131283 -0.366515
C34   C     C_R   0.271956 0.815836 0.129904 0.612575
H2    H     H_    0.874575 0.684588 0.407356 0.173807
C35   C     C_R   0.780409 0.181582 0.866419 -0.160207
C36   C     C_R   0.621609 0.131415 0.866536 -0.238499
C37   C     C_R   0.467339 0.127267 0.818431 0.617491
C38   C     C_R   0.470538 0.173616 0.771173 -0.118669
C39   C     C_R   0.629650 0.225152 0.772619 -0.030286
C40   C     C_R   0.784510 0.228953 0.820429 0.085930
C41   C     C_R   0.318346 0.169847 0.722499 0.617270
C42   C     C_R   0.323296 0.217070 0.676821 -0.108624
C43   C     C_R   0.479449 0.268987 0.678216 -0.021662
C44   C     C_R   0.634176 0.272946 0.726176 -0.133581
C45   C     C_R   0.793262 0.324564 0.727824 -0.123664
C46   C     C_R   0.945689 0.328092 0.776463 0.687662
C47   C     C_R   0.940812 0.280610 0.821965 -0.164964
C48   C     C_R   0.483672 0.316419 0.632089 0.632184
C49   C     C_R   0.642404 0.367231 0.632600 -0.342661
C50   C     C_R   0.796273 0.371274 0.680881 0.620888
H3    H     H_    0.060399 0.284182 0.858489 0.164993
C51   C     C_R   0.760035 0.403994 0.244889 0.483289
C52   C     C_R   0.813735 0.413223 0.178854 -0.245094
C53   C     C_R   0.805947 0.348375 0.115295 0.621640
C54   C     C_R   0.742934 0.273510 0.116956 -0.260345
C55   C     C_R   0.688151 0.261546 0.182940 -0.080763
C56   C     C_R   0.698467 0.327734 0.248701 -0.048634
C57   C     C_R   0.620127 0.185303 0.183601 -0.041709
C58   C     C_R   0.562944 0.174589 0.249912 -0.021222
C59   C     C_R   0.575790 0.239884 0.315845 -0.041985
C60   C     C_R   0.644111 0.316282 0.315451 -0.087822
C61   C     C_R   0.495251 0.098997 0.252088 -0.314199
C62   C     C_R   0.440671 0.088134 0.317350 0.650127
C63   C     C_R   0.453939 0.151808 0.381867 0.626261
C64   C     C_R   0.521240 0.226752 0.381430 -0.341241
H4    H     H_    0.860481 0.471593 0.176996 0.179859
H5    H     H_    0.736332 0.225333 0.065736 0.135922
H6    H     H_    0.530500 0.274046 0.433138 0.170637
O11   O     O_R   0.775200 0.060470 0.937800 -0.555603
O12   O     O_R   0.441110 0.093720 0.087350 -0.551527
O13   O     O_R   0.266330 0.939630 0.062280 -0.515606
C65   C     C_R   0.609850 0.116562 0.115046 0.689881
O14   O     O_R   0.445750 0.069950 0.939820 -0.510128
O15   O     O_R   0.271000 0.915700 0.913700 -0.532005
C66   C     C_R   0.614537 0.083980 0.917354 0.739970
O16   O     O_R   0.770530 0.084400 0.086380 -0.537052
O17   O     O_3   0.602830 0.949510 0.991680 -0.348974
V3    V     V_3+5 0.329710 0.009370 0.001550 1.569812
O18   O     O_R   0.940990 0.906170 0.912570 -0.550796
C67   C     C_R   0.109925 0.883332 0.885015 0.688160
O19   O     O_R   0.936350 0.929940 0.060100 -0.502491
C68   C     C_R   0.104437 0.914805 0.081793 0.804212
V4    V     V_3+5 0.829160 0.990450 0.998310 1.569669
O20   O     O_3   0.105910 0.050480 0.008320 -0.381138
H7    H     H_    0.875523 0.852221 0.570429 0.162947
F1    F     F_    0.677733 0.784356 0.372735 -0.644649
F2    F     F_    0.661769 0.873859 0.283203 -0.547300
F3    F     F_    0.807907 0.917501 0.183093 -0.597490
F4    F     F_    0.416819 0.811759 0.081485 -0.609814
F5    F     F_    0.588800 0.713190 0.128987 -0.630496
H8    H     H_    0.571044 0.636431 0.221621 0.149035
H9    H     H_    0.899117 0.185065 0.903339 0.175674
F6    F     F_    0.316066 0.076847 0.816867 -0.647022
F7    F     F_    0.163342 0.120811 0.718786 -0.640946
H10   H     H_    0.300572 0.550051 0.701784 0.169044
H11   H     H_    0.203300 0.212986 0.640398 0.205428
F8    F     F_    0.335691 0.311353 0.585270 -0.632641
F9    F     F_    0.947154 0.422037 0.682950 -0.602028
F10   F     F_    0.100819 0.377071 0.780250 -0.591507
F11   F     F_    0.402035 0.141007 0.445427 -0.597049
F12   F     F_    0.765704 0.471074 0.303918 -0.706395
F13   F     F_    0.857486 0.358269 0.051346 -0.655558
F14   F     F_    0.428802 0.520800 0.814482 -0.622001
H12   H     H_    0.484254 0.047387 0.203513 0.196022
F15   F     F_    0.375286 0.015218 0.317861 -0.575412
H13   H     H_    0.391297 0.647967 0.929455 0.198044
H14   H     H_    0.255722 0.775831 0.931979 0.166664
H15   H     H_    0.965677 0.950020 0.798028 0.143064
H16   H     H_    0.010145 0.724122 0.567895 0.099462
H17   H     H_    0.429879 0.595274 0.319727 0.156972

loop_
_geom_bond_atom_site_label_1
_geom_bond_atom_site_label_2
_ccdc_geom_bond_type
C41   C42   A    
O18   C67   A    
O19   C68   A    
C28   C29   A    
C19   H17   S    
C7    C8    A    
C12   C15   A    
C1    O6    A    
V4    O20   S    
C23   C28   A    
V3    O20   S    
C43   C48   A    
C32   C33   A    
C1    C49   S    
C45   C50   A    
C17   C18   A    
C23   C24   A    
O12   C65   A    
C6    C7    A    
O5    C3    A    
C25   C26   A    
O13   C68   A    
C50   F9    S    
C35   C40   A    
C42   C43   A    
C21   C22   A    
C58   C59   A    
C30   F5    S    
O8    V2    S    
C15   H15   S    
C48   F8    S    
O15   V3    S    
C53   C54   A    
C11   C12   A    
C55   C56   A    
O1    V2    S    
O7    V1    S    
O16   V4    S    
C38   C41   A    
C62   C63   A    
C51   C52   A    
C45   C46   A    
O9    C4    A    
C46   F10   S    
C63   F11   S    
C42   H11   S    
O13   V3    S    
C26   F2    S    
C61   C62   A    
C27   C32   A    
O11   C66   A    
O15   C67   A    
C34   F4    S    
C51   F12   S    
C17   H7    S    
C37   C38   A    
C22   C25   A    
C12   C13   A    
C25   F1    S    
C59   C60   A    
O17   V3    S    
O4    C2    A    
C63   C64   A    
C2    C60   S    
C36   C37   A    
C13   C14   A    
C31   H8    S    
C4    C14   S    
C52   C53   A    
C46   C47   A    
C22   C23   A    
O2    C1    A    
C30   C31   A    
C48   C49   A    
C36   C66   S    
C51   C56   A    
O8    C3    A    
C8    C9    A    
C5    C6    A    
C19   C24   A    
O17   V4    S    
C6    F14   S    
C8    H14   S    
O3    C4    A    
C53   F13   S    
C27   C28   A    
C7    H13   S    
O6    V2    S    
C59   C64   A    
O9    V2    S    
C65   O16   A    
C58   C61   A    
C21   H2    S    
C29   C30   A    
O2    V1    S    
O18   V4    S    
C26   C27   A    
O14   V3    S    
C38   C39   A    
C13   C18   A    
C33   C34   A    
C16   C17   A    
O1    C2    A    
C16   H1    S    
C52   H4    S    
C57   C58   A    
C62   F15   S    
C5    H10   S    
O5    V1    S    
C64   H6    S    
C57   C65   S    
C39   C44   A    
O19   V4    S    
C39   C40   A    
C35   H9    S    
C40   C47   A    
C5    C10   A    
C11   C67   S    
C41   F7    S    
C19   C20   A    
C24   C31   A    
C9    C11   A    
C44   C45   A    
O4    V1    S    
O3    V1    S    
V1    O10   S    
C56   C60   A    
C43   C44   A    
C20   C21   A    
C29   C34   A    
O7    V2    S    
C54   C55   A    
C61   H12   S    
C54   H5    S    
C32   F3    S    
C10   C14   A    
C49   C50   A    
C47   H3    S    
C33   C68   S    
C18   H16   S    
C37   F6    S    
C35   C36   A    
O11   V4    S    
C15   C16   A    
O14   C66   A    
C55   C57   A    
O12   V3    S    
C3    C20   S    
C9    C10   A    
V2    O10   S    
