data_mof_unit_56481.cif
_audit_creation_date              2012-12-11T14:32:56-0500
_audit_creation_method            fapswitch 2.2
_symmetry_space_group_name_H-M    P1
_symmetry_Int_Tables_number       1
_space_group_crystal_system       triclinic
_cell_length_a                    7.001512
_cell_length_b                    14.482998
_cell_length_c                    17.755289
_cell_angle_alpha                 113.924774
_cell_angle_beta                  95.943688
_cell_angle_gamma                 89.420722
_cell_volume                      1635.88743608

loop_
_atom_site_label
_atom_site_type_symbol
_atom_type_description
_atom_site_fract_x
_atom_site_fract_y
_atom_site_fract_z
_atom_type_partial_charge
O1    O     O_R   0.484560 0.544530 0.414330 -0.554580
O2    O     O_R   0.197040 0.638810 0.585080 -0.558287
O3    O     O_R   0.026800 0.455470 0.585670 -0.510208
C1    C     C_R   0.372745 0.679250 0.610323 0.744317
O4    O     O_R   0.155000 0.556150 0.414940 -0.551506
O5    O     O_R   0.984450 0.372220 0.414320 -0.559867
C2    C     C_R   0.316959 0.562479 0.385191 0.691633
O6    O     O_R   0.526900 0.627780 0.585680 -0.539981
O7    O     O_3   0.339170 0.439750 0.499990 -0.293679
V1    V     V_3+5 0.064350 0.511180 0.500000 1.480193
O8    O     O_R   0.654880 0.361190 0.414920 -0.496859
C3    C     C_R   0.818166 0.324416 0.387622 0.687062
O9    O     O_R   0.696930 0.443850 0.585060 -0.490209
C4    C     C_R   0.877046 0.434183 0.614153 0.770748
V2    V     V_3+5 0.564340 0.488820 0.500000 1.610999
O10   O     O_3   0.839390 0.560250 0.500010 -0.420428
C5    C     C_R   0.030596 0.887811 0.837927 -0.151216
C6    C     C_R   0.923152 0.400115 0.685597 -0.166286
C7    C     C_R   0.883870 0.860027 0.700219 -0.231796
C8    C     C_R   0.919970 0.828839 0.764392 0.428424
C9    C     C_R   0.070173 0.990167 0.850637 -0.258647
C10   C     C_R   0.014008 0.025895 0.785821 0.062936
C11   C     C_R   0.935872 0.954123 0.707986 -0.015444
C12   C     C_R   0.026919 0.128516 0.794223 -0.012357
C13   C     C_R   0.958522 0.155459 0.725918 0.010284
C14   C     C_R   0.883345 0.077517 0.651491 -0.233637
C15   C     C_R   0.887116 0.976632 0.639041 0.547684
C16   C     C_R   0.101920 0.204737 0.869182 -0.159397
C17   C     C_R   0.109816 0.304502 0.879526 0.486704
C18   C     C_R   0.044932 0.331129 0.813360 -0.097251
C19   C     C_R   0.970079 0.258900 0.734167 -0.045657
C20   C     C_R   0.057883 0.431639 0.827518 -0.164409
C21   C     C_R   0.004257 0.465672 0.766630 0.303211
C22   C     C_R   0.914360 0.295620 0.668990 0.361049
H1    H     H_    0.792919 0.813711 0.645467 0.182259
H2    H     H_    0.139557 0.039313 0.910585 0.125341
H3    H     H_    0.821935 0.091510 0.601054 0.200718
H4    H     H_    0.159686 0.189048 0.921225 0.150320
H5    H     H_    0.115583 0.486373 0.888241 0.207084
H6    H     H_    0.100137 0.227485 0.297266 0.152838
H7    H     H_    0.844897 0.027036 0.203504 0.197366
C23   C     C_2   0.131322 0.037416 0.181101 -0.296631
C24   C     C_2   0.973986 0.074896 0.219834 -0.069099
C25   C     C_2   0.815284 0.218788 0.324255 0.209900
C26   C     C_2   0.970986 0.180044 0.283792 -0.168352
H8    H     H_    0.261655 0.084202 0.197156 0.199606
C27   C     C_R   0.400313 0.788905 0.675243 -0.224537
C28   C     C_R   0.550842 0.464404 0.837192 -0.234219
C29   C     C_R   0.480606 0.892713 0.822085 -0.120020
C30   C     C_R   0.415697 0.801797 0.757759 -0.121907
C31   C     C_R   0.435181 0.878882 0.660099 0.462160
C32   C     C_R   0.460345 0.979293 0.729649 0.066814
C33   C     C_R   0.498333 0.980968 0.809437 -0.031103
C34   C     C_R   0.465224 0.077642 0.723863 -0.130479
C35   C     C_R   0.524933 0.172673 0.796076 -0.049448
C36   C     C_R   0.575516 0.162950 0.872327 0.413385
C37   C     C_R   0.556818 0.070149 0.877694 -0.212152
C38   C     C_R   0.409295 0.084805 0.648279 0.334034
C39   C     C_R   0.453209 0.169621 0.636380 0.371569
C40   C     C_R   0.485339 0.264659 0.705069 -0.168218
C41   C     C_R   0.525582 0.270463 0.787157 0.021556
C42   C     C_R   0.461976 0.354117 0.692802 0.377523
C43   C     C_R   0.500147 0.450257 0.755658 0.329713
C44   C     C_R   0.558431 0.373764 0.853084 -0.193617
H9    H     H_    0.591748 0.067297 0.937704 0.161116
H10   H     H_    0.580627 0.388748 0.917292 0.220287
H11   H     H_    0.512769 0.894977 0.883709 0.155376
H12   H     H_    0.388397 0.739459 0.773388 0.220288
H13   H     H_    0.334621 0.664515 0.193192 0.148271
H14   H     H_    0.613568 0.590722 0.307731 0.154219
C45   C     C_2   0.313975 0.599116 0.317306 -0.340683
C46   C     C_2   0.475601 0.609340 0.284363 -0.127727
H15   H     H_    0.771681 0.636813 0.206782 0.121785
C47   C     C_2   0.634120 0.655748 0.183327 -0.302837
C48   C     C_2   0.472545 0.645587 0.216346 -0.106630
H16   H     H_    0.176394 0.617827 0.293696 0.132215
O11   O     O_R   0.421600 0.630430 0.917010 -0.488615
O12   O     O_R   0.793840 0.702190 0.087630 -0.559832
O13   O     O_R   0.964010 0.886170 0.088190 -0.553315
C49   C     C_R   0.631254 0.693214 0.115944 0.708508
O14   O     O_R   0.751460 0.619510 0.917500 -0.505692
O15   O     O_R   0.921330 0.802900 0.916840 -0.482976
C50   C     C_R   0.577698 0.575312 0.902535 0.806082
O16   O     O_R   0.464290 0.713700 0.088350 -0.547085
O17   O     O_3   0.609200 0.818520 0.002630 -0.387346
V3    V     V_3+5 0.884140 0.747190 0.002530 1.524352
O18   O     O_R   0.251150 0.814630 0.917340 -0.539474
C51   C     C_R   0.073669 0.841703 0.901437 0.776617
O19   O     O_R   0.293530 0.897310 0.087470 -0.542580
C52   C     C_R   0.130317 0.933451 0.115508 0.701878
V4    V     V_3+5 0.384070 0.769710 0.002370 1.514988
O20   O     O_3   0.109180 0.698190 0.002460 -0.363998
O21   O     O_3   0.856366 0.895118 0.560706 -0.543347
C53   C     C_3   0.788640 0.919533 0.493452 -0.098860
H17   H     H_    0.896806 0.964545 0.480173 0.174824
H18   H     H_    0.650438 0.958387 0.503522 0.208182
H19   H     H_    0.761293 0.848097 0.437231 0.135881
Cl1   Cl    Cl    0.603932 0.144010 0.306451 -0.645721
Cl2   Cl    Cl    0.472122 0.555448 0.731144 -0.630704
Cl3   Cl    Cl    0.469938 0.145840 0.529821 -0.524440
O22   O     O_3   0.829424 0.234292 0.591284 -0.551967
C54   C     C_3   0.966227 0.199470 0.534073 -0.068848
H20   H     H_    0.095392 0.173477 0.559817 0.200911
H21   H     H_    0.003051 0.257376 0.511787 0.164806
H22   H     H_    0.901864 0.133769 0.478932 0.181081
O23   O     O_3   0.499032 0.871473 0.586346 -0.545125
C55   C     C_3   0.410583 0.793508 0.514042 -0.108023
H23   H     H_    0.259097 0.775824 0.518777 0.137068
H24   H     H_    0.503573 0.727937 0.497152 0.120778
H25   H     H_    0.405741 0.817836 0.462194 0.181558
Cl4   Cl    Cl    0.670721 0.258977 0.966616 -0.749840
Cl5   Cl    Cl    0.246632 0.000428 0.568632 -0.687884
Cl6   Cl    Cl    0.341199 0.349254 0.602093 -0.541842
Cl7   Cl    Cl    0.060686 0.592857 0.804354 -0.619293
O24   O     O_3   0.205728 0.375223 0.952028 -0.562145
C56   C     C_3   0.080774 0.407002 0.014417 -0.177131
H26   H     H_    0.943597 0.434069 0.994093 0.140826
H27   H     H_    0.151348 0.471542 0.068933 0.149514
H28   H     H_    0.053138 0.345718 0.034807 0.192029
O25   O     O_3   0.825013 0.744614 0.759152 -0.546576
C57   C     C_3   0.874259 0.663880 0.689572 -0.022869
H29   H     H_    0.790369 0.601540 0.688426 0.200616
H30   H     H_    0.838410 0.671223 0.631769 0.117784
H31   H     H_    0.029964 0.652194 0.693442 0.165621

loop_
_geom_bond_atom_site_label_1
_geom_bond_atom_site_label_2
_ccdc_geom_bond_type
C13   C19   A    
C18   C20   A    
O18   C51   A    
O21   C53   S    
O18   V4    S    
C5    C51   S    
H7    C24   S    
H15   C47   S    
C4    C6    S    
O2    C1    A    
C7    C8    A    
C1    O6    A    
O17   V4    S    
C9    H2    S    
O17   V3    S    
C56   H26   S    
C21   Cl7   S    
C17   C18   A    
C38   Cl5   S    
C16   C17   A    
O5    C3    A    
C45   H16   S    
C54   H21   S    
O12   C49   A    
C28   C44   A    
O23   C55   S    
O11   C50   A    
O24   C56   S    
C5    C8    A    
C36   C37   A    
C54   H22   S    
C40   C42   A    
C23   H8    S    
C20   H5    S    
O13   C52   A    
C43   Cl2   S    
C25   Cl1   S    
V3    O20   S    
C57   H31   S    
C55   H23   S    
O1    V2    S    
O16   V4    S    
C11   C15   A    
O19   V4    S    
O7    V1    S    
C36   Cl4   S    
O14   V3    S    
O15   C51   A    
C49   O16   A    
O12   V3    S    
C17   O24   S    
C39   C40   A    
C47   C49   S    
O9    C4    A    
C39   Cl3   S    
C55   H24   S    
C54   H20   S    
O8    V2    S    
C46   C48   S    
O14   C50   A    
C32   C34   A    
C27   C30   A    
C10   C11   A    
H6    C26   S    
C22   O22   S    
C47   C48   D    
C31   C32   A    
O22   C54   S    
C12   C13   A    
C42   Cl6   S    
V4    O20   S    
O4    C2    A    
C33   C37   A    
C28   C43   A    
C27   C31   A    
C53   H19   S    
C38   C39   A    
O15   V3    S    
C5    C9    A    
C40   C41   A    
C23   C52   S    
C44   H10   S    
C41   C44   A    
C7    C11   A    
C42   C43   A    
C24   C26   S    
C16   H4    S    
C35   C36   A    
C14   C15   A    
C19   C22   A    
C53   H18   S    
C6    C22   A    
C57   H29   S    
O3    C4    A    
O6    V2    S    
O9    V2    S    
C55   H25   S    
C10   C12   A    
C15   O21   S    
C23   C24   D    
O2    V1    S    
C8    O25   S    
C32   C33   A    
C34   C38   A    
C34   C35   A    
O11   V4    S    
C29   H11   S    
O1    C2    A    
C25   C26   D    
C12   C16   A    
C37   H9    S    
O5    V1    S    
H14   C46   S    
O8    C3    A    
C28   C50   S    
C14   H3    S    
C56   H28   S    
C20   C21   A    
C13   C14   A    
C45   C46   D    
C3    C25   S    
O3    V1    S    
C7    H1    S    
C2    C45   S    
C18   C19   A    
C31   O23   S    
C29   C33   A    
C35   C41   A    
C56   H27   S    
H13   C48   S    
O7    V2    S    
C53   H17   S    
C6    C21   A    
C57   H30   S    
O4    V1    S    
C29   C30   A    
O25   C57   S    
V1    O10   S    
O19   C52   A    
C9    C10   A    
C30   H12   S    
O13   V3    S    
V2    O10   S    
C1    C27   S    
