data_mof_unit_32993.cif
_audit_creation_date              2012-12-11T14:50:33-0500
_audit_creation_method            fapswitch 2.2
_symmetry_space_group_name_H-M    P1
_symmetry_Int_Tables_number       1
_space_group_crystal_system       triclinic
_cell_length_a                    10.886137
_cell_length_b                    10.873422
_cell_length_c                    18.777152
_cell_angle_alpha                 90.182912
_cell_angle_beta                  89.812175
_cell_angle_gamma                 60.443108
_cell_volume                      1933.36254916

loop_
_atom_site_label
_atom_site_type_symbol
_atom_type_description
_atom_site_fract_x
_atom_site_fract_y
_atom_site_fract_z
_atom_type_partial_charge
C1    C     C_R   0.237230 0.646158 0.610035 0.539407
C2    C     C_3   0.666896 0.553716 0.800406 -0.249898
C3    C     C_3   0.699641 0.674717 0.811936 0.049959
C4    C     C_3   0.669841 0.647967 0.676305 0.056477
C5    C     C_3   0.817736 0.629500 0.689947 -0.247727
C6    C     C_3   0.651433 0.536363 0.720355 -0.211568
C7    C     C_R   0.789155 0.137792 0.708265 -0.156545
C8    C     C_R   0.806720 0.119053 0.781833 -0.147578
C9    C     C_R   0.687780 0.164192 0.826321 0.020080
C10   C     C_R   0.552318 0.235869 0.797509 -0.143529
C11   C     C_R   0.535476 0.249100 0.724895 -0.139057
C12   C     C_R   0.653749 0.622343 0.600976 0.538894
C13   C     C_R   0.653075 0.198317 0.679518 0.021326
C14   C     C_R   0.187283 0.555524 0.721615 -0.159455
C15   C     C_R   0.178046 0.559994 0.795645 -0.156048
C16   C     C_R   0.175337 0.673168 0.833306 0.025352
C17   C     C_R   0.191311 0.776188 0.796586 -0.150198
C18   C     C_R   0.198100 0.773004 0.723383 -0.146743
C19   C     C_R   0.197379 0.662239 0.685057 0.028207
C20   C     C_R   0.753901 0.537165 0.275752 -0.129610
C21   C     C_R   0.750324 0.543456 0.202957 -0.131511
C22   C     C_R   0.655536 0.668815 0.168611 0.033501
C23   C     C_R   0.625706 0.232618 0.604396 0.539809
C24   C     C_R   0.552103 0.782432 0.208576 -0.131664
C25   C     C_R   0.549047 0.771878 0.282631 -0.133769
C26   C     C_R   0.652514 0.649683 0.316589 0.034145
C27   C     C_R   0.556446 0.141124 0.289211 -0.137027
C28   C     C_R   0.554696 0.133360 0.216414 -0.129109
C29   C     C_R   0.647193 0.159745 0.175509 0.039996
C30   C     C_R   0.736118 0.201484 0.207726 -0.148825
C31   C     C_R   0.735543 0.212367 0.280931 -0.150010
C32   C     C_R   0.645162 0.182827 0.321826 0.026568
C33   C     C_R   0.062371 0.819378 0.309827 0.091182
C34   C     C_R   0.218128 0.650756 0.401949 0.574622
C35   C     C_R   0.020153 0.839902 0.238971 -0.122701
C36   C     C_R   0.048004 0.724442 0.195405 0.010736
C37   C     C_R   0.102920 0.589384 0.225047 -0.138520
C38   C     C_R   0.146868 0.567599 0.295484 -0.165752
C39   C     C_R   0.134990 0.680828 0.336867 0.064059
C40   C     C_R   0.701781 0.104187 0.896801 0.543336
C41   C     C_R   0.723918 0.688386 0.887946 0.545540
C42   C     C_R   0.118271 0.706403 0.905424 0.551947
C43   C     C_R   0.673677 0.108680 0.103518 0.540991
C44   C     C_R   0.694431 0.689196 0.097129 0.540753
C45   C     C_R   0.641643 0.622089 0.391497 0.547188
C46   C     C_R   0.025143 0.747100 0.118989 0.566795
C47   C     C_R   0.617172 0.229631 0.394664 0.548041
C48   C     C_3   0.575464 0.814113 0.781710 -0.230257
C49   C     C_3   0.557188 0.797792 0.701737 -0.241015
C50   C     C_3   0.836291 0.642114 0.770069 -0.221166
Cr1   Cr    Cr6+3 0.392930 0.397900 0.502230 1.009710
Cr2   Cr    Cr6+3 0.398240 0.708600 0.501260 1.023957
Cr3   Cr    Cr6+3 0.708800 0.393470 0.496460 1.011583
Cr4   Cr    Cr6+3 0.937620 0.938540 0.007640 1.007062
Cr5   Cr    Cr6+3 0.625150 0.937450 0.994520 1.005439
Cr6   Cr    Cr6+3 0.937990 0.625080 0.001190 1.007090
H1    H     H_    0.596685 0.903490 0.789614 0.150350
H2    H     H_    0.732271 0.427533 0.704022 0.148234
H3    H     H_    0.926272 0.540657 0.788632 0.135686
H4    H     H_    0.901895 0.524345 0.670683 0.134394
H5    H     H_    0.880801 0.102377 0.673986 0.121944
H6    H     H_    0.912490 0.062011 0.803262 0.131784
H7    H     H_    0.459178 0.272240 0.830857 0.129368
H8    H     H_    0.429364 0.300135 0.704226 0.138895
H9    H     H_    0.187360 0.468744 0.693140 0.114641
H10   H     H_    0.165760 0.479183 0.823015 0.120404
H11   H     H_    0.189630 0.864915 0.823922 0.126355
H12   H     H_    0.475483 0.841100 0.810351 0.122015
H13   H     H_    0.207028 0.856750 0.697082 0.126516
H14   H     H_    0.835179 0.441071 0.299701 0.126795
H15   H     H_    0.830797 0.452948 0.173996 0.127915
H16   H     H_    0.477854 0.880202 0.183061 0.121869
H17   H     H_    0.467356 0.858565 0.313107 0.123461
H18   H     H_    0.484459 0.119698 0.319734 0.125897
H19   H     H_    0.485741 0.099529 0.192641 0.129195
H20   H     H_    0.809699 0.219604 0.176665 0.114819
H21   H     H_    0.804148 0.245619 0.305430 0.125706
H22   H     H_    0.449042 0.814933 0.692581 0.138609
H23   H     H_    0.973082 0.945041 0.216848 0.129149
H24   H     H_    0.121051 0.499092 0.192842 0.139146
H25   H     H_    0.200007 0.460469 0.315606 0.135721
H26   H     H_    0.567722 0.879824 0.671288 0.121847
H27   H     H_    0.863475 0.726984 0.779734 0.131844
H28   H     H_    0.830375 0.711504 0.660697 0.117254
H29   H     H_    0.753138 0.452968 0.822213 0.132916
H30   H     H_    0.567499 0.577485 0.828715 0.120961
H31   H     H_    0.545860 0.547060 0.710077 0.130029
O1    O     O_R   0.507430 0.255570 0.581420 -0.527383
O2    O     O_R   0.524460 0.695920 0.424060 -0.502216
O3    O     O_R   0.736530 0.504260 0.414810 -0.527569
O4    O     O_R   0.691460 0.277160 0.422180 -0.507929
O5    O     O_3   0.499990 0.499990 0.499980 -0.248974
O6    O     O_R   0.089490 0.825610 0.930610 -0.521956
O7    O     O_R   0.818370 0.054540 0.929880 -0.504982
O8    O     O_R   0.605870 0.077310 0.915530 -0.524620
O9    O     O_R   0.646440 0.806700 0.917570 -0.506208
O10   O     O_R   0.837200 0.593290 0.915250 -0.527201
O11   O     O_R   0.065330 0.635370 0.931590 -0.503138
O12   O     O_R   0.280190 0.527390 0.578910 -0.510556
O13   O     O_R   0.068300 0.828790 0.091860 -0.512586
O14   O     O_R   0.798730 0.057480 0.079370 -0.526602
O15   O     O_R   0.584680 0.080480 0.076790 -0.524922
O16   O     O_R   0.626790 0.809640 0.067050 -0.503947
O17   O     O_R   0.816010 0.596460 0.076500 -0.533134
O18   O     O_R   0.045680 0.638310 0.081070 -0.502240
O19   O     O_3   0.833590 0.833690 0.001120 -0.265460
O20   O     O_R   0.260310 0.739740 0.584580 -0.529376
O21   O     O_R   0.532250 0.695150 0.573830 -0.510750
O22   O     O_R   0.744930 0.503430 0.576380 -0.527066
O23   O     O_R   0.699250 0.276390 0.571950 -0.503620
O24   O     O_R   0.499020 0.256400 0.419850 -0.522728
O25   O     O_R   0.272400 0.528160 0.429140 -0.517126
O26   O     O_R   0.251910 0.740570 0.423020 -0.473029
N1    N     N_3   0.037432 0.938161 0.353260 -0.604022
H32   H     H_    0.928790 0.000003 0.361147 0.229117
H33   H     H_    0.073544 0.998096 0.326049 0.222033

loop_
_geom_bond_atom_site_label_1
_geom_bond_atom_site_label_2
_ccdc_geom_bond_type
Cr3   O23   S    
Cr1   O25   S    
C42   O6    A    
C34   O25   A    
C6    H2    S    
Cr4   O14   S    
C35   C36   A    
Cr6   O11   S    
Cr4   O13   S    
C1    O12   A    
N1    H32   S    
C44   O17   A    
C7    C8    A    
Cr2   O26   S    
C34   O26   A    
Cr5   O15   S    
C33   N1    S    
C33   C39   A    
C21   H15   S    
C50   H3    S    
C36   C37   A    
C42   O11   A    
C38   C39   A    
C41   O9    A    
C15   C16   A    
C46   O18   A    
Cr5   O16   S    
C3    C48   S    
C49   H22   S    
C13   C23   S    
C2    H29   S    
C18   C19   A    
C7    H5    S    
Cr4   O6    S    
C26   C45   S    
C3    C50   S    
C22   C44   S    
C10   H7    S    
Cr2   O20   S    
C8    C9    A    
Cr3   O4    S    
C36   C46   S    
C4    C12   S    
C29   C30   A    
C45   O2    A    
C9    C10   A    
C25   H17   S    
C18   H13   S    
C21   C22   A    
C29   C43   S    
C20   H14   S    
Cr2   O2    S    
C2    C6    S    
Cr6   O10   S    
C12   O22   A    
C44   O16   A    
C50   H27   S    
C31   H21   S    
Cr1   O12   S    
C37   H24   S    
C17   H11   S    
C1    C19   S    
Cr4   O19   S    
Cr5   O19   S    
C34   C39   S    
C48   H1    S    
C24   C25   A    
Cr6   O17   S    
Cr5   O8    S    
C11   H8    S    
C12   O21   A    
C5    H28   S    
C16   C17   A    
C25   C26   A    
C15   H10   S    
C9    C40   S    
C6    H31   S    
C49   H26   S    
C43   O14   A    
C37   C38   A    
Cr1   O5    S    
C30   H20   S    
C31   C32   A    
C7    C13   A    
Cr3   O5    S    
C17   C18   A    
C48   H12   S    
C45   O3    A    
Cr6   O19   S    
C1    O20   A    
C4    C6    S    
C48   C49   S    
C23   O1    A    
C38   H25   S    
C32   C47   S    
C41   O10   A    
C5    C50   S    
Cr2   O5    S    
C40   O8    A    
C27   H18   S    
C16   C42   S    
Cr3   O3    S    
C24   H16   S    
Cr3   O22   S    
C23   O23   A    
C46   O13   A    
C28   C29   A    
Cr1   O24   S    
C5    H4    S    
C27   C32   A    
C47   O4    A    
C14   C19   A    
C40   O7    A    
Cr5   O9    S    
Cr1   O1    S    
N1    H33   S    
C4    C49   S    
C2    C3    S    
C43   O15   A    
C11   C13   A    
C30   C31   A    
C20   C26   A    
C47   O24   A    
C35   H23   S    
C33   C35   A    
C14   H9    S    
C2    H30   S    
C22   C24   A    
Cr6   O18   S    
Cr4   O7    S    
C3    C41   S    
C10   C11   A    
C4    C5    S    
C20   C21   A    
Cr2   O21   S    
C27   C28   A    
C14   C15   A    
C28   H19   S    
C8    H6    S    
