data_mof_unit_40663.cif
_audit_creation_date              2012-12-10T17:46:58-0500
_audit_creation_method            fapswitch 2.2
_symmetry_space_group_name_H-M    P1
_symmetry_Int_Tables_number       1
_space_group_crystal_system       triclinic
_cell_length_a                    9.915825
_cell_length_b                    10.708414
_cell_length_c                    13.623019
_cell_angle_alpha                 91.559829
_cell_angle_beta                  83.076025
_cell_angle_gamma                 90.370009
_cell_volume                      1435.44072111

loop_
_atom_site_label
_atom_site_type_symbol
_atom_type_description
_atom_site_fract_x
_atom_site_fract_y
_atom_site_fract_z
_atom_type_partial_charge
C1    C     C_R   0.502252 0.738317 0.486975 0.870157
C2    C     C_R   0.626476 0.937612 0.469576 0.212923
C3    C     C_R   0.619849 0.064350 0.488454 -0.291558
C4    C     C_R   0.475719 0.500534 0.685609 0.880800
C5    C     C_R   0.494217 0.124859 0.504594 -0.166501
C6    C     C_R   0.841483 0.669259 0.625028 -0.197980
C7    C     C_R   0.902135 0.753595 0.685730 -0.233909
C8    C     C_R   0.042871 0.754487 0.686357 0.257309
C9    C     C_R   0.120697 0.666965 0.626336 -0.235988
C10   C     C_R   0.062716 0.583030 0.561780 0.125503
C11   C     C_R   0.918475 0.583591 0.561361 0.176050
C12   C     C_1   0.457344 0.502147 0.789431 -0.186167
C13   C     C_R   0.937684 0.419947 0.441332 -0.128592
C14   C     C_R   0.080788 0.420068 0.441287 -0.123694
C15   C     C_R   0.497841 0.259552 0.505265 0.898352
C16   C     C_R   0.524285 0.499925 0.314381 0.885800
C17   C     C_1   0.542689 0.501614 0.210613 -0.188992
C18   C     C_2   0.558623 0.504761 0.018958 -0.163025
C19   C     C_2   0.441495 0.504873 0.981196 -0.162598
C20   C     C_1   0.445428 0.503605 0.877264 0.007149
C21   C     C_1   0.554654 0.503222 0.122837 0.006215
C22   C     C_3   0.049827 0.960558 0.772016 -0.780773
C23   C     C_R   0.266697 0.877208 0.428056 -0.126741
C24   C     C_3   0.795253 0.838232 0.350704 -0.735034
C25   C     C_R   0.140052 0.933744 0.444867 -0.141118
C26   C     C_R   0.124934 0.046022 0.498381 -0.174080
C27   C     C_R   0.239157 0.107133 0.526870 -0.144140
C28   C     C_R   0.371225 0.057289 0.499667 0.097537
C29   C     C_R   0.381070 0.933842 0.463819 0.057647
C30   C     C_R   0.504723 0.870452 0.466829 -0.181216
H1    H     H_    0.344165 0.504641 0.027496 0.159353
H2    H     H_    0.221139 0.191079 0.572086 0.165575
H3    H     H_    0.714504 0.115551 0.488583 0.168364
H4    H     H_    0.891459 0.354453 0.393463 0.145323
H5    H     H_    0.212917 0.838127 0.738154 0.218638
H6    H     H_    0.120134 0.018922 0.811590 0.235117
H7    H     H_    0.952721 0.953395 0.821353 0.239705
H8    H     H_    0.033158 0.007393 0.702814 0.242888
H9    H     H_    0.832114 0.925191 0.483496 0.209410
H10   H     H_    0.885583 0.776859 0.346598 0.227776
H11   H     H_    0.820238 0.920569 0.303926 0.220603
H12   H     H_    0.733729 0.673686 0.631088 0.218707
H13   H     H_    0.712662 0.783502 0.321290 0.242696
H14   H     H_    0.837377 0.816639 0.733241 0.158525
H15   H     H_    0.226388 0.666157 0.632886 0.206798
H16   H     H_    0.141995 0.354603 0.393411 0.155105
H17   H     H_    0.655953 0.504609 0.972646 0.160651
H18   H     H_    0.274623 0.789848 0.385945 0.157206
H19   H     H_    0.053698 0.888132 0.418670 0.139891
H20   H     H_    0.025121 0.086773 0.516639 0.126285
N1    N     N_R   0.857120 0.501200 0.500900 -0.110815
N2    N     N_R   0.142720 0.501280 0.500940 -0.114858
N3    N     N_2   0.108133 0.837844 0.749855 -0.297073
N4    N     N_2   0.755810 0.878634 0.452377 -0.280525
O1    O     O_R   0.385310 0.683220 0.500000 -0.650013
O2    O     O_R   0.614640 0.683250 0.500010 -0.600040
O3    O     O_R   0.368830 0.499960 0.640340 -0.629228
O4    O     O_R   0.598160 0.499980 0.640350 -0.625886
O5    O     O_R   0.385360 0.316750 0.499990 -0.627895
O6    O     O_R   0.614690 0.316780 0.500000 -0.616797
O7    O     O_R   0.401840 0.500020 0.359650 -0.611607
O8    O     O_R   0.631170 0.500040 0.359660 -0.608533
Zn1   Zn    Zn3+2 0.346870 0.499980 0.499990 0.921415
Zn2   Zn    Zn3+2 0.653130 0.500020 0.500010 0.939905

loop_
_geom_bond_atom_site_label_1
_geom_bond_atom_site_label_2
_ccdc_geom_bond_type
C4    O3    A    
C8    N3    S    
C17   C21   T    
O2    Zn2   S    
C9    H15   S    
C6    C7    A    
C13   C14   A    
H5    N3    S    
C18   C21   S    
C22   H6    S    
C9    C10   A    
O5    Zn1   S    
C19   C20   S    
O6    Zn2   S    
C2    C30   A    
C10   N2    A    
C18   H17   S    
C12   C20   T    
C26   H20   S    
C2    C3    A    
C1    O1    A    
C19   H1    S    
C13   H4    S    
C14   H16   S    
C7    H14   S    
C6    H12   S    
C24   H11   S    
C6    C11   A    
C26   C27   A    
C29   C30   A    
C16   O8    A    
C27   H2    S    
C23   C29   A    
C28   C29   A    
C24   H10   S    
C1    O2    A    
O3    Zn1   S    
C22   N3    S    
C23   C25   A    
O4    Zn2   S    
C25   H19   S    
C5    C15   S    
H9    N4    S    
C4    C12   S    
C10   C11   A    
C3    H3    S    
C24   N4    S    
C5    C28   A    
C7    C8    A    
C11   N1    A    
C18   C19   D    
C2    N4    S    
C4    O4    A    
C27   C28   A    
O7    Zn1   S    
C24   H13   S    
C1    C30   S    
O8    Zn2   S    
C23   H18   S    
C16   O7    A    
C25   C26   A    
C13   N1    A    
C22   H7    S    
C15   O5    A    
C15   O6    A    
C14   N2    A    
N1    Zn2   S    
C16   C17   S    
O1    Zn1   S    
C8    C9    A    
C3    C5    A    
N2    Zn1   S    
C22   H8    S    
