data_mof_unit_43280.cif
_audit_creation_date              2012-12-10T18:16:22-0500
_audit_creation_method            fapswitch 2.2
_symmetry_space_group_name_H-M    P1
_symmetry_Int_Tables_number       1
_space_group_crystal_system       triclinic
_cell_length_a                    12.571216
_cell_length_b                    13.144852
_cell_length_c                    27.694777
_cell_angle_alpha                 91.340295
_cell_angle_beta                  103.045919
_cell_angle_gamma                 82.965957
_cell_volume                      4424.75307253

loop_
_atom_site_label
_atom_site_type_symbol
_atom_type_description
_atom_site_fract_x
_atom_site_fract_y
_atom_site_fract_z
_atom_type_partial_charge
C1    C     C_R   0.439487 0.691203 0.497291 0.866023
C2    C     C_R   0.414519 0.475164 0.713739 -0.186554
C3    C     C_R   0.511630 0.488618 0.748223 0.212649
C4    C     C_R   0.497862 0.498660 0.898153 -0.059573
C5    C     C_R   0.511766 0.587664 0.874136 -0.045300
C6    C     C_R   0.518009 0.680014 0.900039 -0.135793
C7    C     C_R   0.493452 0.405267 0.872222 -0.010718
C8    C     C_R   0.505679 0.495155 0.647081 -0.098009
C9    C     C_R   0.493804 0.501379 0.352846 -0.039728
C10   C     C_R   0.503429 0.595689 0.026279 0.073514
C11   C     C_R   0.444748 0.422375 0.018720 -0.100331
C12   C     C_R   0.501600 0.499231 0.594005 0.866291
C13   C     C_R   0.472972 0.509664 0.047665 0.019840
C14   C     C_R   0.536666 0.678417 0.057217 -0.217018
C15   C     C_R   0.537889 0.677252 0.107422 -0.139182
C16   C     C_R   0.505544 0.593937 0.128464 -0.001590
C17   C     C_R   0.471418 0.510618 0.098541 -0.056371
C18   C     C_R   0.437039 0.427687 0.119708 -0.103495
C19   C     C_R   0.441486 0.427692 0.170635 0.532638
C20   C     C_R   0.507630 0.591324 0.179136 0.501243
C21   C     C_R   0.386450 0.507514 0.268396 -0.100573
C22   C     C_R   0.391755 0.504748 0.318966 -0.215427
C23   C     C_R   0.559951 0.309600 0.511060 0.907147
C24   C     C_R   0.590514 0.500232 0.335461 -0.222458
C25   C     C_R   0.585025 0.502153 0.284774 -0.099425
C26   C     C_R   0.482975 0.506032 0.251206 0.308235
C27   C     C_R   0.501457 0.595393 0.974991 0.046207
C28   C     C_R   0.488229 0.503028 0.948057 0.076612
C29   C     C_R   0.466065 0.414717 0.970623 0.039594
C30   C     C_R   0.513554 0.683898 0.949685 -0.220005
C31   C     C_R   0.482874 0.316298 0.896452 -0.174092
C32   C     C_R   0.394809 0.347037 0.039150 0.463319
C33   C     C_R   0.396768 0.347904 0.089601 -0.212383
C34   C     C_R   0.498526 0.499947 0.406014 0.869240
C35   C     C_R   0.470633 0.320698 0.945042 -0.194550
C36   C     C_R   0.717728 0.060636 0.570135 -0.294152
C37   C     C_R   0.590743 0.203882 0.530102 -0.309139
C38   C     C_R   0.299745 0.837473 0.468143 -0.181735
C39   C     C_R   0.272068 0.941787 0.459565 -0.192158
C40   C     C_R   0.346106 0.009376 0.480610 -0.139637
C41   C     C_R   0.445587 0.974462 0.514763 0.118567
C42   C     C_R   0.470521 0.868968 0.525665 0.075843
C43   C     C_R   0.526204 0.039595 0.534594 -0.033333
C44   C     C_R   0.632514 0.998358 0.559941 0.034638
C45   C     C_R   0.517234 0.582344 0.824264 0.571320
C46   C     C_R   0.649850 0.897052 0.576238 -0.179329
C47   C     C_R   0.566700 0.834669 0.561551 -0.196146
C48   C     C_R   0.503964 0.145280 0.530683 0.359861
C49   C     C_R   0.699818 0.161369 0.551584 0.439214
C50   C     C_R   0.401220 0.800279 0.498846 -0.117427
C51   C     C_R   0.084327 0.349448 0.429113 -0.310928
C52   C     C_R   0.803605 0.625002 0.561447 0.028427
C53   C     C_R   0.909254 0.653026 0.574051 -0.248160
C54   C     C_R   0.988662 0.607241 0.550047 -0.193943
C55   C     C_R   0.962607 0.532113 0.513338 0.014699
C56   C     C_R   0.501002 0.403097 0.822602 0.486997
C57   C     C_R   0.853085 0.507091 0.501487 0.245978
C58   C     C_R   0.040905 0.479641 0.488722 -0.013774
C59   C     C_R   0.008173 0.403635 0.452936 0.197595
C60   C     C_R   0.900147 0.381328 0.441700 -0.318041
C61   C     C_R   0.824196 0.431763 0.465916 -0.245923
C62   C     C_R   0.151347 0.498472 0.498360 -0.073176
C63   C     C_R   0.192137 0.371368 0.440548 0.042935
C64   C     C_R   0.607504 0.502269 0.732410 0.528454
C65   C     C_R   0.603667 0.507219 0.681784 -0.306968
C66   C     C_R   0.411516 0.477949 0.663430 -0.244842
H1    H     H_    0.335134 0.467737 0.637437 0.167782
H2    H     H_    0.484017 0.242737 0.877979 0.193676
H3    H     H_    0.670136 0.497218 0.360903 0.168131
H4    H     H_    0.363324 0.286834 0.104723 0.207905
H5    H     H_    0.659899 0.500510 0.271491 0.144397
H6    H     H_    0.469062 0.248629 0.962541 0.206645
H7    H     H_    0.727362 0.866031 0.599994 0.139308
H8    H     H_    0.798355 0.030474 0.591351 0.160829
H9    H     H_    0.340897 0.463986 0.726064 0.163242
H10   H     H_    0.244873 0.785530 0.448150 0.163618
H11   H     H_    0.325850 0.087455 0.467452 0.192640
H12   H     H_    0.196049 0.969828 0.433943 0.152702
H13   H     H_    0.579707 0.758519 0.577197 0.155733
H14   H     H_    0.252260 0.330455 0.422456 0.138874
H15   H     H_    0.874726 0.322494 0.414954 0.158763
H16   H     H_    0.060710 0.290731 0.402037 0.146280
H17   H     H_    0.183743 0.555028 0.524492 0.130882
H18   H     H_    0.742620 0.658665 0.580770 0.122262
H19   H     H_    0.526902 0.749863 0.882101 0.189820
H20   H     H_    0.069446 0.631331 0.561409 0.139044
H21   H     H_    0.929756 0.709590 0.602606 0.148398
H22   H     H_    0.744840 0.406062 0.457854 0.212575
H23   H     H_    0.315934 0.506293 0.331479 0.163854
H24   H     H_    0.307400 0.511038 0.242489 0.144581
H25   H     H_    0.565280 0.741847 0.129788 0.191036
H26   H     H_    0.566230 0.743722 0.044058 0.144996
H27   H     H_    0.516733 0.758155 0.966949 0.145862
H28   H     H_    0.677256 0.520351 0.669887 0.179822
N1    N     N_R   0.511426 0.491088 0.799705 -0.341574
N2    N     N_R   0.477294 0.508373 0.199173 -0.354758
N3    N     N_R   0.222180 0.444690 0.474320 -0.104631
N4    N     N_R   0.776980 0.554780 0.525420 -0.124091
O1    O     O_R   0.366730 0.627160 0.487740 -0.618000
O2    O     O_2   0.539312 0.671038 0.208203 -0.560243
O3    O     O_2   0.497567 0.314107 0.797272 -0.584005
O4    O     O_2   0.411677 0.347228 0.191660 -0.563924
O5    O     O_R   0.544830 0.662520 0.504140 -0.610686
O6    O     O_R   0.410970 0.482310 0.563040 -0.644525
O7    O     O_R   0.589070 0.517670 0.579450 -0.626383
O8    O     O_R   0.455170 0.337480 0.495860 -0.573626
O9    O     O_R   0.633270 0.372840 0.512260 -0.610076
O10   O     O_R   0.410930 0.482330 0.420550 -0.621147
O11   O     O_R   0.589030 0.517690 0.436960 -0.632705
O12   O     O_2   0.526876 0.667746 0.800231 -0.540127
Zn1   Zn    Zn3+2 0.381080 0.476390 0.489050 0.944444
Zn2   Zn    Zn3+2 0.618920 0.523610 0.510950 0.947962
O13   O     O_3   0.702878 0.517474 0.766485 -0.591164
C67   C     C_3   0.767077 0.421663 0.777826 0.073583
H29   H     H_    0.796430 0.390182 0.744803 0.146933
H30   H     H_    0.719847 0.365520 0.790841 0.162124
C68   C     C_3   0.866762 0.435434 0.819198 -0.788087
H31   H     H_    0.839719 0.465688 0.852838 0.259761
H32   H     H_    0.918185 0.360544 0.828383 0.203189
H33   H     H_    0.916907 0.489909 0.807320 0.260084
O14   O     O_3   0.340992 0.272569 0.010813 -0.662815
C69   C     C_3   0.239526 0.317207 0.981252 0.080262
H34   H     H_    0.219597 0.268632 0.947825 0.173635
H35   H     H_    0.242590 0.395623 0.967453 0.135725
C70   C     C_3   0.147384 0.319015 0.009365 -0.356973
H36   H     H_    0.144393 0.240331 0.022437 0.240418
H37   H     H_    0.164192 0.369703 0.042189 0.220246
C71   C     C_3   0.035897 0.358355 0.976446 -0.935958
H38   H     H_    0.036577 0.437636 0.963571 0.265924
H39   H     H_    0.970972 0.359022 0.997824 0.272248
H40   H     H_    0.015878 0.307804 0.943761 0.263848
O15   O     O_3   0.783756 0.222612 0.563961 -0.623964
C72   C     C_3   0.850238 0.211346 0.528793 0.124411
H41   H     H_    0.891303 0.281763 0.531260 0.191643
H42   H     H_    0.801400 0.206389 0.489965 0.112215
C73   C     C_3   0.941027 0.120390 0.540990 -0.402114
H43   H     H_    0.979487 0.119728 0.581295 0.240293
H44   H     H_    0.905177 0.047499 0.531278 0.214406
C74   C     C_3   0.029961 0.126749 0.511945 -0.929339
H45   H     H_    0.993432 0.128388 0.471469 0.261207
H46   H     H_    0.092919 0.058765 0.520543 0.269411
H47   H     H_    0.071090 0.196798 0.522330 0.272402
O16   O     O_3   0.398268 0.190696 0.530914 -0.643376
C75   C     C_3   0.393915 0.230922 0.578432 0.154931
H48   H     H_    0.329226 0.297886 0.573056 0.176793
H49   H     H_    0.471775 0.260028 0.598325 0.119315
C76   C     C_3   0.361794 0.151366 0.610298 -0.413709
H50   H     H_    0.283689 0.123796 0.590207 0.239071
H51   H     H_    0.426953 0.084845 0.617402 0.232546
C77   C     C_3   0.346710 0.196973 0.659851 -0.885868
H52   H     H_    0.424351 0.224001 0.680781 0.286799
H53   H     H_    0.324002 0.137651 0.682280 0.274213
H54   H     H_    0.280157 0.262371 0.653811 0.254477

loop_
_geom_bond_atom_site_label_1
_geom_bond_atom_site_label_2
_ccdc_geom_bond_type
C10   C27   A    
C58   C62   A    
C56   N1    A    
C62   H17   S    
C8    C66   A    
C11   C13   A    
O9    Zn2   S    
C76   H50   S    
O5    Zn2   S    
C47   H13   S    
C21   C26   A    
C71   H38   S    
C1    O1    A    
C67   H29   S    
C38   H10   S    
C53   C54   A    
C6    H19   S    
C28   C29   A    
C76   H51   S    
C7    C31   A    
C56   O3    S    
C12   O6    A    
C30   H27   S    
C68   H32   S    
C12   O7    A    
N3    Zn1   S    
C74   H47   S    
C9    C22   A    
C15   C16   A    
C62   N3    A    
C18   C19   A    
C41   C42   A    
C52   H18   S    
C54   C55   A    
O15   C72   S    
C77   H54   S    
C72   C73   S    
C25   H5    S    
C43   C48   A    
C1    O5    A    
C8    C12   S    
C21   H24   S    
C66   H1    S    
C20   N2    A    
C23   O9    A    
C59   C60   A    
C2    H9    S    
C21   C22   A    
C27   C30   A    
C41   C43   A    
C7    C56   A    
C75   C76   S    
C4    C28   A    
C44   C46   A    
C24   H3    S    
O8    Zn1   S    
C26   N2    S    
C31   H2    S    
C49   O15   S    
N4    Zn2   S    
C39   H12   S    
C76   C77   S    
C51   C63   A    
C24   C25   A    
C73   H44   S    
C10   C14   A    
C68   H33   S    
C39   C40   A    
C54   H20   S    
C45   O12   S    
C16   C17   A    
C4    C7    A    
C58   C59   A    
C23   C37   S    
C23   O8    A    
C5    C45   A    
C48   O16   S    
C60   C61   A    
C73   C74   S    
C43   C44   A    
C61   H22   S    
C70   C71   S    
C72   H41   S    
C37   C49   A    
C60   H15   S    
C20   O2    S    
C16   C20   A    
O1    Zn1   S    
C14   C15   A    
C17   C18   A    
C53   H21   S    
C37   C48   A    
C51   H16   S    
C14   H26   S    
O14   C69   S    
C36   H8    S    
C33   H4    S    
C42   C50   A    
C75   H49   S    
C65   H28   S    
C6    C30   A    
O7    Zn2   S    
C35   H6    S    
C55   C57   A    
C70   H36   S    
C31   C35   A    
O11   Zn2   S    
C51   C59   A    
C69   H35   S    
C45   N1    A    
C71   H40   S    
C52   C53   A    
C70   H37   S    
O13   C67   S    
C1    C50   S    
C46   C47   A    
C40   C41   A    
C64   O13   S    
C77   H52   S    
C32   O14   S    
C4    C5    A    
C2    C66   A    
C10   C13   A    
C71   H39   S    
C11   C32   A    
O6    Zn1   S    
C67   H30   S    
C74   H45   S    
C9    C24   A    
C57   C61   A    
C38   C50   A    
C63   H14   S    
C29   C35   A    
O10   Zn1   S    
C13   C17   A    
C75   H48   S    
C34   O10   A    
C64   C65   A    
C69   C70   S    
C2    C3    A    
C25   C26   A    
C63   N3    A    
C68   H31   S    
C32   C33   A    
C74   H46   S    
C5    C6    A    
C57   N4    A    
C38   C39   A    
C52   N4    A    
C19   O4    S    
C22   H23   S    
C9    C34   S    
C77   H53   S    
C42   C47   A    
C3    C64   A    
C18   C33   A    
C67   C68   S    
C36   C44   A    
C19   N2    A    
C15   H25   S    
C8    C65   A    
C11   C29   A    
C55   C58   A    
C27   C28   A    
C72   H42   S    
C34   O11   A    
C40   H11   S    
C73   H43   S    
C3    N1    S    
C69   H34   S    
C46   H7    S    
C36   C49   A    
O16   C75   S    
