data_mof_unit_57474.cif
_audit_creation_date              2012-12-10T17:35:42-0500
_audit_creation_method            fapswitch 2.2
_symmetry_space_group_name_H-M    P1
_symmetry_Int_Tables_number       1
_space_group_crystal_system       triclinic
_cell_length_a                    10.557348
_cell_length_b                    12.170854
_cell_length_c                    12.815085
_cell_angle_alpha                 94.22481
_cell_angle_beta                  93.451514
_cell_angle_gamma                 89.004147
_cell_volume                      1639.04339119

loop_
_atom_site_label
_atom_site_type_symbol
_atom_type_description
_atom_site_fract_x
_atom_site_fract_y
_atom_site_fract_z
_atom_type_partial_charge
C1    C     C_R   0.495508 0.522681 0.699634 0.917134
C2    C     C_R   0.589812 0.171523 0.602750 -0.081951
C3    C     C_R   0.542722 0.863259 0.551745 0.276317
C4    C     C_R   0.457278 0.136740 0.448255 0.276323
C5    C     C_R   0.533437 0.980413 0.545472 -0.025458
C6    C     C_R   0.466562 0.019586 0.454528 -0.025453
C7    C     C_R   0.742131 0.502326 0.505536 0.868950
C8    C     C_R   0.257869 0.497674 0.494461 0.868951
C9    C     C_3   0.962562 0.399857 0.520383 0.129537
C10   C     C_3   0.037437 0.600143 0.479610 0.129538
C11   C     C_3   0.056402 0.471638 0.591611 -0.272901
C12   C     C_R   0.504492 0.477319 0.300366 0.917137
C13   C     C_3   0.943597 0.528363 0.408382 -0.272890
C14   C     C_3   0.122580 0.497244 0.492915 -0.090460
C15   C     C_3   0.877419 0.502757 0.507078 -0.090458
C16   C     C_3   0.029682 0.426024 0.422458 0.210654
C17   C     C_3   0.970317 0.573977 0.577534 0.210636
C18   C     C_R   0.510654 0.460767 0.188527 -0.129216
C19   C     C_R   0.489347 0.539231 0.811473 -0.129220
C20   C     C_R   0.388985 0.615930 0.965043 0.229190
C21   C     C_R   0.611015 0.384066 0.034959 0.229194
C22   C     C_R   0.394971 0.607898 0.855930 0.116475
C23   C     C_R   0.576659 0.481351 0.873674 0.118082
C24   C     C_R   0.605033 0.392102 0.144072 0.116473
C25   C     C_3   0.918984 0.286559 0.548646 -0.371484
C26   C     C_3   0.030055 0.207750 0.572400 -0.341987
C27   C     C_3   0.982733 0.101841 0.612905 -0.915912
C28   C     C_3   0.081018 0.713440 0.451345 -0.371478
C29   C     C_3   0.969950 0.792246 0.427570 -0.342006
C30   C     C_3   0.017279 0.898152 0.387066 -0.915941
C31   C     C_3   0.057042 0.345497 0.330285 -0.963773
C32   C     C_3   0.942954 0.654507 0.669704 -0.963701
C33   C     C_3   0.293842 0.548378 0.166892 -0.887442
C34   C     C_R   0.423338 0.518641 0.126326 0.118079
C35   C     C_3   0.706152 0.451608 0.833106 -0.887422
C36   C     C_3   0.698280 0.328363 0.212197 -0.877324
C37   C     C_3   0.301728 0.671644 0.787807 -0.877325
C38   C     C_3   0.332925 0.719471 0.018191 -0.924792
C39   C     C_3   0.667074 0.280522 0.981814 -0.924795
C40   C     C_3   0.362052 0.185184 0.373327 -0.870006
C41   C     C_3   0.637950 0.814816 0.626673 -0.869983
C42   C     C_3   0.355825 0.961051 0.266095 -0.401470
C43   C     C_3   0.459090 0.993039 0.194623 -0.323175
C44   C     C_3   0.400289 0.048188 0.099369 -0.906066
C45   C     C_R   0.547738 0.465728 0.976796 -0.001756
C46   C     C_3   0.644172 0.038949 0.733905 -0.401470
C47   C     C_3   0.540906 0.006959 0.805376 -0.323174
C48   C     C_3   0.599705 0.951811 0.900631 -0.906069
C49   C     C_R   0.452260 0.534265 0.023203 -0.001753
C50   C     C_R   0.409746 0.939615 0.376329 0.035839
C51   C     C_R   0.590253 0.060385 0.623671 0.035837
C52   C     C_R   0.410188 0.828477 0.397250 -0.081950
H1    H     H_    0.105434 0.449047 0.666287 0.148252
H2    H     H_    0.862468 0.299217 0.619086 0.202117
H3    H     H_    0.857372 0.249015 0.482605 0.218392
H4    H     H_    0.087020 0.939041 0.445015 0.271566
H5    H     H_    0.063182 0.879672 0.311881 0.257862
H6    H     H_    0.936023 0.955511 0.373428 0.255695
H7    H     H_    0.902013 0.752801 0.367200 0.229882
H8    H     H_    0.919048 0.813515 0.499704 0.229612
H9    H     H_    0.142618 0.750990 0.517392 0.218394
H10   H     H_    0.137548 0.700779 0.380913 0.202121
H11   H     H_    0.968492 0.303154 0.300739 0.249541
H12   H     H_    0.894563 0.550953 0.333706 0.148247
H13   H     H_    0.094193 0.389930 0.266507 0.242959
H14   H     H_    0.126904 0.283529 0.355293 0.244286
H15   H     H_    0.031519 0.696805 0.699288 0.249531
H16   H     H_    0.873146 0.716513 0.644676 0.244276
H17   H     H_    0.905730 0.610084 0.733460 0.242941
H18   H     H_    0.267078 0.488879 0.222983 0.215932
H19   H     H_    0.293729 0.631511 0.208275 0.238463
H20   H     H_    0.218915 0.542843 0.102240 0.244809
H21   H     H_    0.732913 0.511094 0.777002 0.215916
H22   H     H_    0.781082 0.457155 0.897756 0.244803
H23   H     H_    0.635314 0.232485 0.657412 0.138063
H24   H     H_    0.706265 0.368468 0.791736 0.238461
H25   H     H_    0.779800 0.294771 0.168781 0.237360
H26   H     H_    0.739314 0.383532 0.277978 0.235893
H27   H     H_    0.649649 0.258834 0.243672 0.256062
H28   H     H_    0.220211 0.705240 0.831222 0.237353
H29   H     H_    0.350365 0.741172 0.756334 0.256064
H30   H     H_    0.260692 0.616478 0.722024 0.235890
H31   H     H_    0.347761 0.791645 0.972459 0.242135
H32   H     H_    0.229545 0.710746 0.025823 0.241633
H33   H     H_    0.382479 0.739826 0.095775 0.245018
H34   H     H_    0.364687 0.767515 0.342587 0.138060
H35   H     H_    0.652248 0.208351 0.027553 0.242136
H36   H     H_    0.617511 0.260161 0.904235 0.245015
H37   H     H_    0.770452 0.289250 0.974174 0.241635
H38   H     H_    0.350063 0.272625 0.386952 0.294728
H39   H     H_    0.391711 0.176632 0.292589 0.243308
H40   H     H_    0.267889 0.150373 0.383729 0.195283
H41   H     H_    0.649943 0.727375 0.613049 0.294731
H42   H     H_    0.732111 0.849631 0.616271 0.195278
H43   H     H_    0.608290 0.823367 0.707411 0.243305
H44   H     H_    0.344342 0.987683 0.047291 0.262232
H45   H     H_    0.936841 0.120318 0.688098 0.257858
H46   H     H_    0.336642 0.117915 0.123089 0.264264
H47   H     H_    0.476213 0.081673 0.055376 0.261442
H48   H     H_    0.529304 0.049281 0.237504 0.222274
H49   H     H_    0.512525 0.917867 0.167337 0.217662
H50   H     H_    0.311043 0.885818 0.226478 0.174395
H51   H     H_    0.274002 0.018468 0.267105 0.211472
H52   H     H_    0.663352 0.882083 0.876912 0.264264
H53   H     H_    0.655652 0.012316 0.952708 0.262234
H54   H     H_    0.523780 0.918327 0.944623 0.261441
H55   H     H_    0.487469 0.082131 0.832661 0.217662
H56   H     H_    0.912981 0.060953 0.554961 0.271559
H57   H     H_    0.470693 0.950717 0.762494 0.222274
H58   H     H_    0.725996 0.981533 0.732897 0.211469
H59   H     H_    0.688952 0.114183 0.773524 0.174394
H60   H     H_    0.063992 0.044480 0.626532 0.255691
H61   H     H_    0.080939 0.186484 0.500254 0.229615
H62   H     H_    0.098007 0.247190 0.632762 0.229883
N1    N     N_R   0.523490 0.207800 0.519350 -0.115800
N2    N     N_R   0.476510 0.792200 0.480650 -0.115799
O1    O     O_R   0.506270 0.421700 0.658830 -0.614210
O2    O     O_R   0.493730 0.578300 0.341170 -0.614216
O3    O     O_R   0.491200 0.609310 0.646410 -0.626244
O4    O     O_R   0.508800 0.390690 0.353590 -0.626247
O5    O     O_R   0.693580 0.406210 0.506230 -0.634907
O6    O     O_R   0.306420 0.593790 0.493770 -0.634906
O7    O     O_R   0.678510 0.593830 0.493810 -0.630497
O8    O     O_R   0.321490 0.406170 0.506190 -0.630501
Zn1   Zn    Zn3+2 0.510060 0.374730 0.508290 0.912075
Zn2   Zn    Zn3+2 0.489940 0.625270 0.491710 0.912076

loop_
_geom_bond_atom_site_label_1
_geom_bond_atom_site_label_2
_ccdc_geom_bond_type
C31   H14   S    
C35   H22   S    
C23   C45   A    
C38   H31   S    
C4    N1    A    
C39   H35   S    
C42   H51   S    
C43   H49   S    
C9    C25   S    
C16   C31   S    
C26   C27   S    
C29   C30   S    
C18   C24   A    
C28   C29   S    
C9    C16   S    
C52   N2    A    
C3    N2    A    
C5    C6    A    
C44   H47   S    
C10   C17   S    
C48   H52   S    
C30   H5    S    
C15   C17   S    
C1    O3    A    
C33   H20   S    
C12   O4    A    
C44   H46   S    
C41   H41   S    
C48   H53   S    
C50   C52   A    
C35   H21   S    
C11   H1    S    
C32   H16   S    
C28   H9    S    
C7    C15   S    
N2    Zn2   S    
C46   H59   S    
C37   H29   S    
C39   H36   S    
C7    O5    A    
C42   H50   S    
C21   C45   A    
C18   C34   A    
C37   H28   S    
C48   H54   S    
C35   H24   S    
C1    C19   S    
C38   H33   S    
C47   C48   S    
C31   H11   S    
C19   C22   A    
C43   H48   S    
C4    C6    A    
C10   C14   S    
O4    Zn1   S    
C8    O8    A    
O7    Zn2   S    
C25   C26   S    
C47   H57   S    
C22   C37   S    
C30   H4    S    
C46   C51   S    
C10   C13   S    
C6    C50   A    
O6    Zn2   S    
C19   C23   A    
C43   C44   S    
C26   H62   S    
O5    Zn1   S    
C20   C49   A    
C44   H44   S    
C20   C38   S    
C2    N1    A    
C41   H42   S    
C21   C39   S    
C29   H8    S    
C45   C49   A    
C33   C34   S    
C1    O1    A    
C25   H2    S    
C9    C11   S    
C33   H18   S    
C42   C50   S    
C32   H15   S    
C12   O2    A    
C20   C22   A    
C27   H60   S    
C47   H55   S    
C13   C15   S    
C14   C16   S    
C37   H30   S    
C21   C24   A    
C42   C43   S    
C10   C28   S    
C31   H13   S    
C46   C47   S    
C3    C41   S    
C34   C49   A    
C8    C14   S    
C38   H32   S    
C25   H3    S    
C7    O7    A    
C3    C5    A    
C36   H27   S    
C11   C17   S    
C32   H17   S    
C23   C35   S    
N1    Zn1   S    
C24   C36   S    
C36   H25   S    
C4    C40   S    
C52   H34   S    
C9    C15   S    
C26   H61   S    
C46   H58   S    
C36   H26   S    
C27   H45   S    
C8    O6    A    
C41   H43   S    
C13   H12   S    
C27   H56   S    
C30   H6    S    
C11   C14   S    
C40   H39   S    
C40   H40   S    
C2    C51   A    
C33   H19   S    
O3    Zn2   S    
C13   C16   S    
C12   C18   S    
C17   C32   S    
C29   H7    S    
C5    C51   A    
O2    Zn2   S    
C40   H38   S    
O1    Zn1   S    
C39   H37   S    
C2    H23   S    
O8    Zn1   S    
C28   H10   S    
