data_mof_unit_36859.cif
_audit_creation_date              2012-12-11T18:37:27-0500
_audit_creation_method            fapswitch 2.2
_symmetry_space_group_name_H-M    P1
_symmetry_Int_Tables_number       1
_space_group_crystal_system       triclinic
_cell_length_a                    8.430363
_cell_length_b                    14.352989
_cell_length_c                    27.147188
_cell_angle_alpha                 94.902996
_cell_angle_beta                  92.899349
_cell_angle_gamma                 87.897207
_cell_volume                      3266.89531753

loop_
_atom_site_label
_atom_site_type_symbol
_atom_type_description
_atom_site_fract_x
_atom_site_fract_y
_atom_site_fract_z
_atom_type_partial_charge
Ba1   Ba    Ba6+2 0.849670 0.455410 0.524690 1.606759
Ba2   Ba    Ba6+2 0.340150 0.544510 0.475310 1.607689
C1    C     C_3   0.631114 0.120775 0.650640 -0.108752
C2    C     C_3   0.580260 0.219949 0.670784 0.478431
C3    C     C_3   0.690300 0.732557 0.631273 0.273649
C4    C     C_3   0.784721 0.813353 0.658233 -0.039475
C5    C     C_3   0.086340 0.763417 0.335581 0.337938
C6    C     C_3   0.157514 0.784933 0.286914 -0.075099
C7    C     C_3   0.529191 0.795110 0.372044 0.340648
C8    C     C_3   0.515461 0.896597 0.359407 -0.388346
C9    C     C_R   0.986710 0.430807 0.178445 0.590176
C10   C     C_R   0.957146 0.597648 0.182298 0.573536
C11   C     C_2   0.764600 0.550145 0.269933 -0.106256
C12   C     C_3   0.129046 0.213246 0.668955 0.541969
C13   C     C_3   0.716401 0.543541 0.322290 -0.020419
C14   C     C_1   0.984338 0.487137 0.344459 0.055582
C15   C     C_2   0.024373 0.482164 0.297036 -0.105216
C16   C     C_2   0.910905 0.517246 0.256943 0.214992
C17   C     C_R   0.037656 0.512500 0.105172 -0.093687
C18   C     C_R   0.020549 0.427239 0.127016 -0.035811
C19   C     C_R   0.031172 0.342435 0.095873 0.062836
C20   C     C_R   0.006231 0.597688 0.133320 -0.023574
C21   C     C_2   0.857505 0.537373 0.358682 -0.265091
C22   C     C_2   0.365565 0.508672 0.647912 -0.097412
C23   C     C_3   0.125606 0.145245 0.709630 -0.041234
C24   C     C_R   0.165461 0.427130 0.976844 0.028984
C25   C     C_R   0.131597 0.598925 0.981986 0.005916
C26   C     C_R   0.164284 0.512924 0.953885 0.033731
C27   C     C_R   0.225412 0.344950 0.949354 0.049658
C28   C     C_R   0.240939 0.344779 0.898218 -0.058333
C29   C     C_R   0.227010 0.427517 0.874299 -0.048781
C30   C     C_R   0.198766 0.512737 0.902587 -0.116945
C31   C     C_R   0.206538 0.597334 0.879646 -0.023957
C32   C     C_R   0.247684 0.594020 0.829062 0.607362
C33   C     C_R   0.250752 0.426689 0.823037 0.612585
C34   C     C_3   0.206155 0.250704 0.404857 0.430606
C35   C     C_2   0.438644 0.466686 0.733216 0.091169
C36   C     C_3   0.452254 0.437426 0.678465 -0.106497
C37   C     C_1   0.220407 0.538156 0.661075 0.048791
C38   C     C_2   0.179361 0.541338 0.708990 -0.055107
C39   C     C_2   0.297754 0.505381 0.748198 0.281758
C40   C     C_R   0.109888 0.427493 0.026067 -0.000268
C41   C     C_R   0.082308 0.513037 0.054753 0.047301
C42   C     C_R   0.095108 0.599175 0.033079 0.031833
C43   C     C_R   0.068016 0.344927 0.046113 -0.098550
C44   C     C_R   0.022424 0.681950 0.111862 -0.064143
C45   C     C_3   0.261785 0.161942 0.373355 -0.085572
C46   C     C_R   0.136384 0.682224 0.957798 -0.125461
C47   C     C_R   0.174408 0.682373 0.908129 0.166268
C48   C     C_R   0.067118 0.682892 0.063287 -0.102347
C49   C     C_R   0.687773 0.064596 0.477042 -0.052021
C50   C     C_R   0.516378 0.202574 0.506450 0.063517
C51   C     C_R   0.388034 0.235333 0.536034 -0.171523
C52   C     C_R   0.282799 0.171103 0.552768 0.007042
C53   C     C_R   0.318542 0.075688 0.546541 -0.164212
C54   C     C_R   0.458068 0.042155 0.524390 0.007124
C55   C     C_R   0.554897 0.104006 0.502142 -0.043473
C56   C     C_3   0.201939 0.745571 0.612374 0.243022
C57   C     C_R   0.638853 0.909130 0.502644 -0.034999
C58   C     C_R   0.732243 0.968983 0.477979 0.003229
C59   C     C_R   0.691352 0.814759 0.506779 0.013428
C60   C     C_R   0.841896 0.784479 0.489703 -0.220626
C61   C     C_R   0.925401 0.840718 0.460925 0.053660
C62   C     C_R   0.871378 0.932949 0.455462 -0.144677
C63   C     C_R   0.500020 0.946612 0.524355 -0.051011
C64   C     C_3   0.250387 0.786153 0.664350 -0.387058
C65   C     C_3   0.700397 0.277823 0.374537 0.356529
C66   C     C_3   0.747802 0.200789 0.333942 -0.171994
H1    H     H_    0.485736 0.243319 0.644176 -0.043211
H2    H     H_    0.355158 0.123646 0.394825 0.073791
H3    H     H_    0.161059 0.114371 0.364742 0.070609
H4    H     H_    0.183447 0.804340 0.588416 0.037560
H5    H     H_    0.298129 0.700991 0.596674 0.125900
H6    H     H_    0.148437 0.822303 0.682801 0.112282
H7    H     H_    0.340877 0.838960 0.661754 0.108288
H8    H     H_    0.300556 0.730352 0.686974 0.118901
H9    H     H_    0.809278 0.303259 0.395158 0.054743
H10   H     H_    0.659259 0.121609 0.611131 0.104223
H11   H     H_    0.853285 0.223063 0.315512 0.102298
H12   H     H_    0.650028 0.191625 0.305048 0.114853
H13   H     H_    0.645810 0.692286 0.660469 0.019768
H14   H     H_    0.769771 0.685255 0.610105 0.070243
H15   H     H_    0.893850 0.781309 0.674841 0.101691
H16   H     H_    0.739665 0.096513 0.671199 0.152817
H17   H     H_    0.221648 0.161078 0.738404 0.103422
H18   H     H_    0.130667 0.691876 0.343071 0.066310
H19   H     H_    0.288163 0.787526 0.291548 0.121836
H20   H     H_    0.133464 0.726988 0.258273 0.124206
H21   H     H_    0.634025 0.787292 0.397895 -0.018129
H22   H     H_    0.421578 0.779934 0.391068 0.124880
H23   H     H_    0.618852 0.914267 0.338848 0.110158
H24   H     H_    0.510342 0.943527 0.393992 0.084357
H25   H     H_    0.405802 0.909657 0.336535 0.128190
H26   H     H_    0.141023 0.454544 0.287044 0.110054
H27   H     H_    0.277612 0.280066 0.877681 0.117313
H28   H     H_    0.058190 0.280965 0.022482 0.082353
H29   H     H_    0.678086 0.573506 0.242258 0.102166
H30   H     H_    0.001200 0.748524 0.132867 0.119336
H31   H     H_    0.109802 0.749906 0.976239 0.063049
H32   H     H_    0.249372 0.207605 0.655409 -0.117472
H33   H     H_    0.078588 0.751308 0.050758 0.065271
H34   H     H_    0.852894 0.571540 0.395772 0.066556
H35   H     H_    0.237531 0.027426 0.559728 0.062682
H36   H     H_    0.940855 0.977238 0.435091 0.070907
H37   H     H_    0.762363 0.107834 0.458275 0.104830
H38   H     H_    0.426187 0.902974 0.543530 0.100948
H39   H     H_    0.148744 0.072939 0.692736 0.053556
H40   H     H_    0.311028 0.292045 0.417229 0.069081
N1    N     N_R   0.955542 0.515369 0.205340 -0.420413
N2    N     N_R   0.262105 0.509392 0.800781 -0.419571
O1    O     O_2   0.918080 0.549800 0.616640 -0.465516
O2    O     O_3   0.591796 0.242994 0.405012 -0.647334
O3    O     O_3   0.014708 0.187859 0.630861 -0.573990
O4    O     O_2   0.271610 0.450170 0.383330 -0.475890
O5    O     O_3   0.039630 0.450200 0.443530 -0.484223
O6    O     O_3   0.531440 0.620360 0.408460 -0.477791
O7    O     O_3   0.096824 0.301142 0.375960 -0.652612
O8    O     O_3   0.643350 0.612530 0.521650 -0.481400
O9    O     O_3   0.127390 0.668260 0.431510 -0.498897
O10   O     O_2   0.251356 0.833503 0.463401 -0.493585
O11   O     O_3   0.136827 0.830521 0.373481 -0.619134
O12   O     O_3   0.150070 0.549720 0.556460 -0.490741
O13   O     O_3   0.546340 0.387390 0.478340 -0.504440
O14   O     O_2   0.398940 0.728800 0.517420 -0.455282
O15   O     O_3   0.558915 0.762885 0.602063 -0.661294
O16   O     O_2   0.383451 0.579878 0.322301 -0.502273
O17   O     O_3   0.544281 0.734469 0.328770 -0.619307
O18   O     O_2   0.982826 0.358869 0.199196 -0.613361
O19   O     O_2   0.262541 0.351863 0.798187 -0.612347
O20   O     O_2   0.914540 0.671279 0.204333 -0.618052
O21   O     O_2   0.272759 0.666158 0.810404 -0.573874
O22   O     O_3   0.658250 0.379560 0.591530 -0.469069
O23   O     O_2   0.788797 0.453051 0.675808 -0.495937
O24   O     O_3   0.058653 0.699103 0.612204 -0.665560
O25   O     O_3   0.711562 0.278825 0.674247 -0.577924
O26   O     O_2   0.790750 0.271170 0.482550 -0.458910
O27   O     O_3   0.062300 0.331660 0.568480 -0.464467
O28   O     O_2   0.955688 0.167398 0.535683 -0.468262
P1    P     P_3+3 0.090020 0.577590 0.608380 0.961509
P2    P     P_3+3 0.614340 0.285150 0.467650 0.956772
P3    P     P_3+3 0.081580 0.211427 0.572968 0.981443
P4    P     P_3+3 0.099670 0.422330 0.391610 0.984442
P5    P     P_3+3 0.109022 0.792115 0.432086 0.913535
P6    P     P_3+3 0.651537 0.389697 0.656067 0.944457
P7    P     P_3+3 0.577544 0.730282 0.538177 0.909448
P8    P     P_3+3 0.543459 0.618237 0.344543 0.934022
N3    N     N_3   0.326298 0.185631 0.327307 -0.484541
H41   H     H_    0.375736 0.124205 0.310007 0.168740
H42   H     H_    0.232064 0.206464 0.303732 0.205318
C67   C     C_3   0.616424 0.357494 0.349529 -0.335485
H43   H     H_    0.604813 0.419017 0.376868 0.106889
H44   H     H_    0.683980 0.372885 0.317432 0.032808
H45   H     H_    0.495515 0.338052 0.335186 0.152780
C68   C     C_3   0.785649 0.105236 0.353103 -0.389448
H46   H     H_    0.885220 0.108999 0.381073 0.096004
H47   H     H_    0.679511 0.078903 0.369286 0.144260
H48   H     H_    0.820545 0.054641 0.321963 0.122770
N4    N     N_3   0.516661 0.216257 0.719718 -0.523149
H49   H     H_    0.610044 0.217094 0.746615 0.191420
H50   H     H_    0.442006 0.274679 0.727109 0.187235
C69   C     C_3   0.499762 0.051383 0.655142 -0.507046
H51   H     H_    0.522438 0.985258 0.632615 0.137970
H52   H     H_    0.489850 0.037080 0.694378 0.153049
H53   H     H_    0.383913 0.078611 0.641479 0.119505
C70   C     C_3   0.698326 0.860804 0.702374 -0.405045
H54   H     H_    0.575971 0.881878 0.691373 0.142047
H55   H     H_    0.692365 0.811365 0.731513 0.113429
H56   H     H_    0.762432 0.923211 0.718693 0.125294
C71   C     C_3   0.836169 0.883775 0.623171 -0.347752
H57   H     H_    0.909117 0.938513 0.643774 0.113497
H58   H     H_    0.908251 0.848330 0.593789 0.104532
H59   H     H_    0.733177 0.917528 0.604566 0.121375
C72   C     C_3   0.905328 0.765310 0.330054 -0.279876
H60   H     H_    0.857786 0.732853 0.361455 0.018850
H61   H     H_    0.859046 0.838531 0.329913 0.129453
H62   H     H_    0.864031 0.725752 0.295335 0.149227
N5    N     N_3   0.092815 0.873046 0.269778 -0.479423
H63   H     H_    0.135112 0.928060 0.294084 0.193510
H64   H     H_    0.139599 0.880913 0.235485 0.181289
N6    N     N_3   0.102002 0.309696 0.689549 -0.480757
H65   H     H_    0.113405 0.354202 0.661605 0.155815
H66   H     H_    0.986120 0.318828 0.701073 0.244672
C73   C     C_3   0.997447 0.248098 0.113241 -0.329519
H67   H     H_    0.876244 0.249314 0.127552 0.143686
H68   H     H_    0.002759 0.191123 0.082927 0.077667
H69   H     H_    0.087524 0.229715 0.142377 0.153421
N7    N     N_3   0.566879 0.452320 0.768926 -0.480893
H70   H     H_    0.609644 0.383291 0.764325 0.182571
H71   H     H_    0.658749 0.495346 0.761683 0.182730
C74   C     C_3   0.301175 0.261456 0.972942 -0.426769
H72   H     H_    0.414814 0.240303 0.955447 0.120039
H73   H     H_    0.333670 0.277751 0.012759 0.126853
H74   H     H_    0.221642 0.201107 0.967409 0.113381
N8    N     N_3   0.176009 0.770279 0.886715 -0.438943
H75   H     H_    0.258502 0.812360 0.907259 0.173988
H76   H     H_    0.063686 0.802993 0.889945 0.166379
C75   C     C_3   0.039886 0.602011 0.727159 -0.320213
H77   H     H_    0.994552 0.575752 0.760857 0.109453
H78   H     H_    0.077091 0.675131 0.735643 0.131756
H79   H     H_    0.937682 0.603288 0.700401 0.135815
N9    N     N_3   0.452060 0.562179 0.616607 -0.508721
H80   H     H_    0.572692 0.558129 0.626269 0.183799
H81   H     H_    0.439738 0.531741 0.580517 0.201542
C76   C     C_3   0.349871 0.337715 0.547015 -0.228162
H82   H     H_    0.441508 0.386185 0.547377 0.145852
H83   H     H_    0.260612 0.362007 0.519068 0.144736
H84   H     H_    0.320949 0.350408 0.586382 0.021727
C77   C     C_3   0.923187 0.696445 0.506123 -0.230513
H85   H     H_    0.051706 0.706154 0.514340 0.136287
H86   H     H_    0.884627 0.679609 0.541691 0.109586
H87   H     H_    0.900649 0.636516 0.478481 0.128891
N10   N     N_3   0.972022 0.149748 0.732497 -0.480365
H88   H     H_    0.970090 0.206864 0.759134 0.198212
H89   H     H_    0.964831 0.090179 0.751825 0.164166
N11   N     N_3   0.128606 0.224525 0.448254 -0.488998
H90   H     H_    0.188212 0.165746 0.461070 0.100741
H91   H     H_    0.015397 0.202041 0.437136 0.196020

loop_
_geom_bond_atom_site_label_1
_geom_bond_atom_site_label_2
_ccdc_geom_bond_type
C25   C46   A    
O22   P6    S    
N8    H76   S    
C53   C54   A    
C66   H12   S    
C74   H72   S    
C10   C20   A    
C9    N1    Am   
O9    P5    S    
C71   H57   S    
O11   P5    S    
C17   C18   A    
C65   H9    S    
C16   N1    S    
O26   P2    D    
Ba1   O22   S    
C69   H51   S    
Ba2   O8    S    
O1    P1    D    
C5    C6    S    
C45   H2    S    
C35   N7    S    
C72   H60   S    
C56   O24   S    
C24   C40   A    
C70   H54   S    
C10   O20   D    
C11   C16   D    
O4    P4    D    
N3    H42   S    
O12   P1    S    
C66   C68   S    
C73   H68   S    
C34   N11   S    
C28   C29   A    
C21   H34   S    
C34   H40   S    
C47   N8    S    
C31   C47   A    
C54   C63   A    
C64   H6    S    
C53   H35   S    
C22   C37   D    
C54   C55   A    
C34   C45   S    
C62   H36   S    
Ba1   Ba2   S    
N9    H80   S    
C75   H78   S    
C59   P7    S    
Ba1   O12   S    
C2    H1    S    
C74   H74   S    
Ba2   O6    S    
C6    N5    S    
C56   C64   S    
C2    N4    S    
N3    H41   S    
N6    H66   S    
C14   C15   D    
N5    H64   S    
C67   H45   S    
Ba2   O12   S    
C22   C36   S    
C49   C55   A    
Ba1   O26   S    
C7    C8    S    
C33   O19   D    
C68   H47   S    
Ba1   P1    S    
C66   H11   S    
C13   C21   S    
N8    H75   S    
C44   H30   S    
O5    P4    S    
C8    H24   S    
C57   C58   A    
C70   H55   S    
C65   C67   S    
N4    H50   S    
N9    H81   S    
C75   H77   S    
O10   P5    D    
C5    O11   S    
C25   C42   A    
C60   C77   S    
C10   N1    Am   
C69   H52   S    
C17   C41   A    
C31   C32   A    
C19   C43   A    
C72   H61   S    
O16   P8    D    
C22   N9    S    
C45   N3    S    
C9    C18   A    
C57   C59   A    
C51   C76   S    
N7    H71   S    
C1    H10   S    
C65   C66   S    
C26   C30   A    
C17   C20   A    
C68   H48   S    
C73   H69   S    
C7    H21   S    
O24   P1    S    
C77   H85   S    
C8    H25   S    
C51   C52   A    
O13   P2    S    
C6    H20   S    
C40   C43   A    
C75   H79   S    
C14   P4    S    
N11   H90   S    
Ba1   O13   S    
C73   H67   S    
C35   C36   S    
C3    H13   S    
Ba2   O5    S    
C29   C30   A    
C76   H84   S    
C49   H37   S    
C64   H8    S    
C60   C61   A    
C23   H17   S    
C15   C16   S    
C11   H29   S    
C7    O17   S    
C76   H82   S    
C34   O7    S    
C33   N2    Am   
C45   H3    S    
C68   H46   S    
Ba1   P2    S    
C48   H33   S    
C2    O25   S    
C46   C47   A    
C20   C44   A    
N10   H89   S    
C32   O21   D    
C14   C21   D    
C39   N2    S    
C11   C13   S    
C41   C42   A    
N4    H49   S    
Ba2   P4    S    
C71   H59   S    
C67   H44   S    
C40   C41   A    
O2    P2    S    
C63   H38   S    
C37   C38   D    
C69   H53   S    
Ba1   O27   S    
C50   C51   A    
C23   H39   S    
C71   H58   S    
C72   H62   S    
C42   C48   A    
C19   C73   S    
C46   H31   S    
O27   P3    S    
C52   C53   A    
O25   P6    S    
O23   P6    D    
C74   H73   S    
C4    H15   S    
C57   C63   A    
C36   P6    S    
O8    P7    S    
C76   H83   S    
O28   P3    D    
C7    H22   S    
C8    H23   S    
C13   P8    S    
Ba2   O9    S    
C12   H32   S    
C49   C58   A    
Ba2   O14   S    
C70   H56   S    
C12   O3    S    
O14   P7    D    
C44   C48   A    
C24   C26   A    
C58   C62   A    
C6    H19   S    
C30   C31   A    
N11   H91   S    
C9    O18   D    
N7    H70   S    
O15   P7    S    
Ba1   O1    S    
C23   N10   S    
O6    P8    S    
C3    H14   S    
Ba2   O4    S    
C56   H4    S    
C3    C4    S    
C77   H87   S    
C32   N2    Am   
C64   H7    S    
C5    C72   S    
C50   P2    S    
O3    P3    S    
O7    P4    S    
C28   H27   S    
C29   C33   A    
Ba1   O8    S    
C12   C23   S    
C35   C39   D    
C59   C60   A    
C12   N6    S    
C4    C70   S    
C50   C55   A    
C1    C69   S    
O17   P8    S    
C27   C28   A    
C61   C62   A    
C5    H18   S    
C65   O2    S    
C52   P3    S    
C18   C19   A    
C24   C27   A    
C77   H86   S    
N5    H63   S    
C38   C75   S    
C3    O15   S    
C1    H16   S    
C27   C74   S    
C61   P5    S    
C67   H43   S    
C38   C39   S    
C15   H26   S    
Ba1   O5    S    
C43   H28   S    
C37   P1    S    
Ba2   O13   S    
N6    H65   S    
C1    C2    S    
C56   H5    S    
N10   H88   S    
C25   C26   A    
C4    C71   S    
