data_mof_unit_53134.cif
_audit_creation_date              2012-12-11T20:55:29-0500
_audit_creation_method            fapswitch 2.2
_symmetry_space_group_name_H-M    P1
_symmetry_Int_Tables_number       1
_space_group_crystal_system       triclinic
_cell_length_a                    8.274201
_cell_length_b                    19.110894
_cell_length_c                    22.793012
_cell_angle_alpha                 99.83682
_cell_angle_beta                  89.93983
_cell_angle_gamma                 92.01673
_cell_volume                      3548.96671929

loop_
_atom_site_label
_atom_site_type_symbol
_atom_type_description
_atom_site_fract_x
_atom_site_fract_y
_atom_site_fract_z
_atom_type_partial_charge
Ba1   Ba    Ba6+2 0.157290 0.533910 0.474710 1.650724
Ba2   Ba    Ba6+2 0.652900 0.466090 0.525240 1.648225
C1    C     C_3   0.357032 0.698681 0.255646 -0.303719
C2    C     C_3   0.390340 0.679948 0.316628 0.333456
C3    C     C_3   0.508938 0.688972 0.636300 0.446912
C4    C     C_3   0.604617 0.747651 0.677429 -0.358960
C5    C     C_3   0.880486 0.282358 0.648893 0.361159
C6    C     C_3   0.869798 0.209995 0.668287 -0.357880
C7    C     C_3   0.388780 0.296369 0.679845 0.306301
C8    C     C_3   0.449728 0.280991 0.739040 -0.357935
C9    C     C_R   0.953648 0.197528 0.470519 -0.151050
C10   C     C_R   0.988752 0.271867 0.479421 0.054150
C11   C     C_R   0.136204 0.188490 0.551011 -0.156498
C12   C     C_3   0.922203 0.722195 0.346840 0.356546
C13   C     C_R   0.204496 0.254779 0.544886 0.001279
C14   C     C_R   0.676669 0.811150 0.448297 -0.166058
C15   C     C_R   0.609419 0.744070 0.452874 0.005906
C16   C     C_R   0.852401 0.801714 0.530743 -0.157818
C17   C     C_R   0.819828 0.727407 0.520717 0.041622
C18   C     C_R   0.018603 0.153879 0.509828 0.001115
C19   C     C_R   0.120142 0.298781 0.514683 -0.245016
C20   C     C_R   0.791523 0.845381 0.490875 0.002676
C21   C     C_R   0.691139 0.700180 0.484171 -0.238134
C22   C     C_R   0.224895 0.035455 0.544410 -0.088020
C23   C     C_3   0.956028 0.794099 0.328259 -0.366821
C24   C     C_R   0.313520 0.984067 0.565928 0.162761
C25   C     C_R   0.267613 0.913357 0.548197 -0.054714
C26   C     C_R   0.127592 0.896187 0.514742 -0.119685
C27   C     C_R   0.011817 0.947006 0.510257 0.013326
C28   C     C_R   0.065761 0.020467 0.520931 0.017829
C29   C     C_R   0.849192 0.924348 0.493455 -0.009153
C30   C     C_R   0.743753 0.978807 0.482569 0.031849
C31   C     C_R   0.797873 0.052338 0.492803 0.016387
C32   C     C_R   0.961399 0.074895 0.508434 -0.009371
C33   C     C_R   0.580658 0.963682 0.463725 -0.082960
C34   C     C_3   0.820499 0.374865 0.342191 0.300124
C35   C     C_R   0.484658 0.015330 0.447379 -0.078204
C36   C     C_R   0.532141 0.085848 0.463168 -0.064195
C37   C     C_R   0.680396 0.103361 0.491139 -0.082523
C38   C     C_R   0.643389 0.524196 0.335293 -0.307038
C39   C     C_R   0.381569 0.557124 0.945384 -0.024037
C40   C     C_R   0.330626 0.553235 0.885877 0.584923
C41   C     C_R   0.243361 0.431092 0.881219 0.581836
C42   C     C_R   0.294680 0.433002 0.940576 -0.022716
C43   C     C_R   0.364212 0.496482 0.972729 -0.052217
C44   C     C_R   0.450089 0.620244 0.978091 -0.077688
C45   C     C_3   0.814932 0.355633 0.274630 -0.358815
C46   C     C_R   0.500643 0.623173 0.036854 -0.076703
C47   C     C_R   0.484700 0.563011 0.064710 -0.017205
C48   C     C_R   0.416600 0.499393 0.032500 -0.053103
C49   C     C_R   0.279592 0.372785 0.968374 -0.076289
C50   C     C_R   0.333015 0.375437 0.026884 -0.073941
C51   C     C_R   0.401637 0.438602 0.059668 -0.024777
C52   C     C_R   0.455659 0.442277 0.118945 0.590572
C53   C     C_R   0.534263 0.565452 0.124217 0.572709
C54   C     C_2   0.066276 0.472563 0.772704 -0.070642
C55   C     C_3   0.022174 0.479403 0.709276 -0.056213
C56   C     C_3   0.999224 0.629732 0.659026 0.285955
C57   C     C_1   0.304678 0.505990 0.692959 0.018491
C58   C     C_2   0.347199 0.503615 0.748504 -0.094841
C59   C     C_2   0.221120 0.487095 0.792066 0.213148
C60   C     C_R   0.711584 0.542147 0.235534 -0.089376
C61   C     C_R   0.750638 0.549551 0.296053 -0.026872
C62   C     C_R   0.500976 0.487508 0.314315 0.026092
C63   C     C_R   0.457508 0.482332 0.254106 -0.106796
C64   C     C_R   0.561875 0.510308 0.213879 0.197295
C65   C     C_2   0.170340 0.473651 0.670173 -0.287636
C66   C     C_3   0.040146 0.658164 0.724094 -0.362960
C67   C     C_3   0.320557 0.317155 0.393854 0.317350
C68   C     C_3   0.318644 0.236641 0.376704 -0.377217
H1    H     H_    0.323048 0.629588 0.320160 0.090682
H2    H     H_    0.731373 0.308937 0.260946 0.139261
H3    H     H_    0.771729 0.400664 0.254916 0.071065
H4    H     H_    0.937742 0.342730 0.257244 0.130282
H5    H     H_    0.110770 0.611008 0.635592 0.044220
H6    H     H_    0.908742 0.585051 0.656200 0.035120
H7    H     H_    0.119654 0.706758 0.727453 0.151053
H8    H     H_    0.104556 0.618483 0.744420 0.086724
H9    H     H_    0.927657 0.671456 0.749546 0.106501
H10   H     H_    0.196709 0.334113 0.405065 -0.000229
H11   H     H_    0.401187 0.332756 0.433137 0.081854
H12   H     H_    0.236609 0.721965 0.254218 0.148006
H13   H     H_    0.234959 0.219111 0.338550 0.126289
H14   H     H_    0.277634 0.211605 0.414812 0.057868
H15   H     H_    0.442214 0.218846 0.364106 0.128938
H16   H     H_    0.522167 0.671938 0.320221 -0.060975
H17   H     H_    0.358229 0.649897 0.221554 0.115541
H18   H     H_    0.597642 0.656055 0.608295 0.034161
H19   H     H_    0.681998 0.723728 0.707909 0.132012
H20   H     H_    0.682914 0.778821 0.650949 0.073051
H21   H     H_    0.521091 0.784103 0.704695 0.114840
H22   H     H_    0.450521 0.737668 0.245000 0.118498
H23   H     H_    0.896307 0.836484 0.359153 0.070209
H24   H     H_    0.787783 0.282943 0.613755 0.098175
H25   H     H_    0.002273 0.290820 0.631076 -0.055213
H26   H     H_    0.752599 0.202884 0.690642 0.143726
H27   H     H_    0.877749 0.167151 0.629003 0.069895
H28   H     H_    0.970134 0.205450 0.699594 0.120574
H29   H     H_    0.260999 0.276400 0.674091 -0.021689
H30   H     H_    0.395385 0.354876 0.681399 0.046424
H31   H     H_    0.371031 0.306017 0.775470 0.134432
H32   H     H_    0.574923 0.303028 0.747665 0.157654
H33   H     H_    0.970317 0.724603 0.392729 0.062330
H34   H     H_    0.447860 0.222752 0.738524 0.116550
H35   H     H_    0.869846 0.175459 0.435294 0.075777
H36   H     H_    0.173272 0.166646 0.589260 0.065414
H37   H     H_    0.635838 0.835601 0.411900 0.070674
H38   H     H_    0.932129 0.823782 0.567287 0.074745
H39   H     H_    0.162871 0.353155 0.515840 0.060487
H40   H     H_    0.648371 0.645779 0.482855 0.078046
H41   H     H_    0.290471 0.084105 0.543721 0.067704
H42   H     H_    0.344262 0.871918 0.557773 0.090448
H43   H     H_    0.789309 0.711744 0.346052 -0.054445
H44   H     H_    0.106012 0.842446 0.493888 0.139103
H45   H     H_    0.516625 0.914643 0.465570 0.075358
H46   H     H_    0.364057 0.001286 0.429832 0.077007
H47   H     H_    0.448647 0.126536 0.457772 0.096682
H48   H     H_    0.703576 0.157075 0.512318 0.126925
H49   H     H_    0.319559 0.327787 0.046498 0.124365
H50   H     H_    0.227134 0.323163 0.944825 0.122777
H51   H     H_    0.552450 0.672910 0.060442 0.122985
H52   H     H_    0.798287 0.560445 0.205417 0.117156
H53   H     H_    0.464959 0.667733 0.958326 0.123868
H54   H     H_    0.087975 0.806790 0.329330 0.147906
H55   H     H_    0.470952 0.516288 0.763328 0.110382
H56   H     H_    0.971493 0.463253 0.803726 0.097457
H57   H     H_    0.343597 0.456082 0.238679 0.126234
H58   H     H_    0.676465 0.528634 0.381729 0.080705
H59   H     H_    0.166105 0.445470 0.624556 0.063787
H60   H     H_    0.909307 0.793373 0.282493 0.124585
H61   H     H_    0.697241 0.386846 0.358708 0.013301
H62   H     H_    0.902690 0.422260 0.354738 0.064603
N1    N     N_R   0.264138 0.490492 0.854271 -0.428149
N2    N     N_R   0.517044 0.505824 0.151398 -0.424361
O1    O     O_2   0.108070 0.674980 0.540650 -0.432690
O2    O     O_3   0.375217 0.347286 0.345399 -0.625133
O3    O     O_3   0.998740 0.669744 0.306876 -0.594863
O4    O     O_2   0.702240 0.324970 0.459330 -0.461209
O5    O     O_3   0.948380 0.413820 0.464520 -0.491486
O6    O     O_3   0.443920 0.371740 0.566130 -0.464738
O7    O     O_3   0.876658 0.316792 0.365043 -0.631589
O8    O     O_3   0.358830 0.538360 0.571050 -0.458337
O9    O     O_3   0.852160 0.408490 0.597560 -0.488221
O10   O     O_2   0.688764 0.445744 0.697739 -0.484393
O11   O     O_3   0.855221 0.335072 0.698353 -0.594911
O12   O     O_3   0.861930 0.586170 0.535430 -0.486942
O13   O     O_3   0.451480 0.461630 0.428900 -0.493987
O14   O     O_2   0.599240 0.538720 0.642170 -0.470448
O15   O     O_3   0.414088 0.650468 0.672125 -0.635360
O16   O     O_2   0.527402 0.247154 0.518107 -0.507923
O17   O     O_3   0.485200 0.261896 0.633754 -0.599927
O18   O     O_2   0.344272 0.605931 0.862227 -0.595676
O19   O     O_2   0.181616 0.376420 0.853343 -0.602511
O20   O     O_2   0.450024 0.388549 0.141365 -0.596602
O21   O     O_2   0.591603 0.621124 0.151986 -0.616406
O22   O     O_3   0.366390 0.628250 0.433820 -0.465434
O23   O     O_2   0.284206 0.754903 0.475930 -0.493762
O24   O     O_3   0.934055 0.684795 0.634718 -0.646672
O25   O     O_3   0.338429 0.734820 0.360924 -0.603641
O26   O     O_2   0.211060 0.461230 0.357810 -0.459574
O27   O     O_3   0.958150 0.591500 0.402390 -0.486501
O28   O     O_2   0.082198 0.538541 0.296427 -0.494472
P1    P     P_3+3 0.933470 0.664380 0.557030 0.982615
P2    P     P_3+3 0.383600 0.440030 0.365120 0.990728
P3    P     P_3+3 0.947227 0.586641 0.325101 0.946145
P4    P     P_3+3 0.876840 0.335610 0.442930 0.981881
P5    P     P_3+3 0.854897 0.418018 0.675537 0.970785
P6    P     P_3+3 0.401503 0.716967 0.429759 0.947093
P7    P     P_3+3 0.416615 0.558655 0.645994 0.972690
P8    P     P_3+3 0.413048 0.282023 0.566860 0.920065
N3    N     N_3   0.402897 0.720110 0.597320 -0.441970
H63   H     H_    0.472130 0.753552 0.574578 0.120045
H64   H     H_    0.320093 0.751808 0.623411 0.182331
N4    N     N_3   0.454673 0.002950 0.602741 -0.497741
H65   H     H_    0.482906 0.057351 0.606882 0.181634
H66   H     H_    0.553102 0.976117 0.582404 0.172831

loop_
_geom_bond_atom_site_label_1
_geom_bond_atom_site_label_2
_ccdc_geom_bond_type
N3    H63   S    
C23   H23   S    
Ba1   O22   S    
C39   C40   A    
C6    H26   S    
C12   H43   S    
C62   P2    S    
O3    P3    S    
C56   H6    S    
C5    C6    S    
C35   H46   S    
C51   C52   A    
O25   P6    S    
C53   O21   D    
N3    H64   S    
O7    P4    S    
C27   C28   A    
O17   P8    S    
C40   N1    Am   
O15   P7    S    
Ba2   O5    S    
O26   P2    D    
C26   C27   A    
C33   C35   A    
C35   C36   A    
C22   C24   A    
Ba1   Ba2   S    
O13   P2    S    
C34   H62   S    
C10   P4    S    
C3    C4    S    
C2    O25   S    
C2    H16   S    
O22   P6    S    
Ba2   O14   S    
C4    H21   S    
C52   N2    Am   
C53   N2    Am   
C3    O15   S    
C54   C55   S    
C34   C45   S    
C16   C17   A    
C41   N1    Am   
C6    H28   S    
N4    H65   S    
Ba1   O8    S    
C14   H37   S    
C57   C65   D    
C64   N2    S    
C36   H47   S    
C31   C37   A    
C34   O7    S    
C7    O17   S    
Ba1   P2    S    
C14   C15   A    
C9    H35   S    
C41   O19   D    
C14   C20   A    
C39   C44   A    
C33   H45   S    
C54   H56   S    
C40   O18   D    
C7    C8    S    
Ba2   P4    S    
Ba1   O5    S    
C18   C32   S    
C66   H9    S    
Ba1   O27   S    
C57   C58   D    
C7    H29   S    
Ba2   O9    S    
C3    H18   S    
Ba1   O12   S    
C65   H59   S    
C22   H41   S    
C55   C65   S    
C23   H60   S    
O23   P6    D    
C56   H5    S    
O14   P7    D    
C22   C28   A    
Ba1   O26   S    
C66   H8    S    
C36   C37   A    
C44   C46   A    
C9    C18   A    
C48   C51   A    
C20   C29   S    
C60   C64   A    
O10   P5    D    
C59   N1    S    
C49   C50   A    
Ba2   O4    S    
C30   C33   A    
C8    H32   S    
C45   H3    S    
C56   O24   S    
C34   H61   S    
C46   H51   S    
C28   C32   A    
Ba2   O13   S    
C4    H20   S    
C1    H17   S    
C10   C19   A    
C13   P8    S    
C1    H22   S    
O5    P4    S    
C17   C21   A    
C41   C42   A    
C60   C61   A    
O28   P3    D    
C29   C30   A    
C15   C21   A    
C12   O3    S    
C61   P3    S    
C1    H12   S    
C49   H50   S    
C3    N3    S    
C5    H24   S    
C17   P1    S    
C68   H13   S    
C38   C61   A    
O9    P5    S    
C26   H44   S    
O24   P1    S    
O8    P7    S    
C42   C49   A    
C56   C66   S    
C46   C47   A    
C25   H42   S    
C47   C48   A    
C7    H30   S    
C11   C13   A    
C24   C25   A    
Ba2   O8    S    
C44   H53   S    
Ba1   O13   S    
Ba2   O12   S    
C57   P7    S    
C1    C2    S    
C37   H48   S    
C63   H57   S    
C60   H52   S    
C68   H14   S    
C50   C51   A    
C16   H38   S    
O11   P5    S    
C66   H7    S    
C21   H40   S    
C58   H55   S    
O6    P8    S    
C11   C18   A    
O2    P2    S    
C16   C20   A    
O1    P1    D    
C8    H31   S    
C42   C43   A    
C45   H4    S    
C11   H36   S    
C15   P6    S    
C52   O20   D    
C19   H39   S    
C9    C10   A    
C55   P5    S    
C67   O2    S    
C4    H19   S    
C5    H25   S    
O12   P1    S    
C38   C62   A    
O4    P4    D    
Ba2   O6    S    
C62   C63   A    
C8    H34   S    
C27   C29   A    
C47   C53   A    
C30   C31   A    
C12   H33   S    
O16   P8    D    
C43   C48   A    
C6    H27   S    
C31   C32   A    
C12   C23   S    
C67   C68   S    
C23   H54   S    
N4    H66   S    
C45   H2    S    
C67   H11   S    
C50   H49   S    
C13   C19   A    
Ba1   P1    S    
C63   C64   A    
C25   C26   A    
C39   C43   A    
C54   C59   D    
C58   C59   S    
C67   H10   S    
Ba1   O1    S    
C68   H15   S    
C24   N4    S    
C2    H1    S    
O27   P3    S    
C5    O11   S    
C38   H58   S    
