data_mof_unit_27449.cif
_audit_creation_date              2012-12-11T15:48:32-0500
_audit_creation_method            fapswitch 2.2
_symmetry_space_group_name_H-M    P1
_symmetry_Int_Tables_number       1
_space_group_crystal_system       triclinic
_cell_length_a                    11.022493
_cell_length_b                    11.004738
_cell_length_c                    18.645648
_cell_angle_alpha                 89.875045
_cell_angle_beta                  89.088196
_cell_angle_gamma                 60.092696
_cell_volume                      1960.23432455

loop_
_atom_site_label
_atom_site_type_symbol
_atom_type_description
_atom_site_fract_x
_atom_site_fract_y
_atom_site_fract_z
_atom_type_partial_charge
C1    C     C_R   0.234880 0.648519 0.609315 0.531442
C2    C     C_3   0.767693 0.503056 0.798999 -0.295103
C3    C     C_3   0.694065 0.663229 0.815464 0.023073
C4    C     C_3   0.656725 0.621614 0.681954 0.034941
C5    C     C_3   0.724356 0.716360 0.683596 0.169694
C6    C     C_3   0.756908 0.480303 0.719379 -0.248511
C7    C     C_R   0.681279 0.169229 0.828510 0.019016
C8    C     C_R   0.739566 0.072731 0.772841 -0.016594
C9    C     C_R   0.709072 0.110512 0.702090 0.012822
C10   C     C_R   0.535225 0.341232 0.740522 -0.197953
C11   C     C_R   0.568320 0.302077 0.812566 -0.173049
C12   C     C_R   0.631328 0.591199 0.608991 0.543699
C13   C     C_3   0.888664 0.978404 0.756738 -0.249557
C14   C     C_3   0.856696 0.018426 0.678494 -0.243108
C15   C     C_R   0.616220 0.248631 0.684747 0.011804
C16   C     C_R   0.176931 0.669221 0.833732 -0.052463
C17   C     C_R   0.140534 0.586919 0.792397 0.001453
C18   C     C_R   0.145460 0.588308 0.719005 -0.006379
C19   C     C_R   0.189268 0.784088 0.723550 0.242849
C20   C     C_R   0.203317 0.766224 0.798430 -0.171859
C21   C     C_3   0.185697 0.434416 0.794131 -0.280351
C22   C     C_3   0.187392 0.437122 0.712414 -0.268186
C23   C     C_R   0.590949 0.291646 0.610390 0.537401
C24   C     C_R   0.180435 0.677709 0.682874 0.026581
C25   C     C_R   0.639720 0.683106 0.167100 0.014211
C26   C     C_R   0.654097 0.761648 0.221477 -0.006430
C27   C     C_R   0.644002 0.732799 0.292334 0.013385
C28   C     C_R   0.550963 0.587568 0.257718 -0.108833
C29   C     C_R   0.571106 0.608114 0.184598 -0.172280
C30   C     C_3   0.768065 0.792595 0.235528 -0.267682
C31   C     C_3   0.757990 0.759150 0.313741 -0.290920
C32   C     C_R   0.612567 0.629139 0.311166 0.066939
C33   C     C_R   0.629192 0.202820 0.164208 -0.034131
C34   C     C_R   0.218655 0.650542 0.403091 0.536161
C35   C     C_R   0.506570 0.233901 0.201546 0.006781
C36   C     C_R   0.497407 0.260038 0.273966 0.000588
C37   C     C_R   0.712441 0.269765 0.269626 0.255273
C38   C     C_R   0.724316 0.234889 0.195784 -0.160047
C39   C     C_3   0.436019 0.148361 0.209297 -0.272730
C40   C     C_3   0.437231 0.167855 0.289084 -0.267932
C41   C     C_R   0.602806 0.267372 0.310326 0.009503
C42   C     C_R   0.109578 0.691808 0.191426 -0.049334
C43   C     C_R   0.072697 0.811305 0.232347 -0.053502
C44   C     C_R   0.086348 0.806423 0.304760 0.016487
C45   C     C_R   0.614447 0.589370 0.386009 0.566427
C46   C     C_R   0.127378 0.568959 0.303432 0.240404
C47   C     C_R   0.126187 0.572216 0.227767 -0.138237
C48   C     C_3   0.104897 0.926053 0.222405 -0.159665
C49   C     C_3   0.123627 0.921497 0.303245 0.516441
C50   C     C_R   0.133604 0.679468 0.340283 -0.016429
C51   C     C_R   0.698294 0.109609 0.899249 0.529081
C52   C     C_R   0.721861 0.685484 0.889676 0.557193
C53   C     C_R   0.119918 0.704933 0.906258 0.545949
C54   C     C_R   0.671712 0.112791 0.101557 0.542093
C55   C     C_R   0.690959 0.689274 0.095624 0.534169
C56   C     C_R   0.583208 0.291789 0.387728 0.572381
C57   C     C_R   0.086633 0.712435 0.114871 0.546165
C58   C     C_3   0.535106 0.723362 0.801980 0.139663
C59   C     C_3   0.514802 0.698067 0.722989 -0.238731
C60   C     C_3   0.759713 0.726268 0.762743 -0.188011
Cr1   Cr    Cr6+3 0.392960 0.397920 0.502240 0.979998
Cr2   Cr    Cr6+3 0.398340 0.708480 0.501250 1.010062
Cr3   Cr    Cr6+3 0.708670 0.393570 0.496460 0.984443
Cr4   Cr    Cr6+3 0.937650 0.938540 0.007610 1.004462
Cr5   Cr    Cr6+3 0.625330 0.937370 0.994520 1.026896
Cr6   Cr    Cr6+3 0.937940 0.625230 0.001190 1.001825
H1    H     H_    0.863553 0.432302 0.694528 0.174864
H2    H     H_    0.874655 0.667080 0.769110 0.162570
H3    H     H_    0.450409 0.444163 0.728416 0.101579
H4    H     H_    0.506688 0.374428 0.855183 0.109894
H5    H     H_    0.918828 0.868259 0.767909 0.138794
H6    H     H_    0.902194 0.079376 0.654941 0.160173
H7    H     H_    0.871983 0.929363 0.644868 0.146416
H8    H     H_    0.505603 0.655682 0.833589 0.131828
H9    H     H_    0.229204 0.829732 0.831260 0.183786
H10   H     H_    0.103478 0.415093 0.817040 0.139472
H11   H     H_    0.292683 0.370418 0.688072 0.163827
H12   H     H_    0.103415 0.422814 0.688761 0.162197
H13   H     H_    0.737228 0.903970 0.226425 0.142786
H14   H     H_    0.864101 0.715357 0.207297 0.160272
H15   H     H_    0.850218 0.662247 0.331391 0.149660
H16   H     H_    0.464056 0.633605 0.720297 0.086703
H17   H     H_    0.720893 0.850952 0.350268 0.136469
H18   H     H_    0.813235 0.220637 0.163933 0.114820
H19   H     H_    0.500737 0.037612 0.192210 0.164182
H20   H     H_    0.328870 0.202833 0.186940 0.134659
H21   H     H_    0.332177 0.222026 0.314043 0.205511
H22   H     H_    0.513360 0.070611 0.316873 0.131097
H23   H     H_    0.135770 0.483321 0.198018 0.139182
H24   H     H_    0.012487 0.021828 0.202874 0.129278
H25   H     H_    0.445871 0.797276 0.695733 0.199703
H26   H     H_    0.728490 0.835122 0.776241 0.080004
H27   H     H_    0.645431 0.823666 0.666142 0.099074
H28   H     H_    0.880472 0.448476 0.812294 0.142857
H29   H     H_    0.719701 0.452501 0.831478 0.119801
H30   H     H_    0.722889 0.403124 0.712314 0.120097
O1    O     O_R   0.507380 0.255700 0.581440 -0.513759
O2    O     O_R   0.524480 0.695810 0.424040 -0.485205
O3    O     O_R   0.736390 0.504290 0.414790 -0.519361
O4    O     O_R   0.691300 0.277290 0.422170 -0.464333
O5    O     O_3   0.499990 0.499990 0.499980 -0.329321
O6    O     O_R   0.089400 0.825690 0.930570 -0.519935
O7    O     O_R   0.818460 0.054440 0.929850 -0.501784
O8    O     O_R   0.606060 0.077150 0.915510 -0.536418
O9    O     O_R   0.646550 0.806680 0.917570 -0.464237
O10   O     O_R   0.837170 0.593410 0.915250 -0.541562
O11   O     O_R   0.065200 0.635530 0.931570 -0.493816
O12   O     O_R   0.280320 0.527350 0.578930 -0.536056
O13   O     O_R   0.068260 0.828890 0.091840 -0.519867
O14   O     O_R   0.798870 0.057410 0.079340 -0.513582
O15   O     O_R   0.584930 0.080350 0.076780 -0.518456
O16   O     O_R   0.626960 0.809650 0.067060 -0.497221
O17   O     O_R   0.816040 0.596610 0.076510 -0.525726
O18   O     O_R   0.045610 0.638500 0.081060 -0.509165
O19   O     O_3   0.833640 0.833710 0.001100 -0.253720
O20   O     O_R   0.260510 0.739590 0.584590 -0.467624
O21   O     O_R   0.532300 0.695080 0.573820 -0.513344
O22   O     O_R   0.744840 0.503500 0.576370 -0.509846
O23   O     O_R   0.699120 0.276560 0.571960 -0.524599
O24   O     O_R   0.498940 0.256500 0.419860 -0.512457
O25   O     O_R   0.272500 0.528080 0.429150 -0.493779
O26   O     O_R   0.252060 0.740380 0.423010 -0.493716
O27   O     O_3   0.440243 0.861104 0.828603 -0.575376
C61   C     C_3   0.452449 0.971550 0.797038 -0.089852
H31   H     H_    0.469711 0.963172 0.738494 0.073679
H32   H     H_    0.533830 0.984199 0.822829 0.187107
H33   H     H_    0.353980 0.071186 0.807919 0.113284
O28   O     O_3   0.849955 0.658861 0.641375 -0.571213
C62   C     C_3   0.831277 0.729671 0.575336 -0.106748
H34   H     H_    0.765223 0.845364 0.579881 0.095044
H35   H     H_    0.785495 0.691731 0.534747 0.176607
H36   H     H_    0.935511 0.706586 0.554487 0.121463
H37   H     H_    0.951825 0.016831 0.783704 0.150101
O29   O     O_3   0.202146 0.888758 0.686578 -0.547953
C63   C     C_3   0.166809 0.015831 0.722580 -0.121140
H38   H     H_    0.174295 0.013105 0.781256 0.124751
H39   H     H_    0.061112 0.099288 0.708343 0.100187
H40   H     H_    0.236547 0.053270 0.701209 0.126229
H41   H     H_    0.290488 0.369454 0.817672 0.143190
H42   H     H_    0.496499 0.532048 0.271877 0.101910
H43   H     H_    0.540947 0.560052 0.143177 0.113253
O30   O     O_3   0.805584 0.300550 0.304404 -0.509634
C64   C     C_3   0.889543 0.331090 0.257756 -0.087331
H44   H     H_    0.932357 0.386444 0.288210 0.155911
H45   H     H_    0.829842 0.402060 0.213488 0.108539
H46   H     H_    0.979884 0.233835 0.236282 0.122824
O31   O     O_3   0.147676 0.446677 0.336222 -0.597181
C65   C     C_3   0.066415 0.470259 0.399902 -0.094681
H47   H     H_    0.010251 0.580206 0.420153 0.082946
H48   H     H_    0.135578 0.402404 0.442915 0.152759
H49   H     H_    0.989048 0.436257 0.391621 0.147471
H50   H     H_    0.202554 0.891332 0.190141 0.123551
O32   O     O_3   0.264064 0.875813 0.321524 -0.542257
C66   C     C_3   0.300477 0.978873 0.306528 -0.121632
H51   H     H_    0.213830 0.088093 0.315666 0.138879
H52   H     H_    0.385603 0.961545 0.343149 0.147465
H53   H     H_    0.340449 0.966227 0.250542 0.112296
O33   O     O_3   0.021583 0.046713 0.337845 -0.555897
C67   C     C_3   0.028961 0.034108 0.413174 -0.033117
H54   H     H_    0.134231 0.006042 0.432975 0.144632
H55   H     H_    0.996361 0.958674 0.432076 0.111674
H56   H     H_    0.955468 0.137561 0.437297 0.161844

loop_
_geom_bond_atom_site_label_1
_geom_bond_atom_site_label_2
_ccdc_geom_bond_type
C44   C49   S    
C63   H40   S    
C8    C13   S    
Cr6   O17   S    
C55   O16   A    
Cr4   O7    S    
C47   H23   S    
C32   C45   S    
Cr1   O5    S    
C35   C36   A    
C28   H42   S    
C65   H49   S    
Cr6   O11   S    
Cr3   O5    S    
O28   C62   S    
C11   H4    S    
O27   C61   S    
Cr5   O16   S    
C19   O29   S    
Cr4   O6    S    
C21   H10   S    
C58   O27   S    
Cr3   O4    S    
C18   C24   A    
C40   H21   S    
C49   O32   S    
C2    H29   S    
C56   O4    A    
C65   H48   S    
C45   O2    A    
C23   O23   A    
C30   C31   S    
C51   O7    A    
C64   H44   S    
C4    C59   S    
C31   H17   S    
C54   O14   A    
Cr1   O25   S    
Cr1   O12   S    
C16   C53   S    
Cr5   O15   S    
Cr2   O21   S    
Cr3   O3    S    
Cr2   O2    S    
C57   O13   A    
O31   C65   S    
C16   C17   A    
C59   H16   S    
C1    O20   A    
C4    C12   S    
C63   H38   S    
C43   C48   S    
C66   H52   S    
C46   O31   S    
Cr2   O5    S    
C30   H14   S    
C3    C60   S    
C15   C23   S    
C52   O10   A    
C34   O26   A    
Cr4   O19   S    
C48   H24   S    
C21   C22   S    
Cr1   O24   S    
C56   O24   A    
C36   C41   A    
C2    C6    S    
C14   H6    S    
Cr6   O10   S    
Cr6   O18   S    
C42   C57   S    
Cr5   O9    S    
C7    C11   A    
C60   H26   S    
C25   C29   A    
C67   H56   S    
C34   C50   S    
Cr6   O19   S    
C27   C31   S    
C14   H7    S    
C2    H28   S    
C65   H47   S    
C22   H12   S    
C66   H53   S    
C4    C6    S    
C37   O30   S    
C64   H46   S    
C39   C40   S    
Cr3   O22   S    
C8    C9    A    
C13   H5    S    
C25   C26   A    
C17   C21   S    
C20   H9    S    
C35   C39   S    
C43   C44   A    
C3    C58   S    
C41   C56   S    
Cr2   O20   S    
C37   C38   A    
Cr3   O23   S    
C53   O11   A    
Cr4   O14   S    
C67   H54   S    
C28   C32   A    
C53   O6    A    
C16   C20   A    
C29   H43   S    
C67   H55   S    
C17   C18   A    
C26   C27   A    
C9    C14   S    
C59   H25   S    
C66   H51   S    
O29   C63   S    
C61   H33   S    
C12   O22   A    
C30   H13   S    
C48   C49   S    
C23   O1    A    
C52   O9    A    
C26   C30   S    
C34   O25   A    
C6    H30   S    
C48   H50   S    
C45   O3    A    
O33   C67   S    
C63   H39   S    
C49   O33   S    
C58   C59   S    
C42   C43   A    
C21   H41   S    
Cr2   O26   S    
C36   C40   S    
C58   H8    S    
C61   H32   S    
C62   H34   S    
C44   C50   A    
C33   C54   S    
C64   H45   S    
C46   C47   A    
C28   C29   A    
C51   O8    A    
C5    C60   S    
C38   H18   S    
C27   C32   A    
C18   C22   S    
C13   H37   S    
Cr1   O1    S    
C25   C55   S    
C22   H11   S    
C4    C5    S    
C5    H27   S    
C3    C52   S    
C57   O18   A    
C55   O17   A    
C46   C50   A    
C33   C38   A    
C31   H15   S    
C10   C15   A    
C62   H36   S    
C19   C20   A    
C19   C24   A    
Cr5   O19   S    
C7    C51   S    
C6    H1    S    
Cr5   O8    S    
C40   H22   S    
Cr4   O13   S    
C5    O28   S    
C33   C35   A    
C54   O15   A    
C2    C3    S    
C42   C47   A    
C37   C41   A    
C7    C8    A    
C10   C11   A    
C1    O12   A    
C12   O21   A    
C10   H3    S    
C60   H2    S    
C1    C24   S    
C39   H19   S    
O30   C64   S    
C39   H20   S    
O32   C66   S    
C13   C14   S    
C9    C15   A    
C61   H31   S    
C62   H35   S    
