data_mof_unit_6477.cif
_audit_creation_date              2012-12-10T17:43:33-0500
_audit_creation_method            fapswitch 2.2
_symmetry_space_group_name_H-M    P1
_symmetry_Int_Tables_number       1
_space_group_crystal_system       triclinic
_cell_length_a                    14.883548
_cell_length_b                    10.739513
_cell_length_c                    10.025944
_cell_angle_alpha                 90.167909
_cell_angle_beta                  91.89069
_cell_angle_gamma                 94.563693
_cell_volume                      1596.59205983

loop_
_atom_site_label
_atom_site_type_symbol
_atom_type_description
_atom_site_fract_x
_atom_site_fract_y
_atom_site_fract_z
_atom_type_partial_charge
C1    C     C_R   0.514331 0.263650 0.501594 0.948491
C2    C     C_R   0.913655 0.614260 0.501096 0.052402
C3    C     C_R   0.936859 0.271787 0.474736 -0.237855
C4    C     C_R   0.029087 0.270235 0.455978 0.541176
C5    C     C_R   0.085079 0.382330 0.472253 -0.004559
C6    C     C_R   0.046206 0.497364 0.488538 0.022089
C7    C     C_R   0.100643 0.610998 0.500905 0.107201
C8    C     C_R   0.061738 0.724498 0.513908 -0.223551
C9    C     C_R   0.968483 0.727028 0.513795 0.281769
C10   C     C_R   0.178717 0.382860 0.475467 -0.172301
C11   C     C_R   0.231431 0.495643 0.492086 -0.040212
C12   C     C_R   0.327141 0.496354 0.497846 0.905535
C13   C     C_R   0.193490 0.609035 0.502865 -0.201814
C14   C     C_R   0.585796 0.132742 0.751075 0.302443
C15   C     C_R   0.595684 0.062492 0.865492 -0.221498
C16   C     C_R   0.619846 0.942103 0.852328 0.295461
C17   C     C_R   0.609124 0.882473 0.728054 0.257152
C18   C     C_R   0.565620 0.941007 0.619719 -0.088127
C19   C     C_R   0.562204 0.072390 0.626379 -0.040735
C20   C     C_R   0.543754 0.136406 0.505707 -0.265527
C21   C     C_R   0.551675 0.074376 0.384185 0.396487
C22   C     C_R   0.535265 0.945476 0.378830 0.185710
C23   C     C_R   0.509189 0.741314 0.499984 0.928237
C24   C     C_R   0.535940 0.876810 0.499527 -0.204005
C25   C     C_R   0.348216 0.392984 0.128994 0.517404
C26   C     C_R   0.264325 0.402446 0.061868 -0.426814
C27   C     C_R   0.261886 0.412102 0.924004 0.243218
C28   C     C_R   0.342702 0.405880 0.857878 0.286302
C29   C     C_R   0.424135 0.451858 0.924899 -0.021860
C30   C     C_R   0.425336 0.449212 0.068448 0.002211
C31   C     C_R   0.572580 0.546384 0.072426 0.339464
C32   C     C_R   0.572467 0.544044 0.931240 -0.051969
C33   C     C_R   0.672661 0.500380 0.501418 0.892819
C34   C     C_R   0.820370 0.612887 0.496090 -0.113390
C35   C     C_R   0.768151 0.499989 0.503357 -0.016678
C36   C     C_R   0.806208 0.386314 0.501061 -0.189810
C37   C     C_R   0.898598 0.384924 0.490723 0.053534
C38   C     C_R   0.952908 0.498919 0.493162 0.021938
H1    H     H_    0.787876 0.698680 0.484698 0.207201
H2    H     H_    0.611305 0.109502 0.959575 0.209147
H3    H     H_    0.201530 0.383999 0.112187 0.184653
H4    H     H_    0.763478 0.299773 0.502175 0.143588
H5    H     H_    0.632203 0.578630 0.880921 0.225981
H6    H     H_    0.894623 0.184737 0.471199 0.197800
H7    H     H_    0.210792 0.296162 0.470798 0.187626
H8    H     H_    0.236532 0.695156 0.514150 0.134284
H9    H     H_    0.103851 0.811225 0.525516 0.191329
N1    N     N_R   0.499150 0.498800 0.142780 -0.121298
N2    N     N_R   0.499120 0.498720 0.857170 -0.107916
O1    O     O_R   0.500000 0.316780 0.614690 -0.565481
O2    O     O_R   0.499990 0.316750 0.385360 -0.509967
O3    O     O_R   0.367850 0.499980 0.614680 -0.596239
O4    O     O_R   0.367840 0.499960 0.385350 -0.586905
O5    O     O_R   0.500010 0.683250 0.614640 -0.607371
O6    O     O_R   0.500000 0.683220 0.385310 -0.559851
O7    O     O_R   0.632160 0.500040 0.614650 -0.558723
O8    O     O_R   0.632150 0.500020 0.385320 -0.612408
Zn1   Zn    Zn3+2 0.500010 0.500020 0.653130 1.039378
Zn2   Zn    Zn3+2 0.499990 0.499980 0.346870 1.071609
Br1   Br    Br    0.661489 0.284331 0.768295 -0.507264
Br2   Br    Br    0.698097 0.886438 0.990768 -0.393072
Br3   Br    Br    0.690780 0.759614 0.694551 -0.453038
Br4   Br    Br    0.506125 0.876492 0.202654 -0.433340
Br5   Br    Br    0.681721 0.619025 0.155214 -0.398158
O9    O     O_3   0.358763 0.314702 0.237721 -0.548113
C39   C     C_3   0.296574 0.207903 0.231311 0.083208
H10   H     H_    0.294722 0.162103 0.131177 0.177039
H11   H     H_    0.229065 0.235139 0.254381 0.116099
C40   C     C_3   0.321569 0.112900 0.335082 -0.744975
H12   H     H_    0.334523 0.158100 0.434266 0.256863
H13   H     H_    0.265831 0.038477 0.342890 0.210963
H14   H     H_    0.381960 0.068918 0.303680 0.273925
Br6   Br    Br    0.147179 0.390311 0.830797 -0.437301
Br7   Br    Br    0.340256 0.257041 0.750933 -0.465474
O10   O     O_3   0.063399 0.158300 0.423909 -0.589888
C41   C     C_3   0.059068 0.142181 0.283096 0.045215
H15   H     H_    0.111425 0.079155 0.256974 0.176396
H16   H     H_    0.073926 0.231198 0.227954 0.123984
C42   C     C_3   0.968654 0.079373 0.232065 -0.736328
H17   H     H_    0.913973 0.142957 0.240833 0.225045
H18   H     H_    0.973180 0.055271 0.124834 0.244685
H19   H     H_    0.951792 0.992099 0.287499 0.292550
Br8   Br    Br    0.920587 0.885150 0.545257 -0.450753
O11   O     O_3   0.568589 0.141131 0.268684 -0.558706
C43   C     C_3   0.662564 0.147667 0.248409 0.102439
H20   H     H_    0.678365 0.064787 0.190617 0.220237
H21   H     H_    0.704587 0.149925 0.342873 0.111294
C44   C     C_3   0.690955 0.264802 0.170315 -0.740617
H22   H     H_    0.639654 0.283166 0.091568 0.275549
H23   H     H_    0.699294 0.346150 0.238607 0.263951
H24   H     H_    0.756579 0.254219 0.123658 0.230816

loop_
_geom_bond_atom_site_label_1
_geom_bond_atom_site_label_2
_ccdc_geom_bond_type
C39   H11   S    
O6    Zn2   S    
C36   H4    S    
C19   C20   A    
C41   C42   S    
C28   Br7   S    
O4    Zn2   S    
C7    C8    A    
C29   N2    A    
C43   H20   S    
C26   C27   A    
C29   C30   A    
N1    Zn2   S    
C18   C24   A    
C30   N1    A    
C28   C29   A    
C41   H16   S    
C18   C19   A    
C5    C6    A    
O8    Zn2   S    
C39   C40   S    
C15   C16   A    
C34   C35   A    
C40   H13   S    
C4    O10   S    
C22   Br4   S    
C35   C36   A    
C8    C9    A    
C23   C24   S    
C6    C38   A    
C1    O1    A    
C12   O4    A    
C2    C34   A    
C33   O7    A    
C39   H10   S    
C21   C22   A    
C14   C19   A    
C12   O3    A    
C43   H21   S    
C32   N2    A    
C3    H6    S    
C34   H1    S    
O1    Zn1   S    
C25   O9    S    
C41   H15   S    
C42   H18   S    
C16   C17   A    
C25   C26   A    
N2    Zn1   S    
C40   H14   S    
O10   C41   S    
C37   C38   A    
C17   Br3   S    
C2    C38   A    
C31   C32   A    
C21   O11   S    
C20   C21   A    
C10   H7    S    
C17   C18   A    
O11   C43   S    
C1    O2    A    
O3    Zn1   S    
C9    Br8   S    
C44   H23   S    
C31   N1    A    
C22   C24   A    
O2    Zn2   S    
C16   Br2   S    
C3    C4    A    
C23   O5    A    
O5    Zn1   S    
C43   C44   S    
C25   C30   A    
C36   C37   A    
C1    C20   S    
C33   O8    A    
C31   Br5   S    
C4    C5    A    
C42   H19   S    
C11   C12   S    
C23   O6    A    
C6    C7    A    
C14   Br1   S    
C8    H9    S    
C5    C10   A    
C11   C13   A    
C13   H8    S    
C44   H24   S    
C33   C35   S    
C32   H5    S    
O7    Zn1   S    
C40   H12   S    
C15   H2    S    
C10   C11   A    
C42   H17   S    
C7    C13   A    
C44   H22   S    
C3    C37   A    
O9    C39   S    
C27   C28   A    
C14   C15   A    
C27   Br6   S    
C2    C9    A    
C26   H3    S    
