data_mof_unit_16221.cif
_audit_creation_date              2012-10-26T17:51:27-0400
_audit_creation_method            fapswitch 2.2
_symmetry_space_group_name_H-M    P1
_symmetry_Int_Tables_number       1
_space_group_crystal_system       triclinic
_cell_length_a                    18.704044
_cell_length_b                    18.653592
_cell_length_c                    19.105549
_cell_angle_alpha                 109.337757
_cell_angle_beta                  110.379821
_cell_angle_gamma                 108.346052
_cell_volume                      5152.22504337

loop_
_atom_site_label
_atom_site_type_symbol
_atom_type_description
_atom_site_fract_x
_atom_site_fract_y
_atom_site_fract_z
_atom_type_partial_charge
C1    C     C_R   0.613740 0.619219 0.496229 0.590766
C2    C     C_R   0.668062 0.757297 0.487745 -0.025302
C3    C     C_3   0.507507 0.750657 0.538959 -0.081008
C4    C     C_R   0.812336 0.814354 0.499028 0.000220
C5    C     C_R   0.384249 0.503826 0.381359 0.597355
C6    C     C_R   0.821973 0.744495 0.506658 -0.032423
C7    C     C_R   0.759572 0.686353 0.514062 -0.018249
C8    C     C_R   0.680597 0.688667 0.498775 0.007170
C9    C     C_R   0.892890 0.731023 0.507593 -0.047958
C10   C     C_R   0.906657 0.667357 0.523637 0.299782
C11   C     C_R   0.850917 0.618378 0.543361 -0.110818
C12   C     C_R   0.778430 0.627238 0.538017 -0.143618
C13   C     C_3   0.174480 0.446343 0.234763 -0.108953
C14   C     C_R   0.761196 0.667080 0.782900 -0.092848
C15   C     C_R   0.813024 0.738932 0.865442 -0.120262
C16   C     C_R   0.864780 0.732638 0.933199 -0.119052
C17   C     C_R   0.379079 0.381041 0.497522 0.599090
C18   C     C_R   0.866626 0.655133 0.918249 -0.101277
C19   C     C_R   0.814529 0.581035 0.834893 0.016550
C20   C     C_R   0.758292 0.586073 0.766726 0.017372
C21   C     C_R   0.818481 0.502938 0.818425 0.002428
C22   C     C_R   0.773478 0.433105 0.733596 -0.048608
C23   C     C_R   0.724542 0.442021 0.665021 -0.051839
C24   C     C_3   0.247151 0.527688 0.321886 0.085991
C25   C     C_R   0.705024 0.512111 0.683295 -0.015051
C26   C     C_R   0.780629 0.356319 0.715398 -0.172607
C27   C     C_R   0.745017 0.291329 0.630437 0.297111
C28   C     C_R   0.710273 0.308217 0.563986 0.300826
C29   C     C_R   0.626389 0.505488 0.618620 0.576199
C30   C     C_R   0.700689 0.382421 0.581139 -0.150216
C31   C     C_R   0.418997 0.344297 0.638866 0.290986
C32   C     C_R   0.434128 0.353316 0.718924 -0.123651
C33   C     C_R   0.364305 0.322596 0.731341 -0.121827
C34   C     C_R   0.278655 0.274135 0.662030 0.116309
C35   C     C_3   0.315583 0.502992 0.313936 0.088254
C36   C     C_R   0.263397 0.254165 0.577363 -0.037476
C37   C     C_R   0.332049 0.304035 0.570307 -0.008315
C38   C     C_R   0.185158 0.186018 0.499495 -0.019644
C39   C     C_R   0.169978 0.184448 0.420345 -0.007581
C40   C     C_R   0.224748 0.259104 0.423730 -0.076417
C41   C     C_3   0.330607 0.556688 0.269982 0.110313
C42   C     C_R   0.311175 0.313442 0.496245 -0.015462
C43   C     C_R   0.100456 0.113179 0.338050 0.282448
C44   C     C_R   0.066745 0.129842 0.270650 -0.125233
C45   C     C_R   0.108720 0.211370 0.280097 0.127125
C46   C     C_R   0.590934 0.765931 0.474304 0.259186
C47   C     C_R   0.189025 0.274946 0.354691 0.116528
C48   C     C_R   0.007517 0.619017 0.125082 0.593825
C49   C     C_R   0.123351 0.500221 0.123109 0.601462
C50   C     C_R   0.002442 0.381693 0.884185 0.525860
C51   C     C_R   0.884467 0.501845 0.886241 0.511373
C52   C     C_R   0.001429 0.880918 0.382772 0.606652
C53   C     C_3   0.263503 0.584125 0.279862 -0.100831
C54   C     C_R   0.880951 0.880573 0.499236 0.542994
C55   C     C_R   0.996812 0.117103 0.617704 0.560755
C56   C     C_R   0.118818 0.118842 0.500060 0.601796
C57   C     C_R   0.582920 0.833179 0.458464 0.156751
C58   C     C_R   0.172911 0.757998 0.290863 0.274378
C59   C     C_R   0.246311 0.821034 0.371927 -0.128602
C60   C     C_R   0.245367 0.892263 0.422730 -0.162561
C61   C     C_R   0.168597 0.897199 0.398396 0.107359
C62   C     C_R   0.086914 0.821952 0.329987 -0.006716
C63   C     C_R   0.089485 0.754103 0.270278 -0.014063
C64   C     C_R   0.004079 0.813275 0.318610 -0.018000
C65   C     C_3   0.191849 0.501959 0.191724 0.029328
C66   C     C_R   0.924636 0.740881 0.244672 0.003800
C67   C     C_R   0.929564 0.686749 0.176754 -0.030591
C68   C     C_R   0.654542 0.900634 0.472071 0.270568
C69   C     C_R   0.009734 0.688109 0.191949 -0.019489
C70   C     C_R   0.839173 0.719621 0.233602 0.130171
C71   C     C_R   0.765182 0.663582 0.151811 -0.065514
C72   C     C_R   0.772457 0.621819 0.082019 -0.144378
C73   C     C_R   0.852914 0.630435 0.094557 -0.105627
C74   C     C_R   0.969941 0.381923 0.725260 -0.073206
C75   C     C_R   0.965284 0.389620 0.654077 -0.117011
C76   C     C_R   0.977948 0.334254 0.596350 -0.134527
C77   C     C_3   0.259952 0.476885 0.183018 0.075246
C78   C     C_R   0.990387 0.267936 0.606954 -0.096573
C79   C     C_R   0.732647 0.897585 0.495613 -0.160325
C80   C     C_R   0.989564 0.254766 0.675893 0.017740
C81   C     C_R   0.985918 0.317072 0.739281 0.025430
C82   C     C_R   0.994815 0.183235 0.684601 -0.019352
C83   C     C_R   0.007220 0.180689 0.762006 -0.036063
C84   C     C_R   0.020348 0.252562 0.830787 -0.045989
C85   C     C_R   0.001650 0.315441 0.816466 -0.007432
C86   C     C_R   0.008020 0.109614 0.774770 0.332196
C87   C     C_R   0.046622 0.121183 0.858421 0.308993
C88   C     C_R   0.071935 0.199362 0.928091 -0.176901
C89   C     C_3   0.244023 0.421041 0.225592 -0.153837
C90   C     C_R   0.737418 0.822510 0.492893 -0.088112
C91   C     C_R   0.053627 0.261216 0.913605 -0.165741
C92   C     C_3   0.698770 0.012912 0.441301 -0.086530
C93   C     C_3   0.962948 0.574502 0.491006 -0.118484
C94   C     C_3   0.748710 0.262430 0.464191 -0.111695
C95   C     C_3   0.742719 0.181282 0.663541 -0.114463
C96   C     C_3   0.498146 0.294615 0.592323 -0.100190
C97   C     C_3   0.052151 0.968784 0.245900 -0.115260
C98   C     C_3   0.247043 0.750186 0.217472 -0.086617
C99   C     C_3   0.883621 0.980894 0.701141 -0.104309
C100  C     C_3   0.044570 0.043215 0.931831 -0.133095
Cu1   Cu    Cu3+1 0.500490 0.438210 0.438660 0.928089
Cu2   Cu    Cu3+1 0.499510 0.561790 0.561340 0.929361
Cu3   Cu    Cu3+1 0.942070 0.438200 0.003850 0.911529
Cu4   Cu    Cu3+1 0.065670 0.561760 0.003800 0.928788
Cu5   Cu    Cu3+1 0.062280 0.000030 0.562300 0.984858
Cu6   Cu    Cu3+1 0.937720 1.000000 0.437720 0.911262
H1    H     H_    0.275424 0.651795 0.307036 0.148724
H2    H     H_    0.678997 0.393657 0.527690 0.163340
H3    H     H_    0.500290 0.386163 0.772023 0.127447
H4    H     H_    0.376722 0.336680 0.795443 0.135411
H5    H     H_    0.007934 0.079157 0.210481 0.093867
H6    H     H_    0.714739 0.578220 0.018890 0.117032
H7    H     H_    0.307549 0.820030 0.391081 0.111767
H8    H     H_    0.306168 0.946894 0.478459 0.111111
H9    H     H_    0.700913 0.649424 0.143067 0.127403
H10   H     H_    0.853727 0.591971 0.038752 0.130888
H11   H     H_    0.102796 0.211754 0.993482 0.103781
H12   H     H_    0.790355 0.955859 0.518310 0.159151
H13   H     H_    0.237387 0.355049 0.202830 0.116990
H14   H     H_    0.961663 0.428036 0.769234 0.135599
H15   H     H_    0.953794 0.440009 0.644786 0.102634
H16   H     H_    0.977571 0.342305 0.542669 0.103916
H17   H     H_    0.003039 0.229718 0.561429 0.134423
H18   H     H_    0.069236 0.317730 0.968971 0.151416
H19   H     H_    0.109600 0.401963 0.221227 0.168100
H20   H     H_    0.862781 0.572981 0.562652 0.098289
H21   H     H_    0.698175 0.965435 0.386893 0.106384
H22   H     H_    0.766475 0.059861 0.495803 0.142967
H23   H     H_    0.938425 0.768241 0.494488 0.147780
H24   H     H_    0.671945 0.050932 0.417986 0.174546
H25   H     H_    0.898446 0.530119 0.430569 0.111094
H26   H     H_    0.967984 0.551850 0.538592 0.111496
H27   H     H_    0.013570 0.571474 0.474431 0.149578
H28   H     H_    0.792387 0.242042 0.498732 0.167718
H29   H     H_    0.786376 0.331334 0.481623 0.086078
H30   H     H_    0.721993 0.221443 0.394468 0.129021
H31   H     H_    0.405002 0.636865 0.243272 0.237860
H32   H     H_    0.446192 0.577773 0.274965 0.237877
H33   H     H_    0.689517 0.183913 0.676177 0.110223
H34   H     H_    0.738404 0.587932 0.554460 0.126596
H35   H     H_    0.805574 0.214532 0.724509 0.115366
H36   H     H_    0.725295 0.111898 0.630766 0.176243
H37   H     H_    0.010047 0.178186 0.164192 0.208620
H38   H     H_    0.111590 0.232221 0.183875 0.219616
H39   H     H_    0.436589 0.239045 0.533298 0.110363
H40   H     H_    0.520712 0.275043 0.641380 0.105813
H41   H     H_    0.547690 0.310310 0.573106 0.170562
H42   H     H_    0.201568 0.210203 0.697734 0.266065
H43   H     H_    0.152734 0.246418 0.633219 0.224306
H44   H     H_    0.052824 0.911061 0.249112 0.147575
H45   H     H_    0.727119 0.677416 0.731749 0.128506
H46   H     H_    0.103670 0.995358 0.230889 0.093103
H47   H     H_    0.986419 0.945922 0.193064 0.110474
H48   H     H_    0.326839 0.448854 0.123926 0.230244
H49   H     H_    0.218730 0.387767 0.062076 0.222585
H50   H     H_    0.279793 0.357674 0.348978 0.244422
H51   H     H_    0.250536 0.406940 0.419818 0.259214
H52   H     H_    0.314253 0.772082 0.266878 0.105754
H53   H     H_    0.240937 0.806743 0.214198 0.104754
H54   H     H_    0.237263 0.708205 0.154582 0.167053
H55   H     H_    0.214131 0.009079 0.503903 0.242646
H56   H     H_    0.814132 0.800177 0.876555 0.100737
H57   H     H_    0.212883 0.020074 0.419760 0.224036
H58   H     H_    0.875549 0.757241 0.360125 0.221209
H59   H     H_    0.805765 0.789350 0.309347 0.268216
H60   H     H_    0.836133 0.000905 0.672474 0.089119
H61   H     H_    0.890397 0.989676 0.764059 0.114789
H62   H     H_    0.857051 0.910480 0.660909 0.151965
H63   H     H_    0.986132 0.048081 0.929953 0.087813
H64   H     H_    0.103559 0.090356 0.996324 0.114969
H65   H     H_    0.032281 0.977099 0.920478 0.146974
H66   H     H_    0.185360 0.564280 0.383764 0.230684
H67   H     H_    0.905375 0.788652 0.997253 0.101401
H68   H     H_    0.294207 0.615609 0.445538 0.230453
H69   H     H_    0.561858 0.817713 0.589465 0.067480
H70   H     H_    0.498942 0.713217 0.572619 0.165398
H71   H     H_    0.445633 0.752177 0.510177 0.094776
H72   H     H_    0.497813 0.866051 0.484646 0.214540
H73   H     H_    0.449400 0.772805 0.389761 0.253123
H74   H     H_    0.910540 0.654753 0.972521 0.117599
H75   H     H_    0.816146 0.347437 0.766890 0.139103
N1    N     N_3   0.415639 0.614681 0.287521 -0.595347
N2    N     N_3   0.072748 0.229292 0.212221 -0.603246
N3    N     N_3   0.210675 0.260217 0.682890 -0.616766
N4    N     N_3   0.268582 0.451413 0.106917 -0.615321
N5    N     N_3   0.228955 0.356388 0.359701 -0.592230
N6    N     N_3   0.176880 0.981521 0.437269 -0.549353
N7    N     N_3   0.822666 0.740362 0.303412 -0.632482
N8    N     N_3   0.239730 0.554777 0.398640 -0.607080
N9    N     N_3   0.502266 0.835734 0.430750 -0.585655
O1    O     O_R   0.590580 0.537990 0.448200 -0.522122
O2    O     O_R   0.948140 0.909840 0.357940 -0.486959
O3    O     O_R   0.962430 0.909850 0.552620 -0.477110
O4    O     O_R   0.589760 0.642350 0.551790 -0.507961
O5    O     O_R   0.857240 0.909830 0.447420 -0.547709
O6    O     O_R   0.051860 0.090180 0.642080 -0.472854
O7    O     O_R   0.946670 0.090160 0.536880 -0.553171
O8    O     O_R   0.142760 0.090200 0.552610 -0.529059
O9    O     O_R   0.037570 0.090170 0.447410 -0.471780
O10   O     O_R   0.409540 0.447820 0.357340 -0.544206
O11   O     O_R   0.408720 0.552180 0.460940 -0.494548
O12   O     O_R   0.055380 0.642340 0.093300 -0.485129
O13   O     O_R   0.410240 0.357650 0.448210 -0.505708
O14   O     O_R   0.409420 0.462010 0.551800 -0.490007
O15   O     O_R   0.591280 0.447820 0.539060 -0.523580
O16   O     O_R   0.590460 0.552180 0.642660 -0.492559
O17   O     O_R   0.951000 0.537990 0.093340 -0.511956
O18   O     O_3   0.646556 0.971709 0.469326 -0.545016
O19   O     O_3   0.980046 0.661590 0.527086 -0.560756
O20   O     O_3   0.678607 0.248653 0.479831 -0.545043
O21   O     O_3   0.752139 0.215853 0.609820 -0.550347
O22   O     O_3   0.489325 0.368891 0.626595 -0.548299
O23   O     O_R   0.042560 0.447800 0.094700 -0.525045
O24   O     O_3   0.067571 0.028947 0.325251 -0.524104
O25   O     O_3   0.184428 0.701908 0.232884 -0.563289
O26   O     O_3   0.963332 0.026224 0.706049 -0.513563
O27   O     O_3   0.059213 0.054283 0.867503 -0.530746
O28   O     O_3   0.521959 0.707517 0.472732 -0.526693
O29   O     O_R   0.146930 0.552150 0.094670 -0.475187
O30   O     O_R   0.952370 0.357620 0.914350 -0.526687
O31   O     O_R   0.056740 0.461970 0.914310 -0.508225
O32   O     O_R   0.860810 0.447810 0.912980 -0.524649
O33   O     O_R   0.965190 0.552160 0.912950 -0.523305
O34   O     O_R   0.053330 0.909870 0.463140 -0.498117

loop_
_geom_bond_atom_site_label_1
_geom_bond_atom_site_label_2
_ccdc_geom_bond_type
C16   H67   S    
C40   C47   A    
C98   O25   S    
C72   H6    S    
C50   O31   A    
Cu1   Cu2   S    
C46   O28   S    
C49   O23   A    
Cu5   O6    S    
C1    C8    S    
C77   N4    S    
C15   H56   S    
C60   H8    S    
C19   C20   A    
Cu6   O2    S    
C48   C69   S    
C75   C76   A    
C6    C9    A    
Cu1   O10   S    
C7    C8    A    
C13   C65   S    
C2    C46   A    
Cu5   O3    S    
C96   H39   S    
C77   C89   S    
C26   C27   A    
C73   H10   S    
C49   C65   S    
C49   O29   A    
C96   O22   S    
C87   C88   A    
C36   C37   A    
C19   C21   A    
Cu2   O11   S    
C76   C78   A    
H37   N2    S    
C93   H27   S    
Cu3   O32   S    
C41   C77   S    
C38   C39   A    
H72   N9    S    
C78   C80   A    
C95   H35   S    
C99   O26   S    
C51   O32   A    
C28   O20   S    
C15   C16   A    
C79   H12   S    
C48   O12   A    
C61   N6    S    
C29   O15   A    
H57   N6    S    
C18   C19   A    
C52   O2    A    
C37   C42   A    
C17   O13   A    
Cu2   O14   S    
C17   C42   S    
C79   C90   A    
C62   C64   A    
Cu3   Cu4   S    
C50   C85   S    
C31   O22   S    
C89   H13   S    
C51   O33   A    
C28   C30   A    
C14   H45   S    
C68   O18   S    
H43   N3    S    
C94   H30   S    
C97   H44   S    
C12   H34   S    
C34   N3    S    
C70   C71   A    
C67   C73   A    
C84   C91   A    
C97   H47   S    
C93   H26   S    
C53   C65   S    
C9    C10   A    
Cu3   O23   S    
Cu4   O33   S    
C99   H61   S    
C70   N7    S    
Cu3   O30   S    
C38   C56   S    
C99   H60   S    
C30   H2    S    
C58   O25   S    
C68   C79   A    
C40   C42   A    
C55   O6    A    
H38   N2    S    
C18   H74   S    
C59   C60   A    
C54   O3    A    
C21   C22   A    
C100  H65   S    
C93   O19   S    
H32   N1    S    
C92   H22   S    
C33   C34   A    
C5    O10   A    
C4    C90   A    
C45   C47   A    
C25   C29   S    
C7    C12   A    
H48   N4    S    
C24   C35   S    
C65   C77   S    
C32   H3    S    
C100  H64   S    
H59   N7    S    
C23   C30   A    
C98   H52   S    
C11   H20   S    
C84   C85   A    
C4    C6    A    
C52   C64   S    
C39   C40   A    
C56   O8    A    
C86   C87   A    
C72   C73   A    
C39   C43   A    
H31   N1    S    
Cu1   O1    S    
C24   C53   S    
H49   N4    S    
C29   O16   A    
C31   C37   A    
C13   C24   S    
C47   N5    S    
C60   C61   A    
C67   C69   A    
C64   C66   A    
C17   O14   A    
C92   H24   S    
C43   C44   A    
C44   H5    S    
Cu4   O29   S    
C62   C63   A    
C92   O18   S    
C14   C20   A    
Cu2   O4    S    
C53   H1    S    
C10   O19   S    
C83   C84   A    
C14   C15   A    
C88   C91   A    
C59   H7    S    
C27   O21   S    
C94   H29   S    
C71   H9    S    
C16   C18   A    
H51   N5    S    
C55   C82   S    
C78   H17   S    
Cu2   O16   S    
C41   C53   S    
C24   N8    S    
Cu1   O15   S    
Cu6   O7    S    
C1    O1    A    
C80   C82   A    
Cu5   O8    S    
C98   H54   S    
C100  O27   S    
C52   O34   A    
C9    H23   S    
C91   H18   S    
C46   C57   A    
Cu1   O13   S    
C41   N1    S    
C74   C81   A    
C92   H21   S    
C35   C89   S    
Cu4   O31   S    
C21   C51   S    
C87   O27   S    
C74   H14   S    
C44   C45   A    
C45   N2    S    
C99   H62   S    
C3    H69   S    
C58   C63   A    
C96   H41   S    
C54   O5    A    
C4    C54   S    
C100  H63   S    
C75   H15   S    
C55   O7    A    
C31   C32   A    
C2    C8    A    
Cu3   O17   S    
C80   C81   A    
H58   N7    S    
C11   C12   A    
C94   O20   S    
C6    C7    A    
H50   N5    S    
H66   N8    S    
C13   C89   S    
Cu5   O34   S    
C96   H40   S    
Cu5   Cu6   S    
C95   H33   S    
C97   O24   S    
C76   H16   S    
C32   C33   A    
C56   O9    A    
C36   C38   A    
C1    O4    A    
C58   C59   A    
Cu6   O5    S    
C95   O21   S    
C63   C69   A    
H55   N6    S    
C5    O11   A    
H42   N3    S    
C66   C70   A    
H73   N9    S    
C3    O28   S    
C5    C35   S    
C48   O17   A    
C50   O30   A    
C94   H28   S    
C97   H46   S    
C66   C67   A    
C34   C36   A    
C23   C25   A    
C3    H71   S    
C61   C62   A    
C35   C41   S    
C86   O26   S    
C10   C11   A    
H68   N8    S    
C22   C26   A    
C26   H75   S    
C3    H70   S    
C57   N9    S    
C83   C86   A    
C71   C72   A    
C98   H53   S    
C95   H36   S    
C2    C90   A    
C82   C83   A    
C20   C25   A    
C27   C28   A    
C22   C23   A    
C33   H4    S    
C57   C68   A    
C88   H11   S    
C93   H25   S    
C43   O24   S    
C13   H19   S    
C81   C85   A    
C74   C75   A    
Cu4   O12   S    
Cu6   O9    S    
