data_mof_unit_46617.cif
_audit_creation_date              2012-12-10T20:32:46-0500
_audit_creation_method            fapswitch 2.2
_symmetry_space_group_name_H-M    P1
_symmetry_Int_Tables_number       1
_space_group_crystal_system       triclinic
_cell_length_a                    11.54914
_cell_length_b                    10.57984
_cell_length_c                    9.845225
_cell_angle_alpha                 88.602506
_cell_angle_beta                  90.156429
_cell_angle_gamma                 90.017991
_cell_volume                      1202.60654432

loop_
_atom_site_label
_atom_site_type_symbol
_atom_type_description
_atom_site_fract_x
_atom_site_fract_y
_atom_site_fract_z
_atom_type_partial_charge
C1    C     C_R   0.515655 0.260691 0.501332 0.866633
C2    C     C_R   0.591847 0.545413 0.071080 -0.148726
C3    C     C_R   0.591450 0.545838 0.927111 -0.099986
C4    C     C_R   0.281798 0.499625 0.499877 0.903590
C5    C     C_R   0.402149 0.468312 0.929181 0.151766
C6    C     C_3   0.339212 0.345748 0.925239 -0.560759
C7    C     C_3   0.342334 0.342285 0.079642 0.273497
C8    C     C_R   0.508624 0.741345 0.497401 0.898465
C9    C     C_R   0.718203 0.499878 0.500093 0.856649
C10   C     C_1   0.161380 0.497263 0.499688 -0.202452
C11   C     C_1   0.059256 0.495274 0.499476 -0.017224
C12   C     C_R   0.559202 0.132556 0.500684 -0.291829
C13   C     C_1   0.940647 0.494804 0.499476 -0.014261
C14   C     C_1   0.838555 0.496747 0.499928 -0.220206
C15   C     C_R   0.580455 0.059993 0.617770 -0.159508
C16   C     C_3   0.736897 0.196222 0.299429 0.164758
C17   C     C_3   0.831490 0.100437 0.343908 -0.445260
C18   C     C_3   0.865661 0.010271 0.232334 -0.817358
C19   C     C_3   0.211655 0.263574 0.240676 0.134978
C20   C     C_3   0.179895 0.134592 0.183722 -0.386238
C21   C     C_3   0.175437 0.033243 0.296636 -0.983521
C22   C     C_3   0.557709 0.887321 0.224774 -0.308660
C23   C     C_R   0.583044 0.074298 0.375724 0.497392
C24   C     C_3   0.433973 0.873252 0.172160 -0.805947
C25   C     C_3   0.752739 0.875211 0.802108 0.181486
C26   C     C_3   0.810312 0.767430 0.726743 -0.388155
C27   C     C_3   0.929837 0.807058 0.674915 -0.974483
C28   C     C_3   0.679256 0.221696 0.832637 0.146280
C29   C     C_3   0.803763 0.229039 0.884968 -0.385480
C30   C     C_3   0.850040 0.363987 0.884817 -0.952946
C31   C     C_R   0.561292 0.943713 0.365967 0.053444
C32   C     C_R   0.543716 0.872883 0.490403 -0.234266
C33   C     C_R   0.575083 0.931635 0.610433 -0.095986
C34   C     C_3   0.548475 0.914694 0.758115 0.387441
C35   C     C_3   0.550411 0.060215 0.767130 0.253529
C36   C     C_R   0.402564 0.466951 0.071957 0.205410
H1    H     H_    0.391876 0.270719 0.879748 0.169953
H2    H     H_    0.909739 0.154379 0.373763 0.188165
H3    H     H_    0.803546 0.044885 0.435231 0.210586
H4    H     H_    0.790710 0.954731 0.198042 0.263176
H5    H     H_    0.931618 0.942788 0.272429 0.248449
H6    H     H_    0.903052 0.063136 0.144554 0.238115
H7    H     H_    0.137819 0.296110 0.302746 0.155972
H8    H     H_    0.287292 0.256031 0.310831 0.146570
H9    H     H_    0.094397 0.141548 0.132406 0.228105
H10   H     H_    0.244281 0.106350 0.106796 0.214745
H11   H     H_    0.261221 0.024065 0.347287 0.265996
H12   H     H_    0.399093 0.265397 0.122340 0.108939
H13   H     H_    0.152366 0.940813 0.252890 0.273064
H14   H     H_    0.109650 0.057889 0.373611 0.268522
H15   H     H_    0.376433 0.826728 0.248211 0.267085
H16   H     H_    0.398470 0.968106 0.146195 0.244291
H17   H     H_    0.434295 0.816570 0.078671 0.252209
H18   H     H_    0.602493 0.948638 0.148621 0.254972
H19   H     H_    0.606175 0.797011 0.222510 0.208170
H20   H     H_    0.800252 0.889049 0.898917 0.149191
H21   H     H_    0.765028 0.963397 0.740698 0.168991
H22   H     H_    0.820986 0.684154 0.796161 0.219186
H23   H     H_    0.460597 0.874910 0.776206 0.059512
H24   H     H_    0.755690 0.740826 0.639050 0.240594
H25   H     H_    0.921972 0.885725 0.598607 0.259483
H26   H     H_    0.972566 0.726229 0.626186 0.286191
H27   H     H_    0.985167 0.837787 0.760496 0.262715
H28   H     H_    0.623637 0.288097 0.888268 0.169628
H29   H     H_    0.681775 0.248729 0.723221 0.157706
H30   H     H_    0.807581 0.189455 0.989874 0.242445
H31   H     H_    0.860373 0.170610 0.820337 0.204089
H32   H     H_    0.839339 0.410045 0.783191 0.278731
H33   H     H_    0.943617 0.362558 0.911046 0.276095
H34   H     H_    0.464097 0.100173 0.789181 0.050235
H35   H     H_    0.804204 0.419482 0.962150 0.255644
H36   H     H_    0.667115 0.579515 0.124487 0.151336
H37   H     H_    0.666023 0.579527 0.872170 0.169521
H38   H     H_    0.250900 0.356823 0.881237 0.229043
H39   H     H_    0.726599 0.265266 0.381134 0.099542
H40   H     H_    0.768427 0.251997 0.210179 0.157589
N1    N     N_R   0.499240 0.499140 0.142800 -0.132472
N2    N     N_R   0.499240 0.499180 0.857150 -0.116889
O1    O     O_R   0.500010 0.316790 0.614690 -0.636960
O2    O     O_3   0.229807 0.354196 0.134925 -0.617010
O3    O     O_3   0.635025 0.846268 0.834874 -0.618452
O4    O     O_3   0.638892 0.097636 0.857838 -0.637386
O5    O     O_R   0.500000 0.316760 0.385350 -0.598582
O6    O     O_R   0.334450 0.500030 0.614670 -0.601611
O7    O     O_R   0.334440 0.500000 0.385330 -0.597296
O8    O     O_R   0.500000 0.683240 0.614650 -0.597812
O9    O     O_R   0.499990 0.683210 0.385310 -0.609201
O10   O     O_R   0.665560 0.500000 0.614670 -0.638170
O11   O     O_R   0.665550 0.499970 0.385330 -0.627050
O12   O     O_3   0.628695 0.140835 0.264804 -0.628251
Zn1   Zn    Zn3+2 0.500010 0.500020 0.653130 0.932334
Zn2   Zn    Zn3+2 0.499990 0.499980 0.346870 0.948188

loop_
_geom_bond_atom_site_label_1
_geom_bond_atom_site_label_2
_ccdc_geom_bond_type
C24   H16   S    
N1    Zn2   S    
C16   O12   S    
C16   H39   S    
C7    C36   S    
C19   C20   S    
C25   H20   S    
C21   H13   S    
C30   H35   S    
C22   H18   S    
O5    Zn2   S    
C12   C23   A    
C26   C27   S    
C28   C29   S    
O8    Zn1   S    
C18   H6    S    
C9    O10   A    
C5    C6    S    
C5    C36   A    
C17   C18   S    
C34   C35   S    
C17   H3    S    
C18   H4    S    
C27   H25   S    
C29   H31   S    
C35   O4    S    
C35   H34   S    
C16   C17   S    
O10   Zn1   S    
C34   O3    S    
O1    Zn1   S    
C20   H9    S    
C24   H15   S    
C13   C14   T    
C25   O3    S    
C1    C12   S    
C25   H21   S    
C2    H36   S    
C15   C35   S    
C21   H14   S    
O7    Zn2   S    
C19   H7    S    
C6    H38   S    
C6    H1    S    
C22   C31   S    
C28   O4    S    
C8    C32   S    
C18   H5    S    
C9    O11   A    
C4    O7    A    
C24   H17   S    
C23   C31   A    
C9    C14   S    
C29   C30   S    
C27   H26   S    
C31   C32   A    
C4    O6    A    
C12   C15   A    
C33   C34   S    
C23   O12   S    
O11   Zn2   S    
C26   H22   S    
C6    C7    S    
C27   H27   S    
C28   H28   S    
O6    Zn1   S    
C34   H23   S    
C1    O1    A    
C22   C24   S    
C4    C10   S    
C30   H33   S    
C19   H8    S    
C16   H40   S    
C22   H19   S    
N2    Zn1   S    
C1    O5    A    
C36   N1    A    
C8    O9    A    
C32   C33   A    
C2    C3    A    
C25   C26   S    
C2    N1    A    
C7    H12   S    
C11   C13   S    
C28   H29   S    
C8    O8    A    
C17   H2    S    
C19   O2    S    
C3    H37   S    
C20   H10   S    
C10   C11   T    
C29   H30   S    
C20   C21   S    
C5    N2    A    
O9    Zn2   S    
C3    N2    A    
C26   H24   S    
C15   C33   A    
C30   H32   S    
C7    O2    S    
C21   H11   S    
