data_mof_unit_7429.cif
_audit_creation_date              2012-12-11T18:55:28-0500
_audit_creation_method            fapswitch 2.2
_symmetry_space_group_name_H-M    P1
_symmetry_Int_Tables_number       1
_space_group_crystal_system       triclinic
_cell_length_a                    8.467793
_cell_length_b                    15.26348
_cell_length_c                    16.816961
_cell_angle_alpha                 112.299677
_cell_angle_beta                  98.188242
_cell_angle_gamma                 80.983196
_cell_volume                      1977.94923247

loop_
_atom_site_label
_atom_site_type_symbol
_atom_type_description
_atom_site_fract_x
_atom_site_fract_y
_atom_site_fract_z
_atom_type_partial_charge
Ba1   Ba    Ba6+2 0.364200 0.465260 0.540910 1.871184
Ba2   Ba    Ba6+2 0.825640 0.534660 0.459080 1.775670
C1    C     C_3   0.233391 0.179638 0.747966 -0.315776
C2    C     C_R   0.911861 0.568843 0.777421 0.047310
C3    C     C_2   0.464951 0.379535 0.133070 -0.154804
C4    C     C_3   0.741512 0.201059 0.739734 0.854178
C5    C     C_2   0.438130 0.409853 0.216855 -0.022061
C6    C     C_2   0.155143 0.475550 0.186330 -0.002335
C7    C     C_3   0.200742 0.466335 0.098565 -0.053436
C8    C     C_3   0.330854 0.382908 0.063801 0.083104
C9    C     C_2   0.065439 0.475890 0.031063 -0.029352
C10   C     C_2   0.096875 0.489907 0.960266 0.018479
C11   C     C_R   0.812298 0.547511 0.916238 0.294578
C12   C     C_3   0.193809 0.269167 0.726195 0.364345
C13   C     C_R   0.972162 0.513676 0.896306 0.001438
C14   C     C_R   0.698058 0.577132 0.858713 0.008506
C15   C     C_R   0.744863 0.583861 0.784672 -0.036066
C16   C     C_3   0.715203 0.128250 0.777217 -0.354368
C17   C     C_R   0.013096 0.511583 0.816742 -0.009928
C18   C     C_R   0.848715 0.179954 0.544628 -0.072393
C19   C     C_R   0.071307 0.203983 0.478546 -0.000784
C20   C     C_R   0.270169 0.772213 0.487755 -0.284866
C21   C     C_R   0.356096 0.823505 0.458696 0.017302
C22   C     C_R   0.296735 0.917233 0.463670 0.086160
C23   C     C_3   0.182969 0.841914 0.724742 0.409343
C24   C     C_R   0.151571 0.962445 0.503563 0.042210
C25   C     C_R   0.066741 0.906919 0.532773 -0.058313
C26   C     C_R   0.082218 0.058690 0.512886 0.051128
C27   C     C_R   0.925344 0.090279 0.541585 -0.022570
C28   C     C_3   0.507440 0.211035 0.263395 0.325879
C29   C     C_R   0.845603 0.031338 0.564545 -0.043190
C30   C     C_R   0.919594 0.945554 0.566537 -0.069533
C31   C     C_R   0.158708 0.125091 0.493798 -0.235121
C32   C     C_R   0.912003 0.225323 0.499782 0.133471
C33   C     C_R   0.126677 0.812217 0.525274 -0.038570
C34   C     C_3   0.137942 0.947056 0.776266 -0.415814
C35   C     C_3   0.443489 0.157911 0.170708 -0.429126
C36   C     C_3   0.598783 0.770253 0.669320 0.356669
C37   C     C_3   0.599011 0.877963 0.702673 -0.366750
C38   C     C_3   0.090389 0.272443 0.262386 0.360124
C39   C     C_3   0.996401 0.212329 0.180129 -0.020241
C40   C     C_3   0.839944 0.214623 0.047857 -0.246285
C41   C     C_3   0.291643 0.665097 0.252466 -0.206211
C42   C     C_3   0.320647 0.965326 0.342262 -0.120721
C43   C     C_3   0.540358 0.709199 0.232170 0.393991
C44   C     C_3   0.464239 0.749818 0.162332 0.304727
C45   C     C_3   0.942979 0.742584 0.288993 0.303650
C46   C     C_3   0.986597 0.827646 0.271252 0.294837
C47   C     C_2   0.272190 0.451916 0.241706 -0.246495
H1    H     H_    0.237657 0.252898 0.662376 0.023108
H2    H     H_    0.188728 0.296233 0.242462 -0.146907
H3    H     H_    0.017294 0.337324 0.298896 0.111914
H4    H     H_    0.361971 0.152752 0.741202 0.120432
H5    H     H_    0.076917 0.149225 0.143547 0.077702
H6    H     H_    0.897182 0.185914 0.198011 0.159695
H7    H     H_    0.061228 0.287165 0.722073 -0.003739
H8    H     H_    0.160571 0.123348 0.702944 0.048255
H9    H     H_    0.248471 0.808348 0.769839 0.149988
H10   H     H_    0.266048 0.835037 0.677078 -0.111710
H11   H     H_    0.056526 0.954981 0.825435 0.152552
H12   H     H_    0.543389 0.112414 0.133038 0.154099
H13   H     H_    0.247464 0.981510 0.809595 0.084850
H14   H     H_    0.076353 0.983634 0.732750 0.091500
H15   H     H_    0.207343 0.194736 0.815006 0.149719
H16   H     H_    0.681646 0.062240 0.724283 0.052369
H17   H     H_    0.661994 0.677235 0.217510 0.121619
H18   H     H_    0.331671 0.752294 0.153202 -0.007364
H19   H     H_    0.490072 0.824397 0.182108 0.133628
H20   H     H_    0.035500 0.730273 0.338269 -0.073022
H21   H     H_    0.831236 0.761470 0.320284 0.115189
H22   H     H_    0.046107 0.802742 0.210555 0.033962
H23   H     H_    0.354920 0.111207 0.170008 0.120726
H24   H     H_    0.072368 0.864173 0.325042 -0.042797
H25   H     H_    0.581467 0.344300 0.113126 0.103948
H26   H     H_    0.575202 0.597185 0.873233 0.190427
H27   H     H_    0.248181 0.467559 0.307683 0.045178
H28   H     H_    0.942211 0.475561 0.041821 0.119053
H29   H     H_    0.221769 0.488269 0.951144 0.144572
H30   H     H_    0.723668 0.050879 0.581875 0.062497
H31   H     H_    0.283557 0.116789 0.487547 0.166933
H32   H     H_    0.853531 0.175754 0.707145 -0.242024
H33   H     H_    0.317375 0.700252 0.482396 0.052313
H34   H     H_    0.385288 0.208671 0.139711 0.081104
H35   H     H_    0.855017 0.908291 0.592006 0.103296
H36   H     H_    0.827133 0.109757 0.813490 0.055295
H37   H     H_    0.617877 0.156248 0.821186 0.129561
H38   H     H_    0.549001 0.157033 0.293466 0.134870
H39   H     H_    0.414965 0.260932 0.302682 0.037831
H40   H     H_    0.017951 0.300819 0.114131 0.190299
H41   H     H_    0.784991 0.263493 0.014148 0.151868
H42   H     H_    0.741961 0.184604 0.063209 0.119104
H43   H     H_    0.918263 0.155939 0.004147 0.101349
H44   H     H_    0.470281 0.571811 0.180312 0.195899
H45   H     H_    0.522175 0.746418 0.607429 -0.034754
H46   H     H_    0.212005 0.647644 0.191923 0.120734
H47   H     H_    0.271940 0.742499 0.287012 0.044654
H48   H     H_    0.267227 0.633023 0.297503 0.078829
H49   H     H_    0.602690 0.537688 0.047212 0.344224
H50   H     H_    0.945004 0.251847 0.901747 0.307321
H51   H     H_    0.808079 0.887378 0.131072 0.358730
H52   H     H_    0.055530 0.576214 0.658283 0.317574
H53   H     H_    0.888399 0.404612 0.583845 0.241195
H54   H     H_    0.505586 0.955023 0.437335 0.262537
H55   H     H_    0.397718 0.004099 0.321878 0.152559
H56   H     H_    0.723290 0.738696 0.659773 0.127153
H57   H     H_    0.197309 0.001980 0.342916 0.137570
H58   H     H_    0.316376 0.892835 0.293906 0.087540
H59   H     H_    0.482566 0.915625 0.726457 0.094019
H60   H     H_    0.621609 0.899190 0.649502 0.064573
H61   H     H_    0.694842 0.900570 0.756279 0.154140
N1    N     N_2   0.933144 0.266740 0.126033 -0.425422
N2    N     N_2   0.453985 0.635064 0.231736 -0.432427
N3    N     N_2   0.382471 0.963558 0.426835 -0.436567
O1    O     O_2   0.428380 0.595290 0.716080 -0.396479
O2    O     O_2   0.684498 0.811901 0.463962 -0.494264
O3    O     O_3   0.547024 0.786374 0.312397 -0.604063
O4    O     O_3   0.649320 0.571640 0.606850 -0.476553
O5    O     O_3   0.067570 0.379360 0.450830 -0.448153
O6    O     O_2   0.850910 0.734710 0.551660 -0.478173
O7    O     O_3   0.042215 0.797847 0.688886 -0.547374
O8    O     O_2   0.817143 0.503781 0.196217 -0.489729
O9    O     O_3   0.935030 0.660646 0.211754 -0.615609
O10   O     O_3   0.202060 0.415890 0.655600 -0.541359
O11   O     O_2   0.344928 0.509588 0.809212 -0.373988
O12   O     O_3   0.153610 0.214147 0.309666 -0.649142
O13   O     O_3   0.543121 0.743062 0.729889 -0.622090
O14   O     O_3   0.270260 0.344198 0.789823 -0.545470
O15   O     O_2   0.338780 0.265250 0.448290 -0.431204
O16   O     O_3   0.612600 0.359160 0.609560 -0.373031
O17   O     O_2   0.528218 0.185599 0.527742 -0.458399
O18   O     O_2   0.457649 0.730115 0.998089 -0.240910
O19   O     O_2   0.717494 0.693025 0.070051 -0.311601
O20   O     O_3   0.506610 0.570619 0.025063 -0.530323
O21   O     O_2   0.771324 0.378266 0.777471 -0.401511
O22   O     O_2   0.636308 0.345117 0.880886 -0.284073
O23   O     O_3   0.605201 0.215031 0.685272 -0.611884
O24   O     O_3   0.947912 0.303846 0.880654 -0.575866
O25   O     O_2   0.713106 0.933544 0.334125 -0.296669
O26   O     O_2   0.895410 0.010171 0.288770 -0.322436
O27   O     O_3   0.728153 0.888851 0.169346 -0.472884
O28   O     O_2   0.886159 0.751896 0.791179 -0.329269
O29   O     O_2   0.120733 0.693279 0.866236 -0.240986
O30   O     O_3   0.109292 0.630422 0.700830 -0.469330
O31   O     O_2   0.840206 0.294024 0.379831 -0.323572
O32   O     O_2   0.618228 0.283824 0.445580 -0.267127
O33   O     O_3   0.807342 0.412995 0.537887 -0.456852
O34   O     O_2   0.761310 0.404670 0.283870 -0.433723
O35   O     O_3   0.540390 0.428280 0.393140 -0.414831
O36   O     O_3   0.987650 0.584030 0.344390 -0.497006
O37   O     O_3   0.640175 0.255422 0.264065 -0.574942
O38   O     O_3   0.122140 0.620560 0.549160 -0.456258
O39   O     O_3   0.577110 0.640760 0.390430 -0.469665
P1    P     P_3+3 0.592580 0.619730 0.703530 1.084465
P2    P     P_3+3 0.156500 0.273340 0.422460 1.071799
P3    P     P_3+3 0.657002 0.236418 0.596832 1.089966
P4    P     P_3+3 0.597130 0.380190 0.296460 1.127120
P5    P     P_3+3 0.541862 0.762404 0.406654 0.978054
P6    P     P_3+3 0.204934 0.448238 0.768041 1.080767
P7    P     P_3+3 0.038460 0.742315 0.576593 1.010560
P8    P     P_3+3 0.971777 0.553573 0.233027 0.936164
S1    S     S_3+6 0.540552 0.685573 0.060947 -0.087293
S2    S     S_3+6 0.770705 0.311165 0.822975 -0.123936
S3    S     S_3+6 0.826616 0.918232 0.268179 -0.089396
S4    S     S_3+6 0.005152 0.666733 0.786379 -0.081555
S5    S     S_3+6 0.787730 0.304538 0.463175 -0.036415

loop_
_geom_bond_atom_site_label_1
_geom_bond_atom_site_label_2
_ccdc_geom_bond_type
C12   H7    S    
C18   P3    S    
C14   H26   S    
C1    H4    S    
Ba1   O15   S    
C15   P1    S    
Ba1   O10   S    
C42   H55   S    
C43   N2    S    
C46   S3    S    
O32   S5    D    
C1    H15   S    
C16   H16   S    
C13   C17   A    
C20   C33   A    
H49   O20   S    
C24   C25   A    
C16   H37   S    
O2    P5    D    
C20   H33   S    
C26   C27   A    
H54   N3    S    
C22   C24   A    
Ba1   Ba2   S    
Ba1   O16   S    
O29   S4    D    
C36   C37   S    
C28   O37   S    
C19   C31   A    
O18   S1    D    
Ba2   O35   S    
C40   H42   S    
C3    H25   S    
O19   S1    D    
C39   H6    S    
C4    O23   S    
C9    H28   S    
C2    C17   A    
C37   H61   S    
C45   H20   S    
C5    P4    S    
C4    S2    S    
Ba2   O6    S    
C14   C15   A    
O8    P8    D    
O11   P6    D    
O7    P7    S    
C41   H46   S    
C19   P2    S    
C2    S4    S    
Ba1   O38   S    
O17   P3    D    
C32   S5    S    
H51   O27   S    
C7    C8    S    
O1    P1    D    
O15   P2    D    
C18   C32   A    
Ba2   O36   S    
C22   N3    S    
C4    H32   S    
O37   P4    S    
C34   H13   S    
C3    C8    S    
C36   O13   S    
Ba2   O4    S    
C18   C27   A    
Ba2   O39   S    
C37   H59   S    
C4    C16   S    
C16   H36   S    
C12   H1    S    
C5    C47   S    
C39   N1    S    
O16   P3    S    
O23   P3    S    
C6    C7    S    
C45   O9    S    
C19   C32   A    
H44   N2    S    
C25   C33   A    
Ba2   O34   S    
C43   C44   S    
C44   S1    S    
C12   O14   S    
O21   S2    D    
C28   C35   S    
C10   H29   S    
O27   S3    S    
O38   P7    S    
C40   N1    S    
Ba2   O5    S    
C45   H21   S    
C44   H19   S    
C45   C46   S    
C10   C13   S    
C21   C22   A    
C36   H45   S    
C41   H47   S    
C47   H27   S    
Ba1   O4    S    
Ba1   P1    S    
O34   P4    D    
C7    C9    S    
O14   P6    S    
O25   S3    D    
C1    C12   S    
C2    C15   A    
C1    H8    S    
C38   C39   S    
O33   S5    S    
C42   N3    S    
C11   C13   A    
O4    P1    S    
O22   S2    D    
C35   H23   S    
O3    P5    S    
Ba1   O1    S    
C46   H22   S    
C28   H39   S    
C34   H14   S    
C23   O7    S    
O30   S4    S    
O12   P2    S    
C3    C5    D    
C23   H9    S    
C42   H58   S    
Ba2   O38   S    
O39   P5    S    
Ba2   P4    S    
C25   C30   A    
C17   P6    S    
C46   H24   S    
C29   C30   A    
H50   O24   S    
C41   H48   S    
C30   H35   S    
C34   H11   S    
O20   S1    S    
C26   C31   A    
C35   H12   S    
C9    C10   D    
C31   H31   S    
C29   H30   S    
O10   P6    S    
C42   H57   S    
C38   H2    S    
O35   P4    S    
H40   N1    S    
C24   C26   A    
O31   S5    D    
C36   H56   S    
O26   S3    D    
C44   H18   S    
C27   C29   A    
C38   H3    S    
H53   O33   S    
H52   O30   S    
C43   O3    S    
O24   S2    S    
C38   O12   S    
C21   P5    S    
O5    P2    S    
C40   H43   S    
Ba1   O5    S    
Ba1   P2    S    
O36   P8    S    
C33   P7    S    
C39   H5    S    
C23   C34   S    
O13   P1    S    
C37   H60   S    
O28   S4    D    
O6    P7    D    
C41   N2    S    
C11   C14   A    
C43   H17   S    
O9    P8    S    
C20   C21   A    
C35   H34   S    
Ba1   O35   S    
C23   H10   S    
C40   H41   S    
C28   H38   S    
C6    C47   D    
C6    P8    S    
