data_mof_unit_33716.cif
_audit_creation_date              2013-03-05T15:45:40-0500
_audit_creation_method            fapswitch 2.2
_symmetry_space_group_name_H-M    P1
_symmetry_Int_Tables_number       1
_space_group_crystal_system       triclinic
_cell_length_a                    15.063697
_cell_length_b                    10.969313
_cell_length_c                    9.839182
_cell_angle_alpha                 110.134341
_cell_angle_beta                  98.997935
_cell_angle_gamma                 92.103177
_cell_volume                      1500.46741815

loop_
_atom_site_label
_atom_site_type_symbol
_atom_site_description
_atom_site_fract_x
_atom_site_fract_y
_atom_site_fract_z
_atom_type_partial_charge
O1    O     O_R   0.508410 0.332340 0.577400 -0.560101
O2    O     O_R   0.491590 0.667660 0.422600 -0.564114
O3    O     O_R   0.481780 0.295500 0.332650 -0.547778
O4    O     O_R   0.518220 0.704500 0.667350 -0.544646
C1    C     C_R   0.492375 0.253691 0.442604 0.837363
C2    C     C_R   0.498654 0.744462 0.557645 0.862680
O5    O     O_R   0.383570 0.518390 0.622380 -0.626601
O6    O     O_R   0.616430 0.481610 0.377620 -0.578165
O7    O     O_R   0.356940 0.481550 0.377630 -0.500858
O8    O     O_R   0.643060 0.518450 0.622370 -0.582382
C3    C     C_R   0.328757 0.497962 0.500277 0.877897
C4    C     C_R   0.671283 0.503098 0.500695 0.858406
Cu1   Cu    Cu3+1 0.515770 0.521810 0.644910 1.048048
Cu2   Cu    Cu3+1 0.484230 0.478190 0.355090 1.108183
C5    C     C_R   0.823628 0.620022 0.540162 0.405262
C6    C     C_R   0.174820 0.378817 0.444007 0.398102
C7    C     C_R   0.768407 0.502499 0.504252 -0.255169
C8    C     C_R   0.232410 0.496311 0.505794 -0.242637
C9    C     C_R   0.806649 0.384397 0.486404 0.439990
C10   C     C_R   0.200115 0.612297 0.588012 0.453842
C11   C     C_R   0.900267 0.379844 0.485772 -0.109839
C12   C     C_R   0.106382 0.617091 0.585316 -0.110377
C13   C     C_R   0.956390 0.499150 0.533651 -0.153416
C14   C     C_R   0.049984 0.498114 0.534324 -0.149171
C15   C     C_R   0.918152 0.619683 0.571004 -0.084752
C16   C     C_R   0.086342 0.378121 0.474538 -0.090673
C17   C     C_R   0.938572 0.259435 0.439314 0.399878
C18   C     C_R   0.068773 0.737726 0.631684 0.409075
C19   C     C_R   0.032130 0.259418 0.439377 0.432664
C20   C     C_R   0.975163 0.738415 0.630351 0.431314
C21   C     C_2   0.480195 0.113835 0.416046 -0.424223
C22   C     C_2   0.493889 0.882513 0.585567 -0.381611
C23   C     C_2   0.457724 0.067836 0.518571 0.238699
C24   C     C_2   0.446242 0.927286 0.487589 0.296863
H1    H     H_    0.535955 0.949506 0.685373 0.178099
H2    H     H_    0.487036 0.046721 0.308297 0.211535
H3    H     H_    0.441595 0.414564 0.844884 0.193571
H4    H     H_    0.569122 0.567786 0.150482 0.152183
N1    N     N_2   0.460520 0.445420 0.137370 -0.070895
N2    N     N_2   0.539480 0.554580 0.862630 -0.087512
C25   C     C_2   0.509489 0.507161 0.079823 0.084824
C26   C     C_2   0.492277 0.490284 0.919701 0.077964
O9    O     O_3   0.789716 0.725482 0.508990 -0.542221
C27   C     C_3   0.731344 0.788942 0.603884 -0.230291
H5    H     H_    0.727143 0.753779 0.696342 0.170981
H6    H     H_    0.663920 0.778647 0.536727 0.150705
H7    H     H_    0.754002 0.894773 0.651533 0.187530
O10   O     O_3   0.195360 0.273689 0.329806 -0.523054
C28   C     C_3   0.266741 0.209957 0.377430 -0.154415
H8    H     H_    0.297243 0.254124 0.496376 0.107575
H9    H     H_    0.319098 0.207514 0.309931 0.198280
H10   H     H_    0.242347 0.106879 0.353589 0.221200
O11   O     O_3   0.750664 0.272076 0.458224 -0.533893
C29   C     C_3   0.745884 0.254637 0.592811 -0.255511
H11   H     H_    0.813275 0.268778 0.664384 0.131845
H12   H     H_    0.716697 0.153446 0.568438 0.185598
H13   H     H_    0.700531 0.320990 0.654378 0.200039
O12   O     O_3   0.260158 0.722761 0.661681 -0.530756
C30   C     C_3   0.280712 0.737710 0.812229 -0.147866
H14   H     H_    0.219512 0.727621 0.859444 0.129207
H15   H     H_    0.315416 0.836834 0.875003 0.210588
H16   H     H_    0.327257 0.666488 0.830220 0.194264
O13   O     O_3   0.882350 0.144325 0.366494 -0.523975
C31   C     C_3   0.891236 0.058435 0.445738 -0.089178
H17   H     H_    0.909042 0.109071 0.567135 0.097622
H18   H     H_    0.940787 0.988280 0.405709 0.208301
H19   H     H_    0.825386 0.000019 0.423248 0.200822
O14   O     O_3   0.119855 0.850609 0.644253 -0.537283
C32   C     C_3   0.132046 0.944271 0.787937 -0.172363
H20   H     H_    0.134059 0.900995 0.875163 0.123301
H21   H     H_    0.079410 0.013206 0.795908 0.184680
H22   H     H_    0.197897 0.002557 0.809869 0.221703
O15   O     O_3   0.069626 0.141723 0.401511 -0.547929
C33   C     C_3   0.112718 0.126001 0.532255 -0.275047
H23   H     H_    0.064721 0.125409 0.606881 0.141369
H24   H     H_    0.168745 0.203471 0.593729 0.173060
H25   H     H_    0.141821 0.030887 0.502486 0.249317
O16   O     O_3   0.939494 0.856691 0.682279 -0.565261
C34   C     C_3   0.923752 0.876872 0.826234 -0.314173
H26   H     H_    0.987227 0.883901 0.903968 0.160328
H27   H     H_    0.876184 0.798344 0.829134 0.176419
H28   H     H_    0.893453 0.970408 0.867007 0.205264
N3    N     N_R   0.379242 0.844876 0.365075 0.147580
O17   O     O_R   0.358325 0.874664 0.247747 -0.381370
O18   O     O_R   0.326543 0.756702 0.382365 -0.291931
N4    N     N_R   0.448990 0.152257 0.663347 0.119129
O19   O     O_R   0.371274 0.150249 0.704872 -0.362443
O20   O     O_R   0.521429 0.198254 0.763239 -0.382571
N5    N     N_R   0.594666 0.665963 0.956171 0.228628
O21   O     O_R   0.670127 0.695082 0.920824 -0.344608
O22   O     O_R   0.562247 0.755802 0.056273 -0.353756
N6    N     N_R   0.376869 0.382539 0.056404 0.260175
O23   O     O_R   0.348034 0.274203 0.068367 -0.295066
O24   O     O_R   0.319092 0.445559 0.000276 -0.362069

loop_
_geom_bond_atom_site_label_1
_geom_bond_atom_site_label_2
_geom_bond_distance
_ccdc_geom_bond_type
C2    C22   1.449668 S    
C3    C8    1.460500 S    
C17   C19   1.409231 A    
C25   C26   1.500507 S    
O9    C27   1.408467 S    
C6    O10   1.389608 S    
N1    C25   1.296685 D    
O11   C29   1.413702 S    
O5    C3    1.290781 A    
C33   H24   1.110906 S    
O1    C1    1.287802 A    
C9    C11   1.413855 A    
C14   C16   1.413905 A    
N4    O20   1.301544 A    
C5    C15   1.409099 A    
C19   O15   1.383056 S    
H3    C26   1.082311 S    
O15   C33   1.416227 S    
O4    Cu1   1.937388 S    
C32   H21   1.108717 S    
Cu1   N2    2.016647 S    
Cu2   N1    2.016647 S    
O14   C32   1.411712 S    
C28   H9    1.103161 S    
C33   H25   1.108994 S    
C4    C7    1.458300 S    
C13   C14   1.409343 A    
C21   C23   1.353316 D    
N2    N5    1.393883 S    
N5    O22   1.302793 A    
C27   H7    1.109111 S    
C9    O11   1.386196 S    
N2    C26   1.295789 D    
C11   C17   1.417463 A    
C30   H14   1.113485 S    
C12   C18   1.414365 A    
Cu1   Cu2   2.684482 S    
O2    C2    1.290407 A    
C27   H6    1.100551 S    
C6    C16   1.411640 A    
C29   H12   1.109428 S    
C30   H15   1.109936 S    
C33   H23   1.109474 S    
C31   H19   1.109318 S    
H4    C25   1.083981 S    
O4    C2    1.296089 A    
C34   H27   1.110979 S    
N4    O19   1.300708 A    
O12   C30   1.415091 S    
O13   C31   1.412741 S    
C22   C24   1.349481 D    
C32   H22   1.109426 S    
O7    Cu2   1.964628 S    
C22   H1    1.086400 S    
N3    O17   1.300841 A    
O6    C4    1.296511 A    
C28   H10   1.108362 S    
N6    O24   1.302689 A    
C23   C24   1.462936 S    
O7    C3    1.298148 A    
O3    Cu2   1.937390 S    
O8    C4    1.291520 A    
O10   C28   1.409826 S    
N3    O18   1.301451 A    
C10   C12   1.411319 A    
C11   C13   1.420972 A    
C12   C14   1.418189 A    
O1    Cu1   1.944916 S    
C24   N3    1.446089 S    
C10   O12   1.386193 S    
N1    N6    1.393609 S    
C27   H5    1.112728 S    
C15   C20   1.418531 A    
C5    C7    1.412252 A    
C29   H11   1.113624 S    
C30   H16   1.109004 S    
O6    Cu2   1.966472 S    
C18   O14   1.391235 S    
O16   C34   1.415796 S    
O3    C1    1.303519 A    
O8    Cu1   1.964628 S    
C34   H28   1.109172 S    
C31   H17   1.113227 S    
C18   C20   1.408448 A    
C5    O9    1.389917 S    
N6    O23   1.299676 A    
C7    C9    1.403849 A    
C8    C10   1.403480 A    
C13   C15   1.415113 A    
C32   H20   1.111853 S    
O2    Cu2   1.944916 S    
C34   H26   1.109249 S    
C20   O16   1.383357 S    
O5    Cu1   1.966472 S    
C16   C19   1.416143 A    
C6    C8    1.413078 A    
C28   H8    1.113830 S    
C21   H2    1.085803 S    
C17   O13   1.390632 S    
N5    O21   1.299464 A    
C23   N4    1.436459 S    
C31   H18   1.109021 S    
C1    C21   1.464186 S    
C29   H13   1.107185 S    
