data_mof_unit_62423.cif
_audit_creation_date              2012-12-10T18:16:57-0500
_audit_creation_method            fapswitch 2.2
_symmetry_space_group_name_H-M    P1
_symmetry_Int_Tables_number       1
_space_group_crystal_system       orthorhombic
_cell_length_a                    29.179634
_cell_length_b                    29.179629
_cell_length_c                    38.815919
_cell_angle_alpha                 90.0
_cell_angle_beta                  90.0
_cell_angle_gamma                 90.0
_cell_volume                      33049.8489524

loop_
_atom_site_label
_atom_site_type_symbol
_atom_type_description
_atom_site_fract_x
_atom_site_fract_y
_atom_site_fract_z
_atom_type_partial_charge
C1    C     C_R   0.500000 0.913184 0.000000 0.910169
C2    C     C_1   0.229429 0.500000 0.000000 0.027002
C3    C     C_R   1.000000 0.500000 0.894367 -0.243350
C4    C     C_R   0.000000 0.500000 0.605633 -0.243351
C5    C     C_R   0.500000 0.000000 0.605633 -0.243350
C6    C     C_R   0.000000 0.500000 0.394367 -0.243351
C7    C     C_R   0.500000 0.000000 0.394367 -0.243351
C8    C     C_R   0.500000 0.000000 0.284770 0.371912
C9    C     C_R   0.000000 0.500000 0.284770 0.371912
C10   C     C_R   0.500000 0.000000 0.715230 0.371912
C11   C     C_R   0.000000 0.500000 0.715230 0.371912
C12   C     C_R   0.000000 0.500000 0.784770 0.371912
C13   C     C_1   0.500000 0.229429 0.000000 0.027002
C14   C     C_R   0.500000 0.000000 0.784770 0.371912
C15   C     C_R   0.000000 0.500000 0.215230 0.371912
C16   C     C_R   0.500000 0.000000 0.215230 0.371912
C17   C     C_1   0.500000 0.862545 0.000000 -0.197879
C18   C     C_1   0.137455 0.500000 0.000000 -0.197879
C19   C     C_1   0.500000 0.137455 0.000000 -0.197879
C20   C     C_1   0.862545 0.500000 0.000000 -0.197879
C21   C     C_1   0.000000 0.362545 0.500000 -0.197879
C22   C     C_1   0.637455 0.000000 0.500000 -0.197879
C23   C     C_1   0.000000 0.637455 0.500000 -0.197879
C24   C     C_1   0.770571 0.500000 0.000000 0.027002
C25   C     C_1   0.362545 0.000000 0.500000 -0.197879
C26   C     C_1   0.500000 0.820362 0.000000 0.023530
C27   C     C_1   0.179638 0.500000 0.000000 0.023530
C28   C     C_1   0.500000 0.179638 0.000000 0.023530
C29   C     C_1   0.820362 0.500000 0.000000 0.023530
C30   C     C_1   0.000000 0.320362 0.500000 0.023530
C31   C     C_1   0.679638 0.000000 0.500000 0.023530
C32   C     C_1   1.000000 0.679638 0.500000 0.023530
C33   C     C_1   0.320362 0.000000 0.500000 0.023530
C34   C     C_1   0.000000 0.270571 0.500000 0.027002
C35   C     C_1   0.729429 0.000000 0.500000 0.027002
C36   C     C_1   0.000000 0.729429 0.500000 0.027002
C37   C     C_1   0.270571 0.000000 0.500000 0.027002
C38   C     C_1   0.500000 0.728388 0.000000 0.024813
C39   C     C_1   0.271612 0.500000 0.000000 0.024813
C40   C     C_1   0.500000 0.271612 0.000000 0.024813
C41   C     C_R   0.086816 0.500000 0.000000 0.910168
C42   C     C_1   0.728388 0.500000 0.000000 0.024813
C43   C     C_1   0.000000 0.228388 0.500000 0.024813
C44   C     C_1   0.771612 0.000000 0.500000 0.024813
C45   C     C_1   0.000000 0.771612 0.500000 0.024813
C46   C     C_1   0.228388 0.000000 0.500000 0.024813
C47   C     C_1   0.500000 0.678597 0.000000 0.020226
C48   C     C_1   0.321403 0.500000 0.000000 0.020226
C49   C     C_1   0.500000 0.321403 0.000000 0.020226
C50   C     C_1   0.678597 0.500000 0.000000 0.020226
C51   C     C_1   1.000000 0.178597 0.500000 0.020226
C52   C     C_R   0.500000 0.086816 0.000000 0.910169
C53   C     C_1   0.821403 0.000000 0.500000 0.020226
C54   C     C_1   0.000000 0.821403 0.500000 0.020226
C55   C     C_1   0.178597 0.000000 0.500000 0.020226
C56   C     C_1   0.500000 0.636413 0.000000 -0.184980
C57   C     C_1   0.363587 0.500000 0.000000 -0.184980
C58   C     C_1   0.500000 0.363587 0.000000 -0.184980
C59   C     C_1   0.636413 0.500000 0.000000 -0.184980
C60   C     C_1   0.000000 0.136413 0.500000 -0.184980
C61   C     C_1   0.863587 0.000000 0.500000 -0.184980
C62   C     C_1   0.000000 0.863587 0.500000 -0.184980
C63   C     C_R   0.913184 0.500000 0.000000 0.910169
C64   C     C_1   0.136413 0.000000 0.500000 -0.184980
C65   C     C_R   0.414227 0.500000 0.000000 0.876840
C66   C     C_R   0.500000 0.414227 0.000000 0.876840
C67   C     C_R   0.585773 0.500000 0.000000 0.876839
C68   C     C_R   0.500000 0.585773 0.000000 0.876839
C69   C     C_R   0.914227 0.000000 0.500000 0.876840
C70   C     C_R   1.000000 0.914227 0.500000 0.876840
C71   C     C_R   0.085773 0.000000 0.500000 0.876839
C72   C     C_R   1.000000 0.085773 0.500000 0.876839
C73   C     C_R   0.500000 0.000000 0.068078 0.972243
C74   C     C_R   0.000000 0.413184 0.500000 0.910169
C75   C     C_R   0.000000 0.500000 0.068078 0.972243
C76   C     C_R   0.500000 0.000000 0.931922 0.972244
C77   C     C_R   1.000000 0.500000 0.931922 0.972244
C78   C     C_R   0.000000 0.500000 0.568078 0.972243
C79   C     C_R   0.500000 0.000000 0.568078 0.972243
C80   C     C_R   0.000000 0.500000 0.431922 0.972244
C81   C     C_R   0.500000 0.000000 0.431922 0.972244
C82   C     C_R   0.458965 0.993358 0.123671 -0.265709
C83   C     C_R   0.006642 0.458965 0.123671 -0.265710
C84   C     C_R   0.541034 0.006642 0.123671 -0.265710
C85   C     C_R   0.586816 0.000000 0.500000 0.910168
C86   C     C_R   0.993358 0.541034 0.123671 -0.265710
C87   C     C_R   0.458965 0.006642 0.876329 -0.265710
C88   C     C_R   0.006642 0.541034 0.876329 -0.265710
C89   C     C_R   0.541034 0.993358 0.876329 -0.265710
C90   C     C_R   0.993358 0.458965 0.876329 -0.265710
C91   C     C_R   0.958965 0.493358 0.623671 -0.265709
C92   C     C_R   0.506642 0.958965 0.623671 -0.265710
C93   C     C_R   0.041035 0.506642 0.623671 -0.265710
C94   C     C_R   0.493358 0.041035 0.623671 -0.265710
C95   C     C_R   0.958965 0.506642 0.376329 -0.265709
C96   C     C_R   1.000000 0.586816 0.500000 0.910168
C97   C     C_R   0.506642 0.041035 0.376329 -0.265710
C98   C     C_R   0.041035 0.493358 0.376329 -0.265709
C99   C     C_R   0.493358 0.958965 0.376329 -0.265710
C100  C     C_R   0.458894 0.993106 0.159474 0.620011
C101  C     C_R   0.006894 0.458894 0.159474 0.620012
C102  C     C_R   0.541106 0.006894 0.159474 0.620011
C103  C     C_R   0.993106 0.541106 0.159474 0.620012
C104  C     C_R   0.458894 0.006894 0.840526 0.620012
C105  C     C_R   0.006894 0.541106 0.840526 0.620012
C106  C     C_R   0.541106 0.993106 0.840526 0.620012
C107  C     C_R   0.413184 0.000000 0.500000 0.910169
C108  C     C_R   0.993106 0.458894 0.840526 0.620012
C109  C     C_R   0.958894 0.493106 0.659474 0.620011
C110  C     C_R   0.506894 0.958894 0.659474 0.620012
C111  C     C_R   0.041106 0.506894 0.659474 0.620011
C112  C     C_R   0.493106 0.041106 0.659474 0.620012
C113  C     C_R   0.958894 0.506894 0.340526 0.620011
C114  C     C_R   0.506894 0.041106 0.340526 0.620012
C115  C     C_R   0.041106 0.493106 0.340526 0.620011
C116  C     C_R   0.493106 0.958894 0.340526 0.620012
C117  C     C_R   0.500000 0.000000 0.177615 -0.211598
C118  C     C_1   0.500000 0.770571 0.000000 0.027002
C119  C     C_R   1.000000 0.500000 0.177615 -0.211598
C120  C     C_R   0.500000 1.000000 0.822385 -0.211598
C121  C     C_R   1.000000 0.500000 0.822385 -0.211598
C122  C     C_R   0.000000 0.500000 0.677615 -0.211598
C123  C     C_R   0.500000 0.000000 0.677615 -0.211598
C124  C     C_R   0.000000 0.500000 0.322385 -0.211598
C125  C     C_R   0.500000 0.000000 0.322385 -0.211598
C126  C     C_R   0.500000 0.000000 0.105633 -0.243351
C127  C     C_R   0.000000 0.500000 0.105633 -0.243350
C128  C     C_R   0.500000 0.000000 0.894367 -0.243350
F1    F     F_    0.418514 0.987248 0.176292 -0.622235
F2    F     F_    0.512752 0.918514 0.676292 -0.622236
F3    F     F_    0.081486 0.512752 0.676292 -0.622235
F4    F     F_    0.487248 0.081486 0.676292 -0.622236
F5    F     F_    0.918514 0.512752 0.323708 -0.622235
F6    F     F_    0.512752 0.081486 0.323708 -0.622236
F7    F     F_    0.081486 0.487248 0.323708 -0.622235
F8    F     F_    0.487248 0.918514 0.323708 -0.622236
F9    F     F_    0.012752 0.418514 0.176292 -0.622236
F10   F     F_    0.581486 0.012752 0.176292 -0.622235
F11   F     F_    0.987248 0.581486 0.176292 -0.622236
F12   F     F_    0.418514 0.012752 0.823708 -0.622236
F13   F     F_    0.012752 0.581486 0.823708 -0.622236
F14   F     F_    0.581486 0.987248 0.823708 -0.622236
F15   F     F_    0.987248 0.418514 0.823708 -0.622236
F16   F     F_    0.918514 0.487248 0.676292 -0.622235
H1    H     H_    0.426953 0.988232 0.110070 0.202712
H2    H     H_    0.511768 0.926953 0.610070 0.202712
H3    H     H_    0.073046 0.511768 0.610070 0.202712
H4    H     H_    0.488232 0.073047 0.610070 0.202712
H5    H     H_    0.926953 0.511768 0.389930 0.202712
H6    H     H_    0.511768 0.073047 0.389930 0.202712
H7    H     H_    0.073046 0.488232 0.389930 0.202712
H8    H     H_    0.488232 0.926953 0.389930 0.202712
H9    H     H_    0.011768 0.426953 0.110070 0.202712
H10   H     H_    0.573046 0.011768 0.110070 0.202712
H11   H     H_    0.988232 0.573047 0.110070 0.202712
H12   H     H_    0.426953 0.011768 0.889930 0.202712
H13   H     H_    0.011768 0.573047 0.889930 0.202712
H14   H     H_    0.573046 0.988232 0.889930 0.202712
H15   H     H_    0.988232 0.426953 0.889930 0.202712
H16   H     H_    0.926953 0.488232 0.610070 0.202712
N1    N     N_R   0.528366 0.028302 0.232894 -0.080866
N2    N     N_R   0.471698 0.028366 0.732894 -0.080866
N3    N     N_R   0.971634 0.471698 0.732894 -0.080866
N4    N     N_R   0.528302 0.971634 0.732894 -0.080866
N5    N     N_R   0.028366 0.471698 0.267106 -0.080866
N6    N     N_R   0.471698 0.971634 0.267106 -0.080866
N7    N     N_R   0.971634 0.528302 0.267106 -0.080866
N8    N     N_R   0.528302 0.028366 0.267106 -0.080866
N9    N     N_R   0.971698 0.528366 0.232894 -0.080866
N10   N     N_R   0.471634 0.971698 0.232894 -0.080866
N11   N     N_R   0.028302 0.471634 0.232894 -0.080866
N12   N     N_R   0.528366 0.971698 0.767106 -0.080866
N13   N     N_R   0.971698 0.471634 0.767106 -0.080866
N14   N     N_R   0.471634 0.028302 0.767106 -0.080866
N15   N     N_R   0.028302 0.528366 0.767106 -0.080866
N16   N     N_R   0.028366 0.528302 0.732894 -0.080866
O1    O     O_R   0.535610 0.936800 0.000040 -0.597241
O2    O     O_R   0.563200 0.035610 0.500040 -0.597241
O3    O     O_R   0.964390 0.563200 0.500040 -0.597241
O4    O     O_R   0.436800 0.964390 0.500040 -0.597241
O5    O     O_R   0.035610 0.563200 0.499960 -0.597241
O6    O     O_R   0.563200 0.964390 0.499960 -0.597241
O7    O     O_R   0.964390 0.436800 0.499960 -0.597241
O8    O     O_R   0.436800 0.035610 0.499960 -0.597241
O9    O     O_R   0.535610 0.999940 0.050970 -0.615770
O10   O     O_R   0.000060 0.535610 0.050970 -0.615770
O11   O     O_R   0.464390 0.000060 0.050970 -0.615770
O12   O     O_R   0.063200 0.535610 0.000040 -0.597241
O13   O     O_R   0.999940 0.464390 0.050970 -0.615770
O14   O     O_R   0.535610 0.000060 0.949030 -0.615770
O15   O     O_R   0.000060 0.464390 0.949030 -0.615770
O16   O     O_R   0.464390 0.999940 0.949030 -0.615770
O17   O     O_R   0.999940 0.535610 0.949030 -0.615770
O18   O     O_R   0.035610 0.499940 0.550970 -0.615770
O19   O     O_R   0.500060 0.035610 0.550970 -0.615770
O20   O     O_R   0.964390 0.500060 0.550970 -0.615770
O21   O     O_R   0.499940 0.964390 0.550970 -0.615770
O22   O     O_R   0.035610 0.500060 0.449030 -0.615770
O23   O     O_R   0.464390 0.063200 0.000040 -0.597241
O24   O     O_R   0.500060 0.964390 0.449030 -0.615770
O25   O     O_R   0.964390 0.499940 0.449030 -0.615770
O26   O     O_R   0.499940 0.035610 0.449030 -0.615770
O27   O     O_R   0.436800 0.499970 0.028810 -0.588627
O28   O     O_R   0.500030 0.436800 0.028810 -0.588627
O29   O     O_R   0.563200 0.500030 0.028810 -0.588627
O30   O     O_R   0.499970 0.563200 0.028810 -0.588627
O31   O     O_R   0.436800 0.500030 0.971190 -0.588626
O32   O     O_R   0.500030 0.563200 0.971190 -0.588626
O33   O     O_R   0.563200 0.499970 0.971190 -0.588626
O34   O     O_R   0.936800 0.464390 0.000040 -0.597241
O35   O     O_R   0.499970 0.436800 0.971190 -0.588626
O36   O     O_R   0.936800 0.999970 0.528810 -0.588627
O37   O     O_R   0.000030 0.936800 0.528810 -0.588627
O38   O     O_R   0.063200 0.000030 0.528810 -0.588627
O39   O     O_R   0.999970 0.063200 0.528810 -0.588627
O40   O     O_R   0.936800 0.000030 0.471190 -0.588626
O41   O     O_R   0.000030 0.063200 0.471190 -0.588626
O42   O     O_R   0.063200 0.999970 0.471190 -0.588626
O43   O     O_R   0.999970 0.936800 0.471190 -0.588626
O44   O     O_R   0.535610 0.063200 0.999960 -0.597241
O45   O     O_R   0.063200 0.464390 0.999960 -0.597241
O46   O     O_R   0.464390 0.936800 0.999960 -0.597241
O47   O     O_R   0.936800 0.535610 0.999960 -0.597241
O48   O     O_R   0.035610 0.436800 0.500040 -0.597241
Zn1   Zn    Zn3+2 0.547570 0.000000 0.000000 1.003855
Zn2   Zn    Zn3+2 0.500000 0.500000 0.961560 1.005334
Zn3   Zn    Zn3+2 0.000000 0.000000 0.538440 1.005333
Zn4   Zn    Zn3+2 0.000000 0.000000 0.461560 1.005334
Zn5   Zn    Zn3+2 0.000000 0.547570 0.000000 1.003855
Zn6   Zn    Zn3+2 0.452430 0.000000 0.000000 1.003855
Zn7   Zn    Zn3+2 0.000000 0.452430 0.000000 1.003855
Zn8   Zn    Zn3+2 0.047570 0.500000 0.500000 1.003855
Zn9   Zn    Zn3+2 0.500000 0.047570 0.500000 1.003855
Zn10  Zn    Zn3+2 0.952430 0.500000 0.500000 1.003855
Zn11  Zn    Zn3+2 0.500000 0.952430 0.500000 1.003855
Zn12  Zn    Zn3+2 0.500000 0.500000 0.038440 1.005333

loop_
_geom_bond_atom_site_label_1
_geom_bond_atom_site_label_2
_ccdc_geom_bond_type
N5    N11   A    
C85   O6    A    
C79   O21   A    
C107  O4    A    
O14   Zn1   S    
C24   C42   T    
O24   Zn11  S    
O17   Zn5   S    
C108  C121  A    
C92   C110  A    
C81   O24   A    
C5    C94   A    
O21   Zn11  S    
C89   H14   S    
N7    N9    A    
O10   Zn5   S    
O16   Zn6   S    
C72   O41   A    
C15   N9    A    
C11   N16   A    
O40   Zn4   S    
C71   O42   A    
C7    C99   A    
C3    C90   A    
O37   Zn3   S    
C17   C26   T    
C32   C36   S    
O41   Zn4   S    
C73   C126  S    
C75   O13   A    
O23   Zn6   S    
O48   Zn8   S    
C102  F10   S    
O22   Zn8   S    
C109  C122  A    
C22   C85   S    
C60   C72   S    
O5    Zn8   S    
C40   C49   S    
C74   O48   A    
C9    C124  S    
C79   O19   A    
C23   C96   S    
C62   C70   S    
O30   Zn12  S    
C78   O18   A    
C64   C71   S    
C90   H15   S    
C77   O17   A    
C24   C29   S    
C82   C126  A    
C13   C40   T    
C8    N8    A    
O32   Zn2   S    
O36   Zn3   S    
C84   H10   S    
C44   C53   S    
C58   C66   S    
O15   Zn7   S    
C12   C121  S    
N15   N16   A    
O4    Zn11  S    
C85   O2    A    
O35   Zn2   S    
C89   C106  A    
C68   O32   A    
C97   H6    S    
C106  C120  A    
C13   C28   S    
C67   O33   A    
C2    C27   S    
C95   H5    S    
O43   Zn4   S    
C5    C79   S    
C7    C97   A    
N2    N14   A    
C96   O5    A    
C75   C127  S    
C67   O29   A    
C84   C102  A    
C20   C29   T    
C4    C91   A    
C66   O28   A    
O20   Zn10  S    
C3    C88   A    
O9    Zn1   S    
C10   N2    A    
C113  F5    S    
C111  C122  A    
C84   C126  A    
O11   Zn6   S    
C69   O40   A    
C1    O1    A    
O3    Zn10  S    
C86   C103  A    
C19   C52   S    
O42   Zn4   S    
C87   C128  A    
C73   O11   A    
C106  F14   S    
C98   H7    S    
C94   H4    S    
C52   O44   A    
C22   C31   T    
C30   C34   S    
C92   H2    S    
C101  C119  A    
C63   O47   A    
C48   C57   T    
C112  C123  A    
C14   N12   A    
C10   C123  S    
C18   C41   S    
C83   C127  A    
C99   C116  A    
C52   O23   A    
C114  C125  A    
C101  F9    S    
C100  F1    S    
C74   O7    A    
C54   C62   T    
C56   C68   S    
C21   C74   S    
C33   C37   S    
C49   C58   T    
C104  F12   S    
C41   O12   A    
C1    O46   A    
C12   N13   A    
C77   O15   A    
C46   C55   S    
C98   C115  A    
C86   H11   S    
C97   C114  A    
C4    C78   S    
C76   O16   A    
C103  F11   S    
C110  C123  A    
O19   Zn9   S    
C2    C39   T    
C59   C67   S    
C6    C80   S    
C80   O25   A    
C65   O27   A    
C9    N7    A    
O34   Zn7   S    
C80   O22   A    
C55   C64   T    
O45   Zn7   S    
C11   N3    A    
C91   H16   S    
C15   N11   A    
C36   C45   T    
C69   O36   A    
C78   O20   A    
C88   H13   S    
C112  F4    S    
O38   Zn3   S    
C35   C44   T    
C38   C47   S    
C102  C117  A    
C8    N6    A    
O6    Zn11  S    
C93   C111  A    
C12   N15   A    
C65   O31   A    
C111  F3    S    
C7    C81   S    
C42   C50   S    
C45   C54   S    
N6    N10   A    
C14   C120  S    
C116  C125  A    
C19   C28   T    
C76   C128  S    
C31   C35   S    
N4    N12   A    
C11   C122  S    
C51   C60   T    
O33   Zn2   S    
C50   C59   T    
C63   O34   A    
C53   C61   T    
O12   Zn5   S    
C3    C77   S    
C6    C98   A    
C82   H1    S    
C25   C107  S    
C21   C30   T    
C61   C69   S    
C10   N4    A    
C115  C124  A    
C83   C101  A    
O13   Zn7   S    
C86   C127  A    
C70   O37   A    
C82   C100  A    
O29   Zn12  S    
C103  C119  A    
C34   C43   T    
C26   C118  S    
C57   C65   S    
C83   H9    S    
C75   O10   A    
O2    Zn9   S    
C73   O9    A    
C81   O26   A    
C116  F8    S    
C16   N1    A    
C71   O38   A    
C99   H8    S    
C110  F2    S    
C1    C17   S    
C70   O43   A    
C5    C92   A    
C107  O8    A    
C18   C27   T    
C23   C32   T    
C91   C109  A    
C20   C63   S    
C9    N5    A    
C87   C104  A    
C37   C46   T    
C90   C108  A    
O27   Zn12  S    
O28   Zn12  S    
C16   C117  S    
O26   Zn9   S    
C68   O30   A    
C88   C105  A    
C43   C51   S    
O25   Zn10  S    
C113  C124  A    
C115  F7    S    
C95   C113  A    
C94   C112  A    
C114  F6    S    
C15   C119  S    
O44   Zn1   S    
C93   H3    S    
C109  F16   S    
O39   Zn3   S    
C96   O3    A    
C105  F13   S    
O8    Zn9   S    
N1    N8    A    
C76   O14   A    
O7    Zn10  S    
O1    Zn1   S    
C4    C93   A    
C38   C118  T    
C16   N10   A    
C8    C125  S    
C72   O39   A    
O46   Zn6   S    
C14   N14   A    
C6    C95   A    
C105  C121  A    
C87   H12   S    
C39   C48   S    
C100  C117  A    
O18   Zn8   S    
C66   O35   A    
C108  F15   S    
C41   O45   A    
O47   Zn5   S    
O31   Zn2   S    
C25   C33   T    
C47   C56   T    
C104  C120  A    
C89   C128  A    
N3    N13   A    
