data_mof_unit_49730.cif
_audit_creation_date              2012-12-10T18:54:19-0500
_audit_creation_method            fapswitch 2.2
_symmetry_space_group_name_H-M    P1
_symmetry_Int_Tables_number       1
_space_group_crystal_system       triclinic
_cell_length_a                    10.769302
_cell_length_b                    9.796107
_cell_length_c                    23.433332
_cell_angle_alpha                 89.99592
_cell_angle_beta                  90.058528
_cell_angle_gamma                 89.822585
_cell_volume                      2472.13857765

loop_
_atom_site_label
_atom_site_type_symbol
_atom_type_description
_atom_site_fract_x
_atom_site_fract_y
_atom_site_fract_z
_atom_type_partial_charge
C1    C     C_R   0.259558 0.500529 0.501412 1.004911
C2    C     C_R   0.740086 0.500203 0.504031 0.991705
C3    C     C_R   0.501859 0.376111 0.237801 -0.096539
C4    C     C_R   0.497957 0.623541 0.762207 -0.103807
C5    C     C_R   0.502146 0.375912 0.297024 -0.214965
C6    C     C_R   0.499140 0.623912 0.702987 -0.232643
C7    C     C_R   0.500077 0.500015 0.326989 -0.035910
C8    C     C_R   0.498227 0.499878 0.672971 -0.030528
C9    C     C_R   0.497888 0.624120 0.297015 -0.202172
C10   C     C_R   0.495676 0.375692 0.702865 -0.223837
C11   C     C_R   0.497544 0.623914 0.237791 -0.097416
C12   C     C_R   0.494674 0.375732 0.762079 -0.105885
C13   C     C_R   0.499475 0.500008 0.208287 0.316542
C14   C     C_R   0.495966 0.499549 0.791628 0.325097
C15   C     C_R   0.065493 0.383413 0.525561 0.366586
C16   C     C_R   0.935712 0.628481 0.509663 0.393262
C17   C     C_R   0.937299 0.379572 0.522063 0.373599
C18   C     C_R   0.062532 0.627042 0.501152 0.383295
C19   C     C_R   0.872316 0.502467 0.512675 -0.430223
C20   C     C_R   0.127353 0.503016 0.508459 -0.431578
C21   C     C_R   0.453569 0.072223 0.545396 -0.039451
C22   C     C_R   0.547654 0.927777 0.454863 -0.034593
C23   C     C_R   0.547691 0.071905 0.454872 -0.088236
C24   C     C_R   0.454149 0.928119 0.545524 -0.128768
C25   C     C_R   0.500063 0.500005 0.389211 0.876526
C26   C     C_R   0.499613 0.499984 0.610778 0.838624
C27   C     C_R   0.602739 0.463217 0.880355 0.503705
C28   C     C_R   0.392394 0.535879 0.119530 0.505661
C29   C     C_R   0.390286 0.535532 0.880604 0.501661
C30   C     C_R   0.604950 0.463940 0.119250 0.504536
C31   C     C_R   0.388506 0.536458 0.940190 -0.014413
C32   C     C_R   0.606642 0.462807 0.059672 -0.015707
C33   C     C_R   0.497284 0.499501 0.969960 -0.021385
C34   C     C_R   0.497835 0.499658 0.029910 -0.021353
C35   C     C_R   0.605531 0.462425 0.939923 -0.015703
C36   C     C_R   0.389588 0.536682 0.059953 -0.016630
C37   C     C_R   0.281109 0.573065 0.970508 -0.158618
C38   C     C_R   0.714031 0.426159 0.029357 -0.156480
C39   C     C_R   0.281639 0.573152 0.029911 -0.156378
C40   C     C_R   0.713474 0.425947 0.969959 -0.158430
H1    H     H_    0.196472 0.601708 0.948485 0.194194
H2    H     H_    0.798687 0.397571 0.051376 0.195219
H3    H     H_    0.197389 0.601856 0.052151 0.195406
H4    H     H_    0.797716 0.397210 0.947721 0.194289
H5    H     H_    0.503159 0.280312 0.214743 0.141820
H6    H     H_    0.499186 0.719236 0.785335 0.138450
H7    H     H_    0.503922 0.278941 0.319223 0.158445
H8    H     H_    0.501011 0.720926 0.680831 0.154253
H9    H     H_    0.496337 0.721091 0.319210 0.160102
H10   H     H_    0.494552 0.278786 0.680619 0.155557
H11   H     H_    0.495970 0.719707 0.214724 0.141828
H12   H     H_    0.492919 0.279902 0.785105 0.138305
H13   H     H_    0.416129 0.127032 0.581557 0.124163
H14   H     H_    0.585980 0.872948 0.418878 0.135755
H15   H     H_    0.586174 0.126486 0.418919 0.125060
H16   H     H_    0.416672 0.873582 0.581710 0.125225
N1    N     N_R   0.496279 0.499352 0.852292 -0.359970
N2    N     N_R   0.498937 0.499981 0.147598 -0.360320
N3    N     N_R   0.500000 0.857200 0.500000 -0.075543
N4    N     N_R   0.500000 0.142800 0.500000 -0.071384
O1    O     O_R   0.316770 0.614620 0.500000 -0.586157
O2    O     O_R   0.683230 0.385380 0.500000 -0.582247
O3    O     O_R   0.683230 0.614620 0.500000 -0.575885
O4    O     O_R   0.316770 0.385380 0.500000 -0.569697
O5    O     O_R   0.499970 0.614690 0.416160 -0.624995
O6    O     O_R   0.500030 0.385310 0.583840 -0.630092
O7    O     O_R   0.500030 0.614690 0.583840 -0.648453
O8    O     O_R   0.499970 0.385310 0.416160 -0.637762
O9    O     O_2   0.705441 0.429062 0.850551 -0.552718
O10   O     O_2   0.289613 0.569759 0.149327 -0.545193
O11   O     O_2   0.287126 0.569685 0.851042 -0.556588
O12   O     O_2   0.708282 0.430212 0.148774 -0.548198
Zn1   Zn    Zn3+2 0.500000 0.653120 0.500000 0.970775
Zn2   Zn    Zn3+2 0.500000 0.346880 0.500000 0.981269
O13   O     O_3   0.129285 0.266198 0.540995 -0.576159
C41   C     C_3   0.146205 0.267745 0.600656 -0.250819
H17   H     H_    0.205432 0.355055 0.614049 0.143419
H18   H     H_    0.194478 0.172341 0.613424 0.161045
H19   H     H_    0.055713 0.270629 0.623575 0.180820
O14   O     O_3   0.874163 0.752770 0.508432 -0.562700
C42   C     C_3   0.847035 0.791475 0.565284 -0.276081
H20   H     H_    0.783331 0.718171 0.586486 0.172608
H21   H     H_    0.799995 0.892343 0.564628 0.192668
H22   H     H_    0.932778 0.801549 0.591430 0.126960
O15   O     O_3   0.875692 0.258304 0.532978 -0.573999
C43   C     C_3   0.883701 0.173602 0.484313 -0.174003
H23   H     H_    0.979937 0.135939 0.477508 0.187640
H24   H     H_    0.823859 0.083159 0.491135 0.181071
H25   H     H_    0.849561 0.226465 0.445217 0.138674
O16   O     O_3   0.119185 0.739970 0.476671 -0.554677
C44   C     C_3   0.140350 0.841932 0.518106 -0.153624
H26   H     H_    0.217650 0.906859 0.503041 0.185146
H27   H     H_    0.167271 0.799804 0.560578 0.106084
H28   H     H_    0.058646 0.910276 0.521843 0.186946

loop_
_geom_bond_atom_site_label_1
_geom_bond_atom_site_label_2
_ccdc_geom_bond_type
C15   O13   S    
C8    C26   S    
C41   H19   S    
C42   H20   S    
C22   H14   S    
C4    H6    S    
O15   C43   S    
C5    H7    S    
C6    H8    S    
C17   O15   S    
C26   O7    A    
C38   C40   A    
C41   H18   S    
C38   H2    S    
C24   N3    A    
C33   C35   A    
C43   H24   S    
O8    Zn2   S    
O6    Zn2   S    
C30   N2    A    
O5    Zn1   S    
C7    C9    A    
C12   H12   S    
C31   C33   A    
O7    Zn1   S    
C32   C38   A    
N3    Zn1   S    
C34   C36   A    
C27   O9    S    
C37   H1    S    
C15   C20   A    
C25   O8    A    
C42   H21   S    
C39   H3    S    
C23   N4    A    
C37   C39   A    
C26   O6    A    
C9    H9    S    
C41   H17   S    
C21   N4    A    
C4    C6    A    
C27   N1    A    
C22   N3    A    
C5    C7    A    
C43   H23   S    
C6    C8    A    
C13   N2    S    
O3    Zn1   S    
O1    Zn1   S    
C3    H5    S    
C31   C37   A    
C16   O14   S    
C18   O16   S    
C3    C13   A    
O13   C41   S    
C44   H27   S    
C33   C34   A    
C25   O5    A    
C9    C11   A    
C10   C12   A    
C8    C10   A    
C29   N1    A    
C10   H10   S    
C1    O4    A    
C44   H26   S    
C42   H22   S    
C2    O3    A    
C15   C17   A    
C14   N1    S    
C1    C20   S    
C2    C19   S    
C36   C39   A    
C28   O10   S    
C12   C14   A    
O14   C42   S    
C3    C5    A    
C43   H25   S    
C1    O1    A    
C30   O12   S    
C23   H15   S    
C28   N2    A    
C24   H16   S    
C7    C25   S    
C27   C35   A    
C35   C40   A    
C29   C31   A    
C44   H28   S    
C30   C32   A    
C11   C13   A    
O16   C44   S    
C16   C19   A    
C21   H13   S    
N4    Zn2   S    
C17   C19   A    
C18   C20   A    
C4    C14   A    
C11   H11   S    
C40   H4    S    
C28   C36   A    
C16   C18   A    
C21   C24   A    
O4    Zn2   S    
C22   C23   A    
O2    Zn2   S    
C2    O2    A    
C32   C34   A    
C29   O11   S    
