data_mof_unit_41416.cif
_audit_creation_date              2013-03-05T15:41:32-0500
_audit_creation_method            fapswitch 2.2
_symmetry_space_group_name_H-M    P1
_symmetry_Int_Tables_number       1
_space_group_crystal_system       triclinic
_cell_length_a                    24.684901
_cell_length_b                    17.441561
_cell_length_c                    15.475951
_cell_angle_alpha                 90.375632
_cell_angle_beta                  129.190278
_cell_angle_gamma                 89.363623
_cell_volume                      5163.90098346

loop_
_atom_site_label
_atom_site_type_symbol
_atom_site_description
_atom_site_fract_x
_atom_site_fract_y
_atom_site_fract_z
_atom_type_partial_charge
C1    C     C_R   0.351042 0.359262 0.242963 -0.109037
C2    C     C_R   0.333224 0.606662 0.197854 -0.131606
C3    C     C_R   0.851044 0.859261 0.242967 -0.109038
C4    C     C_R   0.833224 0.106662 0.197853 -0.131609
N1    N     N_R   0.389430 0.421450 0.294590 -0.053909
N2    N     N_R   0.389430 0.578550 0.294590 -0.055313
N3    N     N_R   0.889430 0.921450 0.294590 -0.053910
N4    N     N_R   0.889430 0.078550 0.294590 -0.055314
C5    C     C_R   0.650537 0.360976 0.757314 -0.110355
C6    C     C_R   0.667460 0.604791 0.801904 -0.131842
C7    C     C_R   0.150537 0.860976 0.757314 -0.110355
C8    C     C_R   0.167460 0.104791 0.801905 -0.131843
H1    H     H_    0.697962 0.346626 0.770696 0.096511
H2    H     H_    0.719999 0.601344 0.829665 0.121544
H3    H     H_    0.197962 0.846626 0.770696 0.096512
H4    H     H_    0.220000 0.101343 0.829666 0.121552
N5    N     N_R   0.612200 0.424040 0.705410 -0.045607
N6    N     N_R   0.612200 0.575960 0.705410 -0.047716
N7    N     N_R   0.112200 0.924040 0.705410 -0.045608
N8    N     N_R   0.112200 0.075960 0.705410 -0.047718
C9    C     C_R   0.615192 0.395883 0.407371 0.323248
C10   C     C_R   0.593747 0.640099 0.409174 0.364563
C11   C     C_R   0.115192 0.895885 0.407370 0.323244
C12   C     C_R   0.093746 0.140100 0.409174 0.364563
N9    N     N_R   0.581780 0.422390 0.443390 -0.089228
N10   N     N_R   0.581780 0.577610 0.443390 -0.086605
N11   N     N_R   0.081780 0.922390 0.443390 -0.089226
N12   N     N_R   0.081780 0.077610 0.443390 -0.086602
C13   C     C_R   0.390847 0.394147 0.596548 -0.146656
C14   C     C_R   0.415027 0.642106 0.595454 -0.135189
C15   C     C_R   0.890848 0.894145 0.596549 -0.146660
C16   C     C_R   0.915028 0.142107 0.595454 -0.135190
H5    H     H_    0.413674 0.395666 0.683409 0.103094
H6    H     H_    0.443203 0.654219 0.682543 0.104345
H7    H     H_    0.913675 0.895662 0.683409 0.103093
H8    H     H_    0.943204 0.154219 0.682543 0.104346
N13   N     N_R   0.419850 0.423100 0.556610 -0.037002
N14   N     N_R   0.419850 0.576900 0.556610 -0.040083
N15   N     N_R   0.919850 0.923100 0.556610 -0.037001
N16   N     N_R   0.919850 0.076900 0.556610 -0.040083
C17   C     C_R   0.689406 0.398871 0.591657 -0.176646
C18   C     C_R   0.665925 0.639140 0.594655 -0.117222
C19   C     C_R   0.189406 0.898873 0.591656 -0.176652
C20   C     C_R   0.165924 0.139141 0.594655 -0.117222
H9    H     H_    0.735701 0.400197 0.677945 0.160273
H10   H     H_    0.705010 0.652187 0.681486 0.152321
H11   H     H_    0.235701 0.900198 0.677944 0.160276
H12   H     H_    0.205007 0.152189 0.681486 0.152334
N17   N     N_R   0.627410 0.423100 0.556610 -0.065915
N18   N     N_R   0.627410 0.576900 0.556610 -0.060351
N19   N     N_R   0.127410 0.923100 0.556610 -0.065915
N20   N     N_R   0.127410 0.076900 0.556610 -0.060353
C21   C     C_R   0.314641 0.393136 0.411092 -0.157695
C22   C     C_R   0.340202 0.644435 0.409485 -0.136875
C23   C     C_R   0.814641 0.893136 0.411092 -0.157697
C24   C     C_R   0.840202 0.144435 0.409486 -0.136874
H13   H     H_    0.266297 0.391425 0.326238 0.097067
H14   H     H_    0.297325 0.659088 0.323992 0.100102
H15   H     H_    0.766297 0.891427 0.326238 0.097068
H16   H     H_    0.797325 0.159089 0.323992 0.100102
N21   N     N_R   0.374220 0.422390 0.443390 -0.036600
N22   N     N_R   0.374220 0.577610 0.443390 -0.039166
N23   N     N_R   0.874220 0.922390 0.443390 -0.036600
N24   N     N_R   0.874220 0.077610 0.443390 -0.039167
C25   C     C_R   0.559843 0.360555 0.758544 -0.125117
C26   C     C_R   0.577732 0.605973 0.803489 -0.140923
C27   C     C_R   0.059843 0.860555 0.758544 -0.125116
C28   C     C_R   0.077732 0.105973 0.803489 -0.140924
H17   H     H_    0.524021 0.344337 0.772852 0.111917
H18   H     H_    0.549379 0.603886 0.835290 0.108626
H19   H     H_    0.024022 0.844337 0.772853 0.111913
H20   H     H_    0.049379 0.103886 0.835290 0.108625
N25   N     N_R   0.555000 0.424040 0.705410 -0.047570
N26   N     N_R   0.555000 0.575960 0.705410 -0.045479
N27   N     N_R   0.055000 0.924040 0.705410 -0.047570
N28   N     N_R   0.055000 0.075960 0.705410 -0.045479
C29   C     C_R   0.441702 0.356562 0.242357 -0.101395
C30   C     C_R   0.421349 0.604032 0.193219 -0.007922
C31   C     C_R   0.941705 0.856560 0.242363 -0.101381
C32   C     C_R   0.921349 0.104031 0.193219 -0.007900
N29   N     N_R   0.446630 0.421450 0.294590 -0.045712
N30   N     N_R   0.446630 0.578550 0.294590 -0.064472
N31   N     N_R   0.946630 0.921450 0.294590 -0.045707
N32   N     N_R   0.946630 0.078550 0.294590 -0.064471
C33   C     C_R   0.383412 0.316334 0.211341 0.102198
C34   C     C_R   0.351611 0.623291 0.132503 0.094697
C35   C     C_R   0.883415 0.816331 0.211348 0.102194
C36   C     C_R   0.851611 0.123290 0.132503 0.094691
C37   C     C_R   0.618135 0.319258 0.789403 0.131918
C38   C     C_R   0.647634 0.624497 0.865060 0.144488
C39   C     C_R   0.118135 0.819258 0.789403 0.131919
C40   C     C_R   0.147634 0.124496 0.865061 0.144489
C41   C     C_R   0.684562 0.382200 0.499706 -0.120409
C42   C     C_R   0.649267 0.678673 0.503780 -0.173481
C43   C     C_R   0.184562 0.882203 0.499705 -0.120412
C44   C     C_R   0.149266 0.178675 0.503781 -0.173494
C45   C     C_R   0.325406 0.372221 0.506717 0.042329
C46   C     C_R   0.364591 0.686239 0.504510 0.031497
C47   C     C_R   0.825408 0.872218 0.506716 0.042333
C48   C     C_R   0.864592 0.186240 0.504510 0.031498
Ni1   Ni    Ni4+2 0.382890 0.500000 0.370170 0.206961
Ni2   Ni    Ni4+2 0.882890 1.000000 0.370170 0.206961
Ni3   Ni    Ni4+2 0.618740 0.500000 0.629830 0.239353
Ni4   Ni    Ni4+2 0.118740 0.000000 0.629830 0.239351
Ni5   Ni    Ni4+2 0.514090 0.500000 0.370170 0.311758
Ni6   Ni    Ni4+2 0.014090 1.000000 0.370170 0.311763
Ni7   Ni    Ni4+2 0.487550 0.500000 0.629830 0.212979
Ni8   Ni    Ni4+2 0.987550 0.000000 0.629830 0.212979
C49   C     C_3   0.313082 0.302477 0.632950 -0.500605
C50   C     C_3   0.360400 0.779819 0.624857 -0.502283
C51   C     C_3   0.813093 0.802457 0.632950 -0.500613
C52   C     C_3   0.860402 0.279821 0.624857 -0.502285
H21   H     H_    0.317140 0.354824 0.678308 0.149087
H22   H     H_    0.375838 0.734630 0.687214 0.141489
H23   H     H_    0.817160 0.854798 0.678326 0.149084
H24   H     H_    0.875841 0.234632 0.687216 0.141490
H25   H     H_    0.367014 0.279147 0.678485 0.197308
H26   H     H_    0.409226 0.808008 0.652324 0.202711
H27   H     H_    0.867023 0.779122 0.678469 0.197308
H28   H     H_    0.909226 0.308011 0.652322 0.202710
C53   C     C_3   0.767851 0.743058 0.632802 0.236408
C54   C     C_3   0.811276 0.336511 0.623158 0.247245
C55   C     C_3   0.267842 0.243078 0.632806 0.236419
C56   C     C_3   0.311275 0.836510 0.623158 0.247253
H29   H     H_    0.254318 0.267332 0.683969 0.056850
H30   H     H_    0.305628 0.813899 0.684262 0.047239
H31   H     H_    0.754339 0.767306 0.683983 0.056844
H32   H     H_    0.805631 0.313900 0.684264 0.047240
H33   H     H_    0.216255 0.420149 0.495755 0.166287
H34   H     H_    0.272672 0.650874 0.531348 0.163166
H35   H     H_    0.716272 0.920147 0.495796 0.166284
H36   H     H_    0.772676 0.150873 0.531352 0.163166
H37   H     H_    0.656693 0.838958 0.525492 0.164933
H38   H     H_    0.707540 0.233159 0.545010 0.159003
H39   H     H_    0.156675 0.338964 0.525454 0.164933
H40   H     H_    0.207536 0.733161 0.545002 0.159003
C57   C     C_3   0.208597 0.363716 0.455569 -0.414322
C58   C     C_3   0.256671 0.700392 0.474358 -0.387653
C59   C     C_3   0.708605 0.863720 0.455592 -0.414315
C60   C     C_3   0.756673 0.200391 0.474362 -0.387651
C61   C     C_3   0.270483 0.248569 0.448854 -0.415107
C62   C     C_3   0.299134 0.809910 0.423915 -0.410842
C63   C     C_3   0.770472 0.748571 0.448829 -0.415125
C64   C     C_3   0.799133 0.309909 0.423913 -0.410848
C65   C     C_3   0.279981 0.323503 0.511111 0.326860
C66   C     C_3   0.321801 0.743807 0.507267 0.324325
C67   C     C_3   0.779983 0.823498 0.511110 0.326873
C68   C     C_3   0.821802 0.243807 0.507267 0.324327
H41   H     H_    0.320506 0.215585 0.496600 0.215135
H42   H     H_    0.345527 0.843793 0.451396 0.196888
H43   H     H_    0.820491 0.715581 0.496558 0.215136
H44   H     H_    0.845525 0.343794 0.451393 0.196890
C69   C     C_3   0.697582 0.731881 0.509672 0.209098
C70   C     C_3   0.737233 0.336731 0.504161 0.215036
C71   C     C_3   0.197581 0.231884 0.509674 0.209096
C72   C     C_3   0.237233 0.836733 0.504160 0.215036
C73   C     C_3   0.662818 0.812382 0.466491 -0.428383
C74   C     C_3   0.709628 0.253513 0.479048 -0.450140
C75   C     C_3   0.162810 0.312380 0.466469 -0.428384
C76   C     C_3   0.209626 0.753516 0.479043 -0.450140
C77   C     C_3   0.714061 0.701036 0.433667 -0.295418
C78   C     C_3   0.745763 0.362251 0.416913 -0.306639
C79   C     C_3   0.214073 0.201031 0.433691 -0.295434
C80   C     C_3   0.245766 0.862254 0.416915 -0.306644
H45   H     H_    0.728699 0.639229 0.448022 0.211320
H46   H     H_    0.761114 0.423264 0.428227 0.203938
H47   H     H_    0.228718 0.139226 0.448067 0.211322
H48   H     H_    0.261119 0.923266 0.428234 0.203934
H49   H     H_    0.667880 0.707635 0.344808 0.215575
H50   H     H_    0.696810 0.358170 0.331028 0.220256
H51   H     H_    0.167896 0.207616 0.344829 0.215562
H52   H     H_    0.196813 0.858177 0.331030 0.220256
H53   H     H_    0.181513 0.374367 0.365787 0.181029
H54   H     H_    0.226124 0.677081 0.388220 0.177739
H55   H     H_    0.681514 0.874382 0.365809 0.181029
H56   H     H_    0.726125 0.177079 0.388223 0.177740
H57   H     H_    0.211694 0.630709 0.992304 0.135203
H58   H     H_    0.284376 0.224952 0.174701 0.130780
H59   H     H_    0.711694 0.130709 0.992304 0.135204
H60   H     H_    0.784374 0.724953 0.174698 0.130779
H61   H     H_    0.714888 0.223032 0.822855 0.126446
H62   H     H_    0.787697 0.628633 0.007261 0.144814
H63   H     H_    0.214888 0.723032 0.822855 0.126446
H64   H     H_    0.287697 0.128633 0.007260 0.144820
C81   C     C_2   0.642998 0.246872 0.850889 -0.186883
C82   C     C_2   0.693762 0.652619 0.980148 -0.202122
C83   C     C_2   0.142998 0.746872 0.850889 -0.186885
C84   C     C_2   0.193762 0.152619 0.980148 -0.202123
C85   C     C_2   0.694880 0.207068 0.865646 -0.106578
C86   C     C_2   0.763098 0.654834 0.038586 -0.097521
C87   C     C_2   0.194880 0.707067 0.865646 -0.106576
C88   C     C_2   0.263098 0.154834 0.038585 -0.097515
C89   C     C_2   0.304856 0.649013 0.016293 -0.188110
C90   C     C_2   0.357735 0.244264 0.148975 -0.186946
C91   C     C_2   0.804856 0.149012 0.016292 -0.188109
C92   C     C_2   0.857739 0.744260 0.148984 -0.186957
C93   C     C_2   0.235809 0.653953 0.959137 -0.104752
C94   C     C_2   0.304612 0.207327 0.132463 -0.106599
C95   C     C_2   0.735809 0.153952 0.959137 -0.104752
C96   C     C_2   0.804613 0.707326 0.132466 -0.106590
H65   H     H_    0.623596 0.230545 0.894585 0.146038
H66   H     H_    0.669921 0.679427 0.012621 0.144305
H67   H     H_    0.123596 0.730545 0.894585 0.146036
H68   H     H_    0.169922 0.179426 0.012622 0.144306
H69   H     H_    0.303356 0.346782 0.228937 0.094407
H70   H     H_    0.281032 0.603949 0.171511 0.095992
H71   H     H_    0.803358 0.846780 0.228941 0.094407
H72   H     H_    0.781032 0.103948 0.171511 0.095993
N33   N     N_R   0.808651 0.671845 0.686967 0.244705
O1    O     O_R   0.831683 0.631514 0.644992 -0.351748
O2    O     O_R   0.832929 0.656514 0.788032 -0.394031
N34   N     N_R   0.842392 0.413265 0.660400 0.251052
O3    O     O_R   0.865887 0.447558 0.615674 -0.375850
O4    O     O_R   0.856030 0.442762 0.749652 -0.358130
N35   N     N_R   0.308648 0.171874 0.686998 0.244695
O5    O     O_R   0.331690 0.131535 0.645043 -0.351751
O6    O     O_R   0.332926 0.156562 0.788067 -0.394060
N36   N     N_R   0.342393 0.913263 0.660403 0.251047
O7    O     O_R   0.365891 0.947555 0.615683 -0.375869
O8    O     O_R   0.356029 0.942759 0.749654 -0.358144
H73   H     H_    0.755068 0.759901 0.365139 0.151766
H74   H     H_    0.775171 0.287255 0.339429 0.160257
H75   H     H_    0.255085 0.259889 0.365167 0.151768
H76   H     H_    0.275171 0.787256 0.339431 0.160257
H77   H     H_    0.609912 0.809505 0.384749 0.236988
H78   H     H_    0.655629 0.249300 0.398991 0.223295
H79   H     H_    0.109907 0.309496 0.384723 0.236996
H80   H     H_    0.155627 0.749305 0.398985 0.223292
H81   H     H_    0.328319 0.673046 0.982255 0.149241
H82   H     H_    0.377302 0.226193 0.105750 0.157768
H83   H     H_    0.828319 0.173045 0.982254 0.149242
H84   H     H_    0.877308 0.726187 0.105764 0.157757
N37   N     N_R   0.586245 0.399738 0.292930 0.206431
O9    O     O_R   0.580595 0.337357 0.241291 -0.469306
O10   O     O_R   0.546385 0.457731 0.233138 -0.377328
N38   N     N_R   0.563643 0.654526 0.296050 0.194573
O11   O     O_R   0.573982 0.606311 0.243266 -0.389887
O12   O     O_R   0.529694 0.718083 0.247444 -0.458204
N39   N     N_R   0.086244 0.899745 0.292929 0.206441
O13   O     O_R   0.080598 0.837368 0.241288 -0.469305
O14   O     O_R   0.046375 0.957733 0.233139 -0.377340
N40   N     N_R   0.063645 0.154525 0.296051 0.194577
O15   O     O_R   0.073988 0.106310 0.243271 -0.389886
O16   O     O_R   0.029686 0.218076 0.247435 -0.458206
H85   H     H_    0.476798 0.337839 0.227913 0.180307
H86   H     H_    0.446439 0.595511 0.156789 0.183448
H87   H     H_    0.976804 0.837833 0.227927 0.180292
H88   H     H_    0.946439 0.095510 0.156790 0.183451

loop_
_geom_bond_atom_site_label_1
_geom_bond_atom_site_label_2
_geom_bond_distance
_ccdc_geom_bond_type
N3    N31   1.411976 A    
C45   C65   1.449925 S    
N2    N30   1.411976 A    
C55   N35   1.476010 S    
C51   C53   1.530671 S    
C10   C42   1.395086 A    
C23   H15   1.081327 S    
C90   H82   1.087347 S    
C59   H55   1.112991 S    
N39   O13   1.301144 A    
C52   C68   1.555986 S    
C89   H81   1.087439 S    
C64   C68   1.548980 S    
C50   H26   1.112658 S    
C31   C35   1.392204 A    
C54   H32   1.114423 S    
C49   H25   1.113833 S    
C26   C38   1.385715 A    
C55   C71   1.582163 S    
C25   C37   1.389396 A    
C7    N7    1.333580 A    
C53   C69   1.582175 S    
C1    N1    1.329433 A    
C16   H8    1.076910 S    
C57   C65   1.549852 S    
C41   C70   1.479420 S    
C58   C66   1.550717 S    
C35   C92   1.463571 S    
N13   Ni7   1.874148 S    
C3    N3    1.329433 A    
N15   N23   1.358236 A    
N10   N18   1.358217 A    
C34   C89   1.464117 S    
C62   C80   1.541107 S    
C25   H17   1.079250 S    
C33   C90   1.463568 S    
C55   H29   1.115285 S    
C44   C71   1.475807 S    
C26   N26   1.346293 A    
C83   H67   1.087483 S    
C18   C42   1.377679 A    
C25   N25   1.342125 A    
N38   O11   1.299736 A    
C82   H66   1.087245 S    
C51   H27   1.113850 S    
C43   C72   1.479422 S    
C18   H10   1.072737 S    
N30   Ni5   1.878003 S    
C81   H65   1.087485 S    
N14   Ni7   1.858145 S    
C62   C66   1.548979 S    
C5    H1    1.078793 S    
C60   C74   1.514603 S    
N26   Ni7   1.860923 S    
C78   H46   1.108757 S    
H61   C85   1.085744 S    
C15   C47   1.362740 A    
C9    N37   1.432819 S    
C8    H4    1.079195 S    
C13   H5    1.080654 S    
N38   O12   1.300229 A    
N3    Ni2   1.866525 S    
C23   N23   1.325669 A    
C58   H54   1.113694 S    
C27   H19   1.079251 S    
C19   C43   1.379912 A    
H64   C88   1.084212 S    
C12   N40   1.427569 S    
C2    H70   1.079640 S    
C53   N33   1.476023 S    
C79   H51   1.105357 S    
N37   O9    1.301149 A    
C50   H22   1.111870 S    
C83   C87   1.336801 D    
C4    N4    1.332715 A    
N16   Ni8   1.858145 S    
N22   Ni1   1.855294 S    
C77   H49   1.105368 S    
C85   C95   1.456628 S    
N8    N28   1.411976 A    
C63   H43   1.112845 S    
H58   C94   1.085318 S    
C29   C33   1.392204 A    
N18   Ni3   1.860534 S    
N6    N26   1.411976 A    
H57   C93   1.084633 S    
C32   C36   1.380688 A    
N5    N25   1.411976 A    
C54   C70   1.574229 S    
C36   C91   1.464118 S    
C60   C68   1.550718 S    
C2    N2    1.332714 A    
C21   N21   1.325669 A    
C16   C48   1.379082 A    
C17   C41   1.379912 A    
N23   Ni2   1.869550 S    
C7    H3    1.078794 S    
C17   N17   1.324544 A    
C22   N22   1.329801 A    
N4    Ni2   1.880361 S    
N11   N19   1.358236 A    
C32   H88   1.077797 S    
C4    H72   1.079641 S    
C91   C95   1.336900 D    
C11   N11   1.331871 A    
C1    C33   1.383730 A    
N15   Ni8   1.874148 S    
N1    Ni1   1.866525 S    
H39   C75   1.113018 S    
C27   C39   1.389395 A    
C14   H6    1.076911 S    
C3    C35   1.383734 A    
C32   N32   1.346788 A    
C92   H84   1.087347 S    
C72   C76   1.549821 S    
N9    Ni5   1.866908 S    
C6    C38   1.381782 A    
N12   Ni6   1.882976 S    
C92   C96   1.339052 D    
C52   H28   1.112662 S    
C57   C75   1.540471 S    
C49   C55   1.530675 S    
N12   N20   1.358217 A    
C38   C82   1.465373 S    
N11   Ni6   1.866908 S    
C21   C45   1.379008 A    
N19   Ni4   1.846343 S    
C71   C75   1.554084 S    
C87   C93   1.456627 S    
C84   H68   1.087246 S    
C51   C67   1.553350 S    
C24   H16   1.079241 S    
C69   C77   1.558829 S    
C31   H87   1.069886 S    
C82   C86   1.339257 D    
N21   Ni1   1.869550 S    
N35   O5    1.300735 A    
N17   Ni3   1.846343 S    
H60   C96   1.085315 S    
C58   C76   1.514604 S    
C11   N39   1.432819 S    
N7    Ni4   1.847476 S    
C30   N30   1.346789 A    
N32   Ni6   1.878003 S    
C78   H50   1.096711 S    
C29   N29   1.347547 A    
C79   H47   1.111332 S    
C28   H20   1.081434 S    
C59   C67   1.549869 S    
C73   H77   1.105043 S    
C8    N8    1.332161 A    
C12   C44   1.395090 A    
C24   N24   1.329802 A    
N33   O1    1.300739 A    
C91   H83   1.087438 S    
N25   Ni7   1.845447 S    
N39   O14   1.298830 A    
N28   Ni8   1.860923 S    
N34   O3    1.301416 A    
N37   O10   1.298847 A    
C59   C73   1.540475 S    
C13   C45   1.362741 A    
N2    Ni1   1.880361 S    
C10   N38   1.427568 S    
C48   C68   1.469182 S    
C80   H48   1.108757 S    
C76   H80   1.109523 S    
H38   C74   1.114637 S    
C18   N18   1.317619 A    
N24   Ni2   1.855294 S    
C61   C79   1.513828 S    
C75   H79   1.105030 S    
C56   C72   1.574230 S    
C56   N36   1.472254 S    
C6    H2    1.079196 S    
C74   H78   1.109523 S    
N40   O16   1.300226 A    
C54   N34   1.472256 S    
C80   H52   1.096708 S    
C27   N27   1.342125 A    
C24   C48   1.390507 A    
C5    C37   1.391206 A    
H34   C58   1.114437 S    
N1    N29   1.411976 A    
C86   C96   1.456362 S    
C63   C67   1.547992 S    
C52   H24   1.111871 S    
C1    H69   1.078097 S    
C56   H30   1.114421 S    
C22   H14   1.079239 S    
C5    N5    1.333580 A    
C62   H76   1.111978 S    
N29   Ni5   1.893735 S    
C9    N9    1.331878 A    
N20   Ni4   1.860534 S    
C21   H13   1.081327 S    
C20   C44   1.377677 A    
C64   C78   1.541102 S    
N4    N32   1.411976 A    
C37   C81   1.461704 S    
C70   C78   1.560422 S    
C49   C65   1.553336 S    
C12   N12   1.329654 A    
N34   O4    1.301058 A    
C19   H11   1.077643 S    
H63   C87   1.085744 S    
C20   N20   1.317620 A    
C63   H73   1.113738 S    
N13   N21   1.358236 A    
C40   C84   1.465372 S    
C53   H31   1.115292 S    
C81   C85   1.336799 D    
C4    C36   1.378343 A    
C49   H21   1.114063 S    
H36   C60   1.114438 S    
C46   C66   1.469183 S    
C52   C54   1.543463 S    
C14   C46   1.379083 A    
C9    C41   1.390727 A    
C61   H75   1.113729 S    
N31   Ni6   1.893735 S    
N10   Ni5   1.882976 S    
N36   O8    1.301055 A    
C84   C88   1.339255 D    
C3    H71   1.078095 S    
C62   H42   1.112575 S    
C29   H85   1.069880 S    
N35   O6    1.301651 A    
C57   H53   1.112977 S    
N5    Ni3   1.847476 S    
C47   C67   1.449918 S    
C61   H41   1.112833 S    
C64   H44   1.112576 S    
C17   H9    1.077644 S    
C31   N31   1.347549 A    
C28   N28   1.346293 A    
C19   N19   1.324537 A    
N36   O7    1.301416 A    
C90   C94   1.339052 D    
H59   C95   1.084633 S    
C6    N6    1.332161 A    
C42   C69   1.475802 S    
C89   C93   1.336901 D    
N16   N24   1.358217 A    
N40   O15   1.299734 A    
C15   H7    1.080654 S    
N7    N27   1.411976 A    
C61   C65   1.547973 S    
C28   C40   1.385713 A    
C11   C43   1.390730 A    
C2    C34   1.378343 A    
H37   C73   1.113023 S    
N6    Ni3   1.833855 S    
C16   N16   1.321920 A    
C69   C73   1.554091 S    
C30   H86   1.077796 S    
N9    N17   1.358236 A    
H35   C59   1.113040 S    
N8    Ni4   1.833855 S    
C88   C94   1.456361 S    
H40   C76   1.114634 S    
C7    C39   1.391205 A    
N27   Ni8   1.845447 S    
C8    C40   1.381782 A    
H33   C57   1.113024 S    
C26   H18   1.081433 S    
C72   C80   1.560417 S    
C71   C79   1.558815 S    
C30   C34   1.380686 A    
C10   N10   1.329646 A    
C13   N13   1.311853 A    
C15   N15   1.311853 A    
C70   C74   1.549819 S    
N33   O2    1.301657 A    
C22   C46   1.390507 A    
C51   H23   1.114081 S    
H62   C86   1.084214 S    
C14   N14   1.321920 A    
C50   C56   1.543463 S    
C50   C66   1.555982 S    
C39   C83   1.461704 S    
C64   H74   1.111980 S    
C63   C77   1.513824 S    
C77   H45   1.111340 S    
C20   H12   1.072734 S    
C23   C47   1.379005 A    
C60   H56   1.113696 S    
N14   N22   1.358217 A    
