data_mof_unit_26788.cif
_audit_creation_date              2012-12-11T16:28:02-0500
_audit_creation_method            fapswitch 2.2
_symmetry_space_group_name_H-M    P1
_symmetry_Int_Tables_number       1
_space_group_crystal_system       triclinic
_cell_length_a                    30.102636
_cell_length_b                    22.454517
_cell_length_c                    18.160253
_cell_angle_alpha                 90.092936
_cell_angle_beta                  123.74583
_cell_angle_gamma                 90.049056
_cell_volume                      10206.9526071

loop_
_atom_site_label
_atom_site_type_symbol
_atom_type_description
_atom_site_fract_x
_atom_site_fract_y
_atom_site_fract_z
_atom_type_partial_charge
C1    C     C_R   0.545003 0.579463 0.743591 -0.144882
C2    C     C_R   0.607062 0.260359 0.428576 -0.164396
C3    C     C_R   0.803277 0.623325 0.037134 -0.212636
C4    C     C_R   0.300796 0.865120 0.018645 -0.216441
C5    C     C_R   0.770827 0.296987 0.180008 -0.212114
C6    C     C_R   0.771202 0.702045 0.181586 -0.212289
C7    C     C_R   0.229061 0.297067 0.818682 -0.213061
C8    C     C_R   0.854285 0.354354 0.068162 -0.231488
C9    C     C_R   0.222283 0.810823 0.140268 -0.239048
C10   C     C_R   0.145786 0.355496 0.930428 -0.231396
C11   C     C_R   0.854538 0.644168 0.069739 -0.231138
C12   C     C_R   0.347894 0.838044 0.039541 -0.232117
C13   C     C_R   0.609695 0.738462 0.433180 -0.163643
C14   C     C_R   0.718806 0.316107 0.145007 -0.231966
C15   C     C_R   0.719035 0.683138 0.146275 -0.231968
C16   C     C_R   0.281442 0.315334 0.854499 -0.232875
C17   C     C_R   0.579308 0.608419 0.428245 -0.124851
C18   C     C_R   0.424188 0.389833 0.573113 -0.127860
C19   C     C_R   0.423323 0.609211 0.573902 -0.129454
C20   C     C_R   0.575793 0.389856 0.426659 -0.127427
C21   C     C_R   0.096526 0.080961 0.427511 -0.134286
C22   C     C_R   0.904387 0.917802 0.573268 -0.121248
C23   C     C_R   0.903503 0.081013 0.572541 -0.135626
C24   C     C_R   0.393014 0.260210 0.570566 -0.164452
C25   C     C_R   0.096559 0.918813 0.427741 -0.136209
C26   C     C_R   0.385990 0.595833 0.269527 -0.136433
C27   C     C_R   0.618784 0.419504 0.743666 -0.135025
C28   C     C_R   0.618810 0.580619 0.743801 -0.133058
C29   C     C_R   0.381310 0.418894 0.256482 -0.134841
C30   C     C_R   0.893380 0.108851 0.293042 -0.126634
C31   C     C_R   0.118317 0.917029 0.741271 -0.123422
C32   C     C_R   0.106628 0.109000 0.706909 -0.126945
C33   C     C_R   0.893408 0.890915 0.293237 -0.126736
C34   C     C_R   0.598899 0.593918 0.795126 0.061785
C35   C     C_R   0.799751 0.097005 0.564572 -0.162109
C36   C     C_R   0.401374 0.405125 0.205490 0.061767
C37   C     C_R   0.411370 0.622489 0.233298 0.057798
C38   C     C_R   0.598869 0.406157 0.794929 0.062387
C39   C     C_R   0.077456 0.141231 0.732227 0.055018
C40   C     C_R   0.922548 0.858666 0.267863 0.053619
C41   C     C_R   0.922490 0.140981 0.267508 0.053865
C42   C     C_R   0.098345 0.903253 0.792531 0.054362
C43   C     C_R   0.616243 0.640733 0.503332 0.033035
C44   C     C_R   0.387259 0.357053 0.498292 0.033752
C45   C     C_R   0.385049 0.641039 0.499601 0.032643
C46   C     C_R   0.200041 0.902911 0.435690 -0.162863
C47   C     C_R   0.612657 0.357150 0.501326 0.033980
C48   C     C_R   0.146456 0.095120 0.501747 0.040878
C49   C     C_R   0.854260 0.904006 0.499174 0.036176
C50   C     C_R   0.853658 0.095239 0.498342 0.040870
C51   C     C_R   0.146262 0.904208 0.502174 0.036957
C52   C     C_R   0.294557 0.774238 0.420517 -0.159997
C53   C     C_R   0.704161 0.225070 0.579850 -0.164357
C54   C     C_R   0.708275 0.772554 0.582824 -0.162852
C55   C     C_R   0.295613 0.224690 0.419601 -0.163653
C56   C     C_R   0.719635 0.160269 0.417798 -0.164475
C57   C     C_R   0.200161 0.096528 0.435161 -0.162522
C58   C     C_R   0.280905 0.840909 0.583127 -0.164150
C59   C     C_R   0.280699 0.159906 0.582023 -0.164629
C60   C     C_R   0.719699 0.840958 0.419850 -0.164186
C61   C     C_R   0.317590 0.720950 0.420017 -0.177907
C62   C     C_R   0.680187 0.277485 0.580839 -0.165716
C63   C     C_R   0.685050 0.719256 0.582914 -0.167484
C64   C     C_R   0.319573 0.277190 0.418659 -0.165616
C65   C     C_R   0.763586 0.139799 0.419441 -0.173483
C66   C     C_R   0.236918 0.861066 0.581575 -0.172562
C67   C     C_R   0.236783 0.139468 0.580617 -0.173797
C68   C     C_R   0.801619 0.902421 0.567511 -0.162740
C69   C     C_R   0.763450 0.861122 0.420638 -0.173135
C70   C     C_R   0.364701 0.700944 0.497132 0.148868
C71   C     C_R   0.632963 0.297231 0.503756 0.143612
C72   C     C_R   0.637002 0.700363 0.506494 0.143412
C73   C     C_R   0.366951 0.297047 0.495632 0.143528
C74   C     C_R   0.805065 0.110396 0.494389 0.143397
C75   C     C_R   0.195000 0.889659 0.506231 0.143022
C76   C     C_R   0.195079 0.110060 0.505603 0.143385
C77   C     C_R   0.805864 0.889417 0.496057 0.145124
C78   C     C_R   0.368335 0.791934 0.572087 -0.182614
C79   C     C_R   0.631077 0.207589 0.427704 -0.182050
C80   C     C_R   0.632936 0.792090 0.433214 -0.182416
C81   C     C_R   0.455155 0.420072 0.256748 -0.146701
C82   C     C_R   0.369016 0.207365 0.571391 -0.182112
C83   C     C_R   0.755467 0.117436 0.562824 -0.179144
C84   C     C_R   0.244331 0.882733 0.437298 -0.180072
C85   C     C_R   0.244401 0.116919 0.436672 -0.178546
C86   C     C_R   0.757590 0.882209 0.566686 -0.179795
C87   C     C_R   0.318009 0.808258 0.498341 0.118631
C88   C     C_R   0.681471 0.191615 0.501638 0.114980
C89   C     C_R   0.683937 0.807614 0.506115 0.114545
C90   C     C_R   0.318485 0.191273 0.497659 0.115050
C91   C     C_R   0.716507 0.151938 0.491349 0.117105
C92   C     C_R   0.460301 0.594682 0.270746 -0.134471
C93   C     C_R   0.283576 0.848652 0.509019 0.116005
C94   C     C_R   0.283554 0.151519 0.508172 0.116851
C95   C     C_R   0.717858 0.848372 0.494831 0.117290
C96   C     C_R   0.394826 0.677801 0.181311 0.133956
C97   C     C_R   0.630652 0.390235 0.890153 0.132140
C98   C     C_R   0.630667 0.609542 0.890566 0.131867
C99   C     C_R   0.369797 0.388719 0.110379 0.131341
C100  C     C_R   0.908817 0.200380 0.224998 0.132149
C101  C     C_R   0.130737 0.887103 0.887492 0.130755
C102  C     C_R   0.090913 0.200941 0.774018 0.132043
C103  C     C_R   0.545005 0.420615 0.743545 -0.145700
C104  C     C_R   0.909028 0.798966 0.225876 0.132345
C105  C     C_R   0.407157 0.753279 0.098927 -0.214575
C106  C     C_R   0.635699 0.355816 0.021336 -0.212276
C107  C     C_R   0.635687 0.643976 0.021871 -0.212323
C108  C     C_R   0.364974 0.353634 0.979514 -0.214186
C109  C     C_R   0.922048 0.278908 0.147244 -0.213634
C110  C     C_R   0.138667 0.853860 0.021567 -0.216112
C111  C     C_R   0.077725 0.279978 0.851342 -0.213425
C112  C     C_R   0.922324 0.720009 0.148536 -0.213481
C113  C     C_R   0.421382 0.698864 0.142926 -0.180683
C114  C     C_R   0.032128 0.107509 0.706769 -0.131890
C115  C     C_R   0.605832 0.377313 0.934792 -0.172704
C116  C     C_R   0.605773 0.622749 0.935024 -0.172615
C117  C     C_R   0.394832 0.374931 0.066324 -0.174980
C118  C     C_R   0.938676 0.225967 0.195187 -0.170401
C119  C     C_R   0.107460 0.875476 0.934965 -0.172296
C120  C     C_R   0.061085 0.226728 0.803762 -0.170056
C121  C     C_R   0.938883 0.773258 0.196126 -0.170464
C122  C     C_R   0.355313 0.712886 0.177879 -0.251380
C123  C     C_R   0.686336 0.385089 0.935939 -0.258206
C124  C     C_R   0.686424 0.614068 0.936802 -0.257620
C125  C     C_R   0.967882 0.892425 0.293315 -0.132088
C126  C     C_R   0.314045 0.384349 0.063983 -0.259330
C127  C     C_R   0.864304 0.231065 0.211524 -0.255368
C128  C     C_R   0.186007 0.881012 0.930365 -0.258353
C129  C     C_R   0.135262 0.231724 0.786919 -0.255217
C130  C     C_R   0.864648 0.768099 0.212817 -0.255489
C131  C     C_R   0.339917 0.767436 0.133158 0.078756
C132  C     C_R   0.717113 0.362981 0.022806 0.081853
C133  C     C_R   0.717239 0.636031 0.023917 0.081785
C134  C     C_R   0.283265 0.362480 0.976852 0.080849
C135  C     C_R   0.846194 0.283857 0.161799 0.079617
C136  C     C_R   0.967864 0.107386 0.293142 -0.132245
C137  C     C_R   0.217825 0.858295 0.016242 0.079824
C138  C     C_R   0.153491 0.284670 0.836524 0.079604
C139  C     C_R   0.846568 0.715041 0.163345 0.079548
C140  C     C_R   0.365615 0.786811 0.091451 0.192491
C141  C     C_R   0.690653 0.345887 0.064008 0.190379
C142  C     C_R   0.690760 0.653433 0.064991 0.190293
C143  C     C_R   0.309804 0.344735 0.936014 0.190720
C144  C     C_R   0.874746 0.306441 0.126792 0.190051
C145  C     C_R   0.193130 0.842185 0.060672 0.191813
C146  C     C_R   0.125060 0.307496 0.871627 0.189775
C147  C     C_R   0.044547 0.918647 0.742226 -0.129462
C148  C     C_R   0.875068 0.692318 0.128307 0.189870
C149  C     C_R   0.295723 0.799748 0.120520 0.073124
C150  C     C_R   0.772384 0.350796 0.065211 0.072912
C151  C     C_R   0.772611 0.647936 0.066659 0.072982
C152  C     C_R   0.227792 0.351127 0.933776 0.072312
C153  C     C_R   0.797127 0.310690 0.137498 0.072004
C154  C     C_R   0.271724 0.842799 0.052591 0.073139
C155  C     C_R   0.202744 0.311194 0.861050 0.072541
C156  C     C_R   0.797479 0.688153 0.139086 0.072067
C157  C     C_R   0.627745 0.607542 0.575801 -0.127812
C158  C     C_R   0.391423 0.738320 0.571693 -0.162680
C159  C     C_R   0.373899 0.391148 0.425184 -0.126716
C160  C     C_R   0.371516 0.606943 0.426327 -0.120064
C161  C     C_R   0.626007 0.391243 0.574601 -0.127532
C162  C     C_R   0.145239 0.080953 0.574317 -0.141333
C163  C     C_R   0.854929 0.918789 0.426158 -0.141526
C164  C     C_R   0.854850 0.080982 0.425733 -0.139842
C165  C     C_R   0.144829 0.918014 0.574784 -0.122196
C166  C     C_R   0.803095 0.375191 0.035635 -0.212671
C167  C     C_R   0.272377 0.787999 0.168484 -0.209988
C168  C     C_R   0.197181 0.375967 0.963276 -0.214258
H1    H     H_    0.518886 0.574948 0.766583 0.085989
H2    H     H_    0.335419 0.696140 0.207787 0.114707
H3    H     H_    0.430600 0.273346 0.629818 0.112106
H4    H     H_    0.830387 0.072538 0.621832 0.104510
H5    H     H_    0.169147 0.926920 0.378145 0.104452
H6    H     H_    0.169361 0.072019 0.377852 0.104826
H7    H     H_    0.832962 0.926203 0.625134 0.103746
H8    H     H_    0.295197 0.393435 0.098517 0.114511
H9    H     H_    0.705207 0.605238 0.902086 0.113197
H10   H     H_    0.203544 0.888407 0.893487 0.115924
H11   H     H_    0.841601 0.211163 0.234342 0.114690
H12   H     H_    0.841971 0.788072 0.235647 0.114869
H13   H     H_    0.157860 0.211716 0.763981 0.114863
H14   H     H_    0.563081 0.381342 0.902137 0.111113
H15   H     H_    0.452840 0.673319 0.146101 0.112450
H16   H     H_    0.437688 0.378228 0.099575 0.111774
H17   H     H_    0.481297 0.424367 0.233770 0.086935
H18   H     H_    0.562952 0.619183 0.902014 0.111657
H19   H     H_    0.064989 0.880677 0.904521 0.112591
H20   H     H_    0.973841 0.204318 0.205830 0.113637
H21   H     H_    0.973968 0.795045 0.206498 0.113222
H22   H     H_    0.025988 0.204996 0.793430 0.113554
H23   H     H_    0.427387 0.768154 0.068104 0.121411
H24   H     H_    0.615290 0.343833 0.053045 0.120403
H25   H     H_    0.615247 0.656205 0.053451 0.120427
H26   H     H_    0.385479 0.341067 0.948174 0.120700
H27   H     H_    0.944639 0.296550 0.122042 0.122244
H28   H     H_    0.487398 0.598968 0.249947 0.081668
H29   H     H_    0.119537 0.842642 0.055650 0.120763
H30   H     H_    0.055221 0.297788 0.876612 0.122281
H31   H     H_    0.944883 0.702275 0.123320 0.122570
H32   H     H_    0.788336 0.410860 0.987811 0.128826
H33   H     H_    0.292068 0.761108 0.227680 0.133723
H34   H     H_    0.212220 0.411599 0.011431 0.131009
H35   H     H_    0.788390 0.587549 0.989209 0.128898
H36   H     H_    0.287352 0.903211 0.975081 0.130642
H37   H     H_    0.790021 0.272022 0.241004 0.132109
H38   H     H_    0.790504 0.727071 0.242721 0.132297
H39   H     H_    0.518896 0.425019 0.766569 0.085885
H40   H     H_    0.209651 0.272301 0.757310 0.132207
H41   H     H_    0.654429 0.619308 0.644681 0.095295
H42   H     H_    0.347171 0.379101 0.356459 0.094909
H43   H     H_    0.341785 0.617332 0.358499 0.084545
H44   H     H_    0.652653 0.379286 0.643287 0.094873
H45   H     H_    0.179580 0.076437 0.641621 0.088917
H46   H     H_    0.820382 0.923468 0.359078 0.090608
H47   H     H_    0.820520 0.076461 0.358374 0.089783
H48   H     H_    0.178772 0.921505 0.642644 0.086752
H49   H     H_    0.564475 0.620517 0.361199 0.088866
H50   H     H_    0.000377 0.118947 0.715055 0.092684
H51   H     H_    0.443184 0.376800 0.641417 0.094667
H52   H     H_    0.442534 0.622161 0.642370 0.095047
H53   H     H_    0.556864 0.376785 0.358302 0.094456
H54   H     H_    0.086149 0.077757 0.360312 0.082748
H55   H     H_    0.915653 0.919777 0.641064 0.083720
H56   H     H_    0.913814 0.077862 0.639691 0.082293
H57   H     H_    0.086435 0.922131 0.360718 0.083108
H58   H     H_    0.344446 0.600101 0.245945 0.085415
H59   H     H_    0.660207 0.423356 0.766067 0.081728
H60   H     H_    0.660236 0.576787 0.766285 0.081314
H61   H     H_    0.999643 0.880982 0.285048 0.093043
H62   H     H_    0.339864 0.422412 0.233998 0.083571
H63   H     H_    0.855887 0.120591 0.283762 0.091527
H64   H     H_    0.159448 0.919123 0.761659 0.084064
H65   H     H_    0.144123 0.120791 0.716158 0.091234
H66   H     H_    0.855952 0.879068 0.284109 0.091939
H67   H     H_    0.255588 0.785326 0.362736 0.111061
H68   H     H_    0.743220 0.214319 0.637660 0.114985
H69   H     H_    0.747876 0.782959 0.639672 0.115755
H70   H     H_    0.256447 0.213840 0.361951 0.115232
H71   H     H_    0.690790 0.187482 0.362352 0.113561
H72   H     H_    0.999594 0.118782 0.284751 0.093052
H73   H     H_    0.310033 0.814117 0.638892 0.115568
H74   H     H_    0.309720 0.187170 0.637527 0.113465
H75   H     H_    0.690128 0.814331 0.363983 0.113562
H76   H     H_    0.296155 0.693915 0.360794 0.103056
H77   H     H_    0.701070 0.304388 0.640282 0.107692
H78   H     H_    0.706814 0.691174 0.640820 0.108358
H79   H     H_    0.298580 0.304076 0.359412 0.108017
H80   H     H_    0.766583 0.150483 0.364221 0.107941
H81   H     H_    0.234248 0.850616 0.637178 0.112016
H82   H     H_    0.233978 0.150222 0.636052 0.107884
H83   H     H_    0.018324 0.921847 0.765188 0.085266
H84   H     H_    0.765565 0.850892 0.364372 0.107786
H85   H     H_    0.753473 0.109869 0.619812 0.113947
H86   H     H_    0.245997 0.889901 0.379903 0.115903
H87   H     H_    0.246194 0.109291 0.379469 0.114844
H88   H     H_    0.756537 0.889012 0.624763 0.114131
H89   H     H_    0.387609 0.818179 0.632344 0.114739
H90   H     H_    0.612424 0.181805 0.367074 0.115091
H91   H     H_    0.613159 0.819019 0.373795 0.116151
H92   H     H_    0.387803 0.181615 0.631882 0.114952
H93   H     H_    0.876387 0.373123 0.042736 0.129426
H94   H     H_    0.705035 0.393578 0.901015 0.113162
H95   H     H_    0.204617 0.799569 0.176679 0.125913
H96   H     H_    0.123794 0.374484 0.955928 0.130240
H97   H     H_    0.876598 0.625284 0.044298 0.129738
H98   H     H_    0.368306 0.854726 0.009914 0.129861
H99   H     H_    0.699405 0.303945 0.178336 0.129845
H100  H     H_    0.699621 0.695503 0.179524 0.129791
H101  H     H_    0.300892 0.302753 0.821390 0.129847
H102  H     H_    0.428938 0.725215 0.630903 0.111886
H103  H     H_    0.569597 0.273404 0.369207 0.112082
H104  H     H_    0.571507 0.725899 0.374640 0.115675
N1    N     N_R   0.532910 0.558440 0.665240 -0.035622
N2    N     N_R   0.402970 0.441090 0.454460 -0.040870
N3    N     N_R   0.402970 0.558910 0.454460 -0.040082
N4    N     N_R   0.597030 0.441090 0.545540 -0.040869
N5    N     N_R   0.097030 0.058910 0.545540 -0.035263
N6    N     N_R   0.902970 0.941090 0.454460 -0.035848
N7    N     N_R   0.902970 0.058910 0.454460 -0.034857
N8    N     N_R   0.097030 0.941090 0.545540 -0.036839
N9    N     N_R   0.566200 0.559270 0.454460 -0.039796
N10   N     N_R   0.433800 0.440730 0.545540 -0.040521
N11   N     N_R   0.433800 0.559270 0.545540 -0.040346
N12   N     N_R   0.467090 0.441560 0.334760 -0.036510
N13   N     N_R   0.566200 0.440730 0.454460 -0.040502
N14   N     N_R   0.066200 0.059270 0.454460 -0.035677
N15   N     N_R   0.933800 0.940730 0.545540 -0.037186
N16   N     N_R   0.933800 0.059270 0.545540 -0.036082
N17   N     N_R   0.066200 0.940730 0.454460 -0.036697
N18   N     N_R   0.421050 0.559750 0.334770 -0.036376
N19   N     N_R   0.578950 0.440250 0.665230 -0.037064
N20   N     N_R   0.578950 0.559750 0.665230 -0.037153
N21   N     N_R   0.421050 0.440250 0.334770 -0.038000
N22   N     N_R   0.921050 0.059750 0.334770 -0.041119
N23   N     N_R   0.467090 0.558440 0.334760 -0.035360
N24   N     N_R   0.078950 0.940250 0.665230 -0.040577
N25   N     N_R   0.078950 0.059750 0.665230 -0.040585
N26   N     N_R   0.921050 0.940250 0.334770 -0.041212
N27   N     N_R   0.532910 0.441560 0.665240 -0.035554
N28   N     N_R   0.032910 0.058440 0.665240 -0.040035
N29   N     N_R   0.967090 0.941560 0.334760 -0.040829
N30   N     N_R   0.967090 0.058440 0.334760 -0.040745
N31   N     N_R   0.032910 0.941560 0.665240 -0.039460
N32   N     N_R   0.597030 0.558910 0.545540 -0.040549
Ni1   Ni    Ni4+2 0.483090 0.500000 0.604440 0.212157
Ni2   Ni    Ni4+2 0.516910 0.500000 0.395560 0.214122
Ni3   Ni    Ni4+2 0.983090 0.000000 0.604440 0.207873
Ni4   Ni    Ni4+2 0.016910 0.000000 0.395560 0.209017
Ni5   Ni    Ni4+2 0.586780 0.500000 0.604440 0.210978
Ni6   Ni    Ni4+2 0.413220 0.500000 0.395560 0.214157
Ni7   Ni    Ni4+2 0.086780 0.000000 0.604440 0.211075
Ni8   Ni    Ni4+2 0.913220 0.000000 0.395560 0.213530

loop_
_geom_bond_atom_site_label_1
_geom_bond_atom_site_label_2
_ccdc_geom_bond_type
C61   C70   A    
N24   N31   A    
C31   C42   A    
C100  C127  A    
C132  C150  A    
N2    N10   A    
C28   H60   S    
C16   H101  S    
N7    Ni8   S    
C2    H103  S    
C124  C133  A    
C57   C76   A    
C29   H62   S    
C52   C61   A    
C48   C162  A    
C54   C63   A    
N30   Ni4   S    
C101  C128  A    
C24   H3    S    
C131  C140  A    
N26   Ni8   S    
C134  C143  A    
C122  H2    S    
C133  C151  A    
C97   C115  A    
C110  C145  A    
C21   C48   A    
C110  H29   S    
C35   H4    S    
C45   C160  A    
C42   C147  A    
C109  C118  A    
N4    N13   A    
C164  H47   S    
C147  N31   A    
C85   H87   S    
N6    N15   A    
C50   C164  A    
C28   N20   A    
C15   H100  S    
N10   Ni1   S    
C62   H77   S    
C37   C96   S    
C17   C43   A    
C18   C44   A    
C15   C142  A    
C165  H48   S    
C41   C100  S    
C160  N3    A    
C47   C71   S    
C22   C49   A    
C46   C84   A    
N21   Ni6   S    
C136  H72   S    
C131  C149  A    
C2    C71   A    
C83   C91   A    
C31   N24   A    
C68   C77   A    
C60   H75   S    
C26   N18   A    
C92   H28   S    
C158  H102  S    
C13   C72   A    
C19   N11   A    
N8    N17   A    
C106  C115  A    
C105  C140  A    
C27   H59   S    
C25   H57   S    
C78   H89   S    
C168  H34   S    
C109  C144  A    
C84   C93   A    
C12   H98   S    
C20   C47   A    
C3    C11   A    
C86   C95   A    
C60   C95   A    
N23   Ni2   S    
C126  C134  A    
C10   C168  A    
C44   C159  A    
C27   C38   A    
C78   C87   A    
C157  H41   S    
C123  C132  A    
C105  H23   S    
C69   C77   A    
C106  H24   S    
N8    Ni7   S    
C98   C124  A    
C92   N23   A    
C133  C142  A    
C105  C113  A    
C103  H39   S    
C55   C90   A    
C125  H61   S    
C50   C74   S    
C121  H21   S    
C163  H46   S    
C11   C148  A    
C86   H88   S    
C150  C166  A    
C53   C62   A    
C59   C67   A    
N12   Ni2   S    
C78   C158  A    
C57   C85   A    
C64   C73   A    
C30   C41   A    
C2    C79   A    
C36   C99   S    
N3    N11   A    
C21   N14   A    
C125  N29   A    
C23   N16   A    
C114  H50   S    
C46   C75   A    
C162  N5    A    
C1    C34   A    
C99   C126  A    
C161  H44   S    
C139  C148  A    
C33   C40   A    
C111  C146  A    
C29   N21   A    
N5    Ni7   S    
N27   Ni1   S    
N6    Ni8   S    
C65   C74   A    
C30   H63   S    
C38   C103  A    
C99   C117  A    
C88   C91   S    
C36   C81   A    
N24   Ni7   S    
C7    C155  A    
C80   H91   S    
C53   H68   S    
C124  H9    S    
C130  H12   S    
C10   C146  A    
N28   Ni3   S    
C65   H80   S    
C51   C165  A    
C4    C12   A    
C165  N8    A    
C108  H26   S    
C42   C101  S    
C122  C131  A    
C115  H14   S    
C14   H99   S    
C39   C102  S    
C132  C141  A    
C160  H43   S    
C37   C92   A    
C108  C117  A    
C43   C157  A    
C110  C119  A    
C19   C45   A    
C127  H11   S    
C112  C121  A    
C97   C123  A    
C113  H15   S    
C60   C69   A    
C138  C146  A    
C40   C125  A    
C87   C93   S    
C49   C77   S    
C62   C71   A    
C109  H27   S    
C20   N13   A    
C119  H19   S    
C107  C116  A    
C6    H38   S    
C22   N15   A    
N2    Ni6   S    
C19   H52   S    
C27   N19   A    
C8    H93   S    
C6    C156  A    
C138  C155  A    
C4    C154  A    
C35   C74   A    
N19   Ni5   S    
C3    H35   S    
C149  C167  A    
C117  H16   S    
C126  H8    S    
C103  N27   A    
C147  H83   S    
C59   H74   S    
C137  C145  A    
C58   C93   A    
C127  C135  A    
C111  H30   S    
C136  N30   A    
C24   C73   A    
C123  H94   S    
C32   C39   A    
C80   C89   A    
C48   C76   S    
N20   Ni5   S    
C56   C91   A    
C150  C153  A    
C20   H53   S    
C12   C140  A    
C164  N7    A    
C59   C94   A    
N13   Ni2   S    
C17   N9    A    
C13   C80   A    
C28   C34   A    
C104  C130  A    
C114  N28   A    
C130  C139  A    
C79   C88   A    
C152  C168  A    
C68   H7    S    
C90   C94   S    
C32   H65   S    
N32   Ni5   S    
C21   H54   S    
C16   C143  A    
C35   C83   A    
N4    Ni5   S    
C23   C50   A    
C116  H18   S    
C70   C158  A    
N26   N29   A    
C89   C95   S    
C149  C154  A    
C120  H22   S    
C152  C155  A    
C134  C152  A    
C31   H64   S    
C46   H5    S    
C151  C156  A    
N9    N32   A    
C5    C14   A    
C33   N26   A    
C7    C16   A    
N18   Ni6   S    
C96   C113  A    
C13   H104  S    
C100  C118  A    
C157  N32   A    
C102  C120  A    
C30   N22   A    
C106  C141  A    
C22   H55   S    
N14   Ni4   S    
C45   C70   S    
C159  N2    A    
C54   H69   S    
N15   Ni3   S    
C26   C37   A    
C82   C90   A    
C96   C122  A    
C26   H58   S    
C66   C75   A    
C9    C145  A    
C34   C98   S    
C137  C154  A    
C167  H33   S    
C55   H70   S    
C44   C73   S    
N22   N30   A    
C57   H6    S    
C47   C161  A    
C67   H82   S    
N22   Ni8   S    
C63   C72   A    
C108  C143  A    
C52   H67   S    
C43   C72   S    
C68   C86   A    
C56   H71   S    
C102  C129  A    
N17   Ni4   S    
C29   C36   A    
C159  H42   S    
C83   H85   S    
C139  C156  A    
C51   C75   S    
C4    H36   S    
C56   C65   A    
C24   C82   A    
N9    Ni2   S    
N25   Ni7   S    
C69   H84   S    
C6    C15   A    
C58   C66   A    
C129  C138  A    
N1    N20   A    
N19   N27   A    
C112  H31   S    
C1    N1    A    
C61   H76   S    
C14   C141  A    
C81   N12   A    
C38   C97   S    
C18   H51   S    
C81   H17   S    
C49   C163  A    
N18   N23   A    
C101  C119  A    
C9    C167  A    
C54   C89   A    
N1    Ni1   S    
C118  H20   S    
N31   Ni3   S    
C104  C121  A    
N29   Ni4   S    
C112  C148  A    
C25   N17   A    
C111  C120  A    
C58   H73   S    
C128  C137  A    
C25   C51   A    
N16   Ni3   S    
C161  N4    A    
C40   C104  S    
C85   C94   A    
C98   C116  A    
C18   N10   A    
C39   C114  A    
C55   C64   A    
C11   H97   S    
C8    C144  A    
C107  C142  A    
C8    C166  A    
N3    Ni6   S    
C135  C144  A    
C82   H92   S    
C84   H86   S    
N25   N28   A    
C128  H10   S    
C107  H25   S    
C17   H49   S    
C63   H78   S    
C129  H13   S    
C79   H90   S    
C52   C87   A    
C7    H40   S    
C32   N25   A    
C163  N6    A    
N5    N14   A    
C3    C151  A    
C135  C153  A    
N7    N16   A    
C64   H79   S    
N12   N21   A    
C5    C153  A    
C9    H95   S    
C1    H1    S    
C10   H96   S    
C53   C88   A    
C166  H32   S    
C66   H81   S    
C5    H37   S    
C23   H56   S    
C67   C76   A    
C41   C136  A    
C33   H66   S    
N11   Ni1   S    
C162  H45   S    
