data_mof_unit_57929.cif
_audit_creation_date              2013-03-05T15:41:17-0500
_audit_creation_method            fapswitch 2.2
_symmetry_space_group_name_H-M    P1
_symmetry_Int_Tables_number       1
_space_group_crystal_system       triclinic
_cell_length_a                    16.865455
_cell_length_b                    16.773144
_cell_length_c                    16.734951
_cell_angle_alpha                 66.105871
_cell_angle_beta                  65.901658
_cell_angle_gamma                 65.742837
_cell_volume                      3776.4006976

loop_
_atom_site_label
_atom_site_type_symbol
_atom_site_description
_atom_site_fract_x
_atom_site_fract_y
_atom_site_fract_z
_atom_type_partial_charge
O1    O     O_R   0.982940 0.138950 0.510160 -0.616088
O2    O     O_R   0.017060 0.861050 0.489840 -0.630125
O3    O     O_R   0.138950 0.510160 0.982940 -0.611966
O4    O     O_R   0.861050 0.489840 0.017060 -0.630352
O5    O     O_R   0.510160 0.982940 0.138950 -0.619025
O6    O     O_R   0.489840 0.017060 0.861050 -0.614710
O7    O     O_R   0.489840 0.861050 0.017060 -0.665362
O8    O     O_R   0.510160 0.138950 0.982940 -0.631098
O9    O     O_R   0.017060 0.489840 0.861050 -0.616085
O10   O     O_R   0.982940 0.510160 0.138950 -0.634759
O11   O     O_R   0.861050 0.017060 0.489840 -0.620116
O12   O     O_R   0.138950 0.982940 0.510160 -0.628559
C1    C     C_R   0.325671 0.938814 0.463096 -0.008150
C2    C     C_R   0.671173 0.031390 0.560992 0.009878
C3    C     C_R   0.943017 0.460079 0.327617 -0.012145
C4    C     C_R   0.056941 0.539789 0.672239 -0.002808
C5    C     C_R   0.457379 0.326025 0.950669 0.005982
C6    C     C_R   0.537611 0.669467 0.065593 0.002217
C7    C     C_R   0.570968 0.964919 0.703802 0.002677
C8    C     C_R   0.429188 0.998769 0.319881 -0.003059
C9    C     C_R   0.675719 0.542458 0.047730 -0.003504
C10   C     C_R   0.312202 0.431322 0.004906 0.001242
C11   C     C_R   0.995596 0.685285 0.571987 -0.002672
C12   C     C_R   0.004010 0.314677 0.427949 -0.007767
O13   O     O_R   0.867700 0.025880 0.612340 -0.557008
O14   O     O_R   0.132300 0.974120 0.387660 -0.562328
O15   O     O_R   0.025880 0.612340 0.867700 -0.541638
O16   O     O_R   0.974120 0.387660 0.132300 -0.568273
O17   O     O_R   0.612340 0.867700 0.025880 -0.551714
O18   O     O_R   0.387660 0.132300 0.974120 -0.556961
O19   O     O_R   0.387660 0.974120 0.132300 -0.576304
O20   O     O_R   0.612340 0.025880 0.867700 -0.558518
O21   O     O_R   0.132300 0.387660 0.974120 -0.578885
O22   O     O_R   0.867700 0.612340 0.025880 -0.556563
O23   O     O_R   0.974120 0.132300 0.387660 -0.566195
O24   O     O_R   0.025880 0.867700 0.612340 -0.561649
C13   C     C_R   0.977325 0.177183 0.430948 0.893899
C14   C     C_R   0.022377 0.822861 0.569118 0.896487
C15   C     C_R   0.176924 0.431233 0.977295 0.893006
C16   C     C_R   0.820646 0.563023 0.036284 0.895587
C17   C     C_R   0.431216 0.977154 0.177598 0.891353
C18   C     C_R   0.575435 0.992683 0.838489 0.896097
C19   C     C_R   0.560917 0.820278 0.040580 0.875240
C20   C     C_R   0.438915 0.179500 0.960315 0.909026
C21   C     C_R   0.041552 0.560012 0.820508 0.908720
C22   C     C_R   0.958447 0.439971 0.179464 0.859906
C23   C     C_R   0.820872 0.028678 0.567124 0.877280
C24   C     C_R   0.179260 0.957586 0.440038 0.881092
C25   C     C_R   0.401041 0.972913 0.415973 0.076173
C26   C     C_R   0.596208 0.995731 0.608104 0.089913
C27   C     C_R   0.978616 0.410238 0.402436 0.072031
C28   C     C_R   0.021204 0.589671 0.597444 0.077891
C29   C     C_R   0.407118 0.402580 0.984343 0.080157
C30   C     C_R   0.584029 0.583340 0.049327 0.065579
C31   C     C_R   0.278335 0.934939 0.411763 -0.204149
C32   C     C_R   0.729193 0.019790 0.610946 -0.229626
C33   C     C_R   0.936420 0.411288 0.278996 -0.198100
C34   C     C_R   0.063361 0.588686 0.720939 -0.207420
C35   C     C_R   0.409848 0.278934 0.940349 -0.213488
C36   C     C_R   0.588597 0.719706 0.066652 -0.196236
C37   C     C_R   0.618711 0.975097 0.750068 -0.211653
C38   C     C_R   0.393888 0.970186 0.274224 -0.226891
C39   C     C_R   0.721812 0.591396 0.058517 -0.219108
C40   C     C_R   0.271356 0.394036 0.973387 -0.223794
C41   C     C_R   0.027098 0.727742 0.607373 -0.209122
C42   C     C_R   0.972680 0.272236 0.392472 -0.237668
Zn1   Zn    Zn3+2 0.004880 0.004880 0.583590 1.222201
Zn2   Zn    Zn3+2 0.995120 0.995120 0.416410 1.199638
Zn3   Zn    Zn3+2 0.004880 0.583590 0.004880 1.234099
Zn4   Zn    Zn3+2 0.995120 0.416410 0.995120 1.191650
Zn5   Zn    Zn3+2 0.583590 0.004880 0.004880 1.211003
Zn6   Zn    Zn3+2 0.416410 0.995120 0.995120 1.159695
C43   C     C_R   0.499703 0.924644 0.750927 -0.101059
C44   C     C_R   0.491907 0.050254 0.274120 -0.106059
C45   C     C_R   0.942371 0.734361 0.510517 -0.108928
C46   C     C_R   0.056599 0.265520 0.489874 -0.121736
C47   C     C_R   0.716892 0.452985 0.037303 -0.046181
C48   C     C_R   0.262358 0.497523 0.053763 -0.108441
C49   C     C_R   0.300737 0.908079 0.559100 -0.065262
C50   C     C_R   0.686555 0.074460 0.466338 -0.066957
C51   C     C_R   0.552677 0.298422 0.929152 -0.080238
C52   C     C_R   0.441683 0.699243 0.085683 -0.049853
C53   C     C_R   0.912777 0.555891 0.305400 -0.076918
C54   C     C_R   0.087034 0.443880 0.694505 -0.066849
C55   C     C_R   0.322579 0.931540 0.323478 0.222948
C56   C     C_R   0.704649 0.983448 0.705859 0.220406
C57   C     C_R   0.932409 0.323334 0.322033 0.223307
C58   C     C_R   0.067364 0.676649 0.677811 0.231410
C59   C     C_R   0.323194 0.323030 0.933757 0.212912
C60   C     C_R   0.674518 0.674543 0.078212 0.224894
C61   C     C_R   0.636412 0.072494 0.417293 -0.032963
C62   C     C_R   0.348592 0.912635 0.608599 -0.043042
C63   C     C_R   0.082117 0.397767 0.643033 -0.068056
C64   C     C_R   0.918835 0.602206 0.355944 -0.046856
C65   C     C_R   0.394325 0.648439 0.081876 -0.033275
C66   C     C_R   0.597203 0.338632 0.950623 -0.033281
C67   C     C_R   0.536958 0.062576 0.321306 -0.052125
C68   C     C_R   0.450197 0.918493 0.704426 -0.052368
C69   C     C_R   0.304608 0.549187 0.062634 -0.058190
C70   C     C_R   0.680299 0.417652 0.002601 -0.075992
C71   C     C_R   0.066075 0.308237 0.541046 -0.063737
C72   C     C_R   0.930435 0.691188 0.461354 -0.054705
C73   C     C_R   0.654113 0.113222 0.321876 0.225837
C74   C     C_R   0.326107 0.877760 0.704812 0.229217
C75   C     C_R   0.116677 0.301758 0.662074 0.224493
C76   C     C_R   0.882516 0.698072 0.338089 0.234774
C77   C     C_R   0.298214 0.674640 0.107391 0.238571
C78   C     C_R   0.691860 0.303738 0.939192 0.239889
C79   C     C_R   0.603648 0.109431 0.274447 0.242036
C80   C     C_R   0.377992 0.878933 0.752243 0.241860
C81   C     C_R   0.253440 0.624530 0.098949 0.230057
C82   C     C_R   0.732783 0.341123 0.968459 0.243342
C83   C     C_R   0.109129 0.257084 0.611078 0.227230
C84   C     C_R   0.885947 0.742055 0.392383 0.233427
H1    H     H_    0.484427 0.895945 0.824205 0.192795
H2    H     H_    0.505420 0.082160 0.201719 0.206074
H3    H     H_    0.909640 0.806461 0.500599 0.202491
H4    H     H_    0.091710 0.193940 0.497584 0.193430
H5    H     H_    0.774474 0.405872 0.060983 0.229005
H6    H     H_    0.190670 0.508159 0.087436 0.190997
H7    H     H_    0.247341 0.875417 0.594688 0.207452
H8    H     H_    0.736523 0.111166 0.430934 0.200077
H9    H     H_    0.592130 0.246264 0.894376 0.197389
H10   H     H_    0.403181 0.759374 0.109001 0.211097
H11   H     H_    0.879177 0.593635 0.252422 0.208293
H12   H     H_    0.118418 0.405568 0.749157 0.210035
C85   C     C_R   0.517146 0.024630 0.416772 0.000100
C86   C     C_R   0.472129 0.954395 0.608534 0.004099
C87   C     C_R   0.031851 0.403997 0.521571 -0.000315
C88   C     C_R   0.966887 0.595743 0.479126 0.004315
C89   C     C_R   0.399982 0.523254 0.036928 0.005493
C90   C     C_R   0.588561 0.457444 0.006128 -0.005573
C91   C     C_R   0.566476 0.029826 0.464688 0.015577
C92   C     C_R   0.422110 0.950399 0.560667 0.012856
C93   C     C_R   0.444367 0.570545 0.050050 0.016851
C94   C     C_R   0.545735 0.414837 0.985410 0.020558
C95   C     C_R   0.040936 0.448687 0.571599 -0.008253
C96   C     C_R   0.959185 0.551198 0.428045 -0.000804
C97   C     C_R   0.446634 0.982889 0.464516 0.056100
C98   C     C_R   0.545066 0.993166 0.560353 0.062220
C99   C     C_R   0.990614 0.455262 0.450169 0.048818
C100  C     C_R   0.009147 0.544600 0.549762 0.052582
C101  C     C_R   0.451050 0.447395 0.001457 0.058756
C102  C     C_R   0.538821 0.537398 0.034919 0.051977
N1    N     N_R   0.298399 0.882690 0.287659 0.226884
O25   O     O_R   0.319003 0.794264 0.319038 -0.332803
O26   O     O_R   0.242773 0.925789 0.237698 -0.287353
N2    N     N_R   0.768008 0.946616 0.758458 0.224004
O27   O     O_R   0.794165 0.858942 0.795383 -0.379396
O28   O     O_R   0.786104 0.000137 0.783122 -0.274687
N3    N     N_R   0.885064 0.288521 0.294935 0.223857
O29   O     O_R   0.797773 0.324570 0.308427 -0.356628
O30   O     O_R   0.929901 0.236250 0.240948 -0.283092
N4    N     N_R   0.114619 0.711590 0.704863 0.217625
O31   O     O_R   0.069787 0.763495 0.759208 -0.255394
O32   O     O_R   0.202140 0.676717 0.690030 -0.352542
N5    N     N_R   0.291244 0.298412 0.881814 0.225513
O33   O     O_R   0.327829 0.315915 0.793849 -0.329217
O34   O     O_R   0.240233 0.244141 0.922502 -0.287197
N6    N     N_R   0.710643 0.710193 0.116701 0.218856
O35   O     O_R   0.681920 0.698999 0.204306 -0.347679
O36   O     O_R   0.763278 0.762151 0.064607 -0.260965
N7    N     N_R   0.356582 0.839934 0.849398 0.211597
O37   O     O_R   0.275803 0.869886 0.901537 -0.255519
O38   O     O_R   0.414880 0.768202 0.884742 -0.422430
N8    N     N_R   0.622095 0.151897 0.177953 0.213195
O39   O     O_R   0.704095 0.130232 0.124135 -0.250891
O40   O     O_R   0.558829 0.218511 0.145109 -0.429913
N9    N     N_R   0.846159 0.838998 0.375269 0.217638
O41   O     O_R   0.872616 0.893479 0.294894 -0.246642
O42   O     O_R   0.777343 0.872205 0.437425 -0.411594
N10   N     N_R   0.144785 0.159461 0.631690 0.218311
O43   O     O_R   0.229476 0.119527 0.630702 -0.356439
O44   O     O_R   0.090662 0.110019 0.660357 -0.308435
N11   N     N_R   0.828355 0.303138 0.960177 0.225242
O45   O     O_R   0.863140 0.215783 0.992244 -0.201051
O46   O     O_R   0.881655 0.355116 0.916243 -0.374870
N12   N     N_R   0.155836 0.651452 0.126565 0.221615
O47   O     O_R   0.110088 0.657860 0.209002 -0.346661
O48   O     O_R   0.112529 0.676403 0.067383 -0.290166
N13   N     N_R   0.251734 0.839226 0.754951 0.239846
O49   O     O_R   0.265221 0.755646 0.807516 -0.278926
O50   O     O_R   0.169224 0.890256 0.754632 -0.253573
N14   N     N_R   0.722844 0.159368 0.272347 0.238640
O51   O     O_R   0.701823 0.244698 0.225220 -0.325124
O52   O     O_R   0.807824 0.113649 0.266141 -0.259951
N15   N     N_R   0.747135 0.230939 0.897652 0.227924
O53   O     O_R   0.816836 0.241792 0.826361 -0.306486
O54   O     O_R   0.733251 0.151244 0.935625 -0.284141
N16   N     N_R   0.245261 0.751381 0.143176 0.227679
O55   O     O_R   0.246114 0.747637 0.221952 -0.299343
O56   O     O_R   0.186221 0.818463 0.104496 -0.213930
N17   N     N_R   0.840006 0.751253 0.266307 0.238974
O57   O     O_R   0.756314 0.802900 0.284376 -0.289625
O58   O     O_R   0.887488 0.754702 0.181762 -0.255077
N18   N     N_R   0.158674 0.248630 0.734065 0.231168
O59   O     O_R   0.237043 0.253276 0.725275 -0.296051
O60   O     O_R   0.124529 0.187481 0.802683 -0.230891

loop_
_geom_bond_atom_site_label_1
_geom_bond_atom_site_label_2
_geom_bond_distance
_ccdc_geom_bond_type
C90   C102  1.415400 A    
C84   N9    1.435078 S    
C30   C102  1.420115 A    
C95   C100  1.408588 A    
C1    C49   1.406877 A    
O9    C21   1.240968 A    
N5    O33   1.300369 A    
C68   C80   1.414798 A    
C75   N18   1.433780 S    
C71   C83   1.416114 A    
N9    O41   1.300987 A    
C78   N15   1.437506 S    
C2    C32   1.440158 A    
N7    O37   1.300684 A    
O13   Zn1   2.065672 S    
C67   C85   1.408613 A    
O4    Zn4   2.040749 S    
N12   O47   1.301094 A    
C4    C34   1.426589 A    
O24   Zn1   2.055233 S    
N11   O46   1.301434 A    
C50   H8    1.078596 S    
N13   O49   1.301249 A    
O11   Zn2   2.042519 S    
O6    Zn6   2.034622 S    
C15   C40   1.435819 S    
C49   H7    1.081158 S    
O16   C22   1.289493 A    
N16   O55   1.299923 A    
C16   C39   1.458975 S    
C76   C84   1.412153 A    
O22   C16   1.286168 A    
C40   C59   1.390488 A    
C75   C83   1.411090 A    
N7    O38   1.300223 A    
C55   N1    1.438411 S    
C94   C101  1.404458 A    
O2    Zn2   2.037881 S    
C93   C102  1.402785 A    
C9    C30   1.404301 A    
C7    C37   1.416375 A    
C26   C98   1.416184 A    
C87   C99   1.416256 A    
C20   C35   1.464285 S    
C4    C54   1.407934 A    
N14   O51   1.301205 A    
C39   C60   1.390503 A    
C47   C70   1.393343 A    
C35   C59   1.368394 A    
C63   C75   1.413968 A    
O11   C23   1.244947 A    
O18   Zn6   2.054340 S    
O4    C16   1.236215 A    
N17   O58   1.301148 A    
C45   H3    1.076319 S    
O10   C22   1.241211 A    
C81   N12   1.436762 S    
C4    C28   1.408319 A    
N3    O29   1.300649 A    
O7    C19   1.246294 A    
O20   Zn5   2.050776 S    
O13   C23   1.275660 A    
N4    O32   1.300599 A    
O15   Zn3   2.051285 S    
O14   C24   1.289197 A    
C83   N10   1.436859 S    
O15   C21   1.290119 A    
C12   C27   1.402052 A    
C27   C99   1.412654 A    
C74   N13   1.436138 S    
C66   C78   1.414687 A    
C24   C31   1.462409 S    
O3    C15   1.235694 A    
N5    O34   1.302082 A    
C57   N3    1.441379 S    
O17   C19   1.295936 A    
N8    O40   1.300332 A    
N9    O42   1.300592 A    
O18   C20   1.295562 A    
C85   C97   1.413442 A    
C17   C38   1.449423 S    
C53   H11   1.081088 S    
C6    C52   1.417002 A    
C52   H10   1.079326 S    
N1    O26   1.302094 A    
N10   O44   1.301235 A    
N1    O25   1.300353 A    
C76   N17   1.436144 S    
N13   O50   1.301079 A    
C54   H12   1.081354 S    
C43   C68   1.407032 A    
C38   C55   1.394342 A    
O16   Zn4   2.051285 S    
C21   C34   1.462436 S    
C9    C39   1.438629 A    
C73   N14   1.436214 S    
O8    C20   1.241425 A    
C7    C43   1.408694 A    
O9    Zn4   2.036115 S    
C10   C48   1.419647 A    
N18   O60   1.301332 A    
C79   N8    1.432424 S    
C61   C73   1.414273 A    
O7    Zn6   2.034615 S    
C51   C66   1.407393 A    
C6    C30   1.410388 A    
C12   C46   1.413465 A    
C3    C53   1.406547 A    
O12   Zn1   2.042519 S    
C53   C64   1.413318 A    
C28   C100  1.413192 A    
C78   C82   1.410639 A    
C34   C58   1.371759 A    
C29   C101  1.414680 A    
N6    O36   1.302219 A    
C31   C55   1.369638 A    
C48   H6    1.076581 S    
C8    C38   1.439029 A    
C8    C25   1.407214 A    
C72   C84   1.416541 A    
C86   C92   1.414062 A    
C45   C72   1.406954 A    
C67   C79   1.415782 A    
O2    C14   1.240979 A    
C32   C56   1.397101 A    
N11   O45   1.301084 A    
O22   Zn3   2.065287 S    
C14   C41   1.439247 S    
C90   C94   1.407839 A    
C69   C81   1.417359 A    
C13   C42   1.438601 S    
C65   C93   1.411941 A    
N4    O31   1.302222 A    
C8    C44   1.415794 A    
O21   C15   1.272573 A    
N2    O27   1.300940 A    
C18   C37   1.450534 S    
C49   C62   1.411156 A    
C65   C77   1.415778 A    
C61   C91   1.415036 A    
C5    C35   1.428327 A    
C1    C25   1.406493 A    
C10   C29   1.401382 A    
N2    O28   1.302892 A    
C6    C36   1.438659 A    
O19   Zn6   2.050776 S    
C51   H9    1.079229 S    
C70   C82   1.416055 A    
C3    C27   1.407331 A    
C2    C50   1.410583 A    
C25   C97   1.416035 A    
C22   C33   1.461596 S    
O21   Zn4   2.065288 S    
N8    O39   1.300342 A    
C64   C96   1.416636 A    
C66   C94   1.415857 A    
C88   C96   1.411975 A    
C5    C29   1.409496 A    
C92   C97   1.410154 A    
C89   C101  1.416709 A    
N10   O43   1.301037 A    
O23   C13   1.265573 A    
C41   C58   1.393650 A    
C85   C91   1.415540 A    
C46   C71   1.405417 A    
O5    C17   1.246010 A    
C64   C76   1.414580 A    
O8    Zn5   2.034613 S    
N16   O56   1.300873 A    
C52   C65   1.418782 A    
O19   C17   1.278112 A    
O3    Zn3   2.040749 S    
C77   C81   1.414739 A    
C62   C92   1.415481 A    
C72   C88   1.408631 A    
C11   C45   1.415117 A    
N18   O59   1.300471 A    
C47   H5    1.074552 S    
C96   C99   1.408625 A    
C56   N2    1.443436 S    
N12   O48   1.301267 A    
C80   N7    1.433480 S    
C70   C90   1.397014 A    
C59   N5    1.439653 S    
C36   C60   1.385418 A    
C89   C93   1.414582 A    
C43   H1    1.080567 S    
C69   C89   1.404731 A    
C73   C79   1.412598 A    
C19   C36   1.475452 S    
O14   Zn2   2.065672 S    
N6    O35   1.300404 A    
C11   C41   1.431629 A    
C50   C61   1.414780 A    
O24   C14   1.266662 A    
C86   C98   1.417322 A    
N15   O53   1.301164 A    
O5    Zn5   2.034622 S    
C44   H2    1.075078 S    
C74   C80   1.410738 A    
C7    C26   1.402384 A    
C11   C28   1.402736 A    
C2    C26   1.415340 A    
O23   Zn2   2.055232 S    
C42   C57   1.393718 A    
C3    C33   1.425624 A    
C77   N16   1.433959 S    
C68   C86   1.410725 A    
O1    Zn1   2.037881 S    
O12   C24   1.239092 A    
N14   O52   1.301106 A    
C5    C51   1.406510 A    
C54   C63   1.413459 A    
N3    O30   1.302235 A    
C60   N6    1.440660 S    
C88   C100  1.416110 A    
C46   H4    1.077735 S    
N15   O54   1.301171 A    
C63   C95   1.415765 A    
C37   C56   1.369262 A    
C62   C74   1.413903 A    
C10   C40   1.435921 A    
O10   Zn3   2.036115 S    
C33   C57   1.371547 A    
C82   N11   1.438242 S    
C87   C95   1.412046 A    
C12   C42   1.430429 A    
C91   C98   1.408697 A    
N17   O57   1.301226 A    
O6    C18   1.260437 A    
C9    C47   1.421888 A    
C48   C69   1.406654 A    
O20   C18   1.300049 A    
C23   C32   1.457957 S    
C1    C31   1.423901 A    
C44   C67   1.412379 A    
C58   N4    1.441163 S    
O1    C13   1.241533 A    
O17   Zn5   2.054339 S    
C71   C87   1.409622 A    
