data_mof_unit_36783.cif
_audit_creation_date              2012-12-10T18:24:45-0500
_audit_creation_method            fapswitch 2.2
_symmetry_space_group_name_H-M    P1
_symmetry_Int_Tables_number       1
_space_group_crystal_system       triclinic
_cell_length_a                    13.999165
_cell_length_b                    14.972161
_cell_length_c                    15.421574
_cell_angle_alpha                 91.149472
_cell_angle_beta                  85.612892
_cell_angle_gamma                 90.63463
_cell_volume                      3222.06033162

loop_
_atom_site_label
_atom_site_type_symbol
_atom_type_description
_atom_site_fract_x
_atom_site_fract_y
_atom_site_fract_z
_atom_type_partial_charge
C1    C     C_R   0.499988 0.673124 0.504617 0.883241
C2    C     C_R   0.499635 0.326808 0.497618 0.880740
C3    C     C_R   0.440205 0.188109 0.556767 -0.304594
C4    C     C_R   0.561817 0.812461 0.450280 -0.307091
C5    C     C_R   0.498497 0.231283 0.493435 -0.105045
C6    C     C_R   0.500351 0.768689 0.510804 -0.110503
C7    C     C_R   0.553214 0.183629 0.427650 0.102873
C8    C     C_R   0.440348 0.815679 0.573826 0.104630
C9    C     C_R   0.559561 0.090332 0.435471 0.112566
C10   C     C_R   0.437457 0.909596 0.568342 0.111532
C11   C     C_R   0.499723 0.046727 0.500349 0.025593
C12   C     C_R   0.500031 0.953449 0.505559 0.024353
C13   C     C_R   0.438094 0.096182 0.559047 0.132849
C14   C     C_R   0.562676 0.904286 0.447473 0.129759
C15   C     C_R   0.622848 0.039280 0.379769 -0.221889
C16   C     C_R   0.373469 0.961096 0.623151 -0.220408
C17   C     C_R   0.624266 0.947198 0.385856 -0.223546
C18   C     C_R   0.375208 0.053408 0.619567 -0.225771
C19   C     C_R   0.198443 0.427711 0.529882 -0.045438
C20   C     C_R   0.801439 0.573194 0.472393 -0.064040
C21   C     C_R   0.205705 0.572608 0.470301 -0.079780
C22   C     C_R   0.794236 0.427342 0.529700 -0.074834
C23   C     C_R   0.487182 0.499324 0.657697 0.833115
C24   C     C_R   0.513320 0.499734 0.342067 0.842492
C25   C     C_R   0.104596 0.576089 0.470706 -0.007394
C26   C     C_R   0.895271 0.424355 0.530570 -0.009521
C27   C     C_R   0.050568 0.500740 0.500641 0.041778
C28   C     C_R   0.949308 0.499805 0.500924 0.041985
C29   C     C_R   0.097941 0.426172 0.530440 -0.005476
C30   C     C_R   0.901908 0.574651 0.471760 -0.000472
C31   C     C_R   0.055892 0.651713 0.442152 0.182196
C32   C     C_R   0.943868 0.349220 0.560286 0.183835
C33   C     C_R   0.955160 0.649559 0.442826 -0.259089
C34   C     C_R   0.044587 0.351571 0.560105 -0.262685
C35   C     C_R   0.483734 0.483548 0.752871 -0.138574
C36   C     C_R   0.525617 0.487689 0.245369 -0.192540
C37   C     C_R   0.557241 0.521764 0.800943 0.138362
C38   C     C_R   0.467958 0.424842 0.201492 0.117395
C39   C     C_R   0.588515 0.475523 0.871475 -0.162109
C40   C     C_R   0.503934 0.389398 0.119883 -0.165061
C41   C     C_R   0.546398 0.394229 0.896804 0.075582
C42   C     C_R   0.593739 0.415412 0.082092 0.056428
C43   C     C_R   0.462782 0.365742 0.859974 -0.222889
C44   C     C_R   0.641136 0.487765 0.118244 -0.189230
C45   C     C_R   0.429313 0.410449 0.788970 0.154850
C46   C     C_R   0.608019 0.525034 0.199003 0.169094
C47   C     C_2   0.605320 0.330271 0.941838 0.082783
C48   C     C_2   0.645471 0.355287 0.016432 0.091423
H1    H     H_    0.235856 0.371186 0.553232 0.136561
H2    H     H_    0.763938 0.630312 0.450401 0.144071
H3    H     H_    0.428124 0.304420 0.882275 0.124782
H4    H     H_    0.707120 0.512301 0.085414 0.130084
H5    H     H_    0.672167 0.069372 0.331293 0.156666
H6    H     H_    0.320968 0.931432 0.669065 0.158297
N1    N     N_R   0.249970 0.499930 0.499970 -0.098828
N2    N     N_R   0.750030 0.500070 0.500030 -0.099740
O1    O     O_R   0.419720 0.632140 0.499990 -0.629567
O2    O     O_R   0.580280 0.367860 0.500010 -0.625516
O3    O     O_R   0.580270 0.632160 0.499980 -0.618189
O4    O     O_R   0.419730 0.367840 0.500020 -0.625093
O5    O     O_R   0.410240 0.500000 0.615800 -0.595017
O6    O     O_R   0.589760 0.500000 0.384200 -0.582978
O7    O     O_R   0.570790 0.500020 0.615800 -0.597530
O8    O     O_R   0.429210 0.499980 0.384200 -0.607526
Zn1   Zn    Zn3+2 0.392800 0.499980 0.500010 0.909582
Zn2   Zn    Zn3+2 0.607200 0.500020 0.499990 0.919206
C49   C     C_3   0.610855 0.606301 0.773072 -0.384751
C50   C     C_3   0.608163 0.676719 0.846438 -0.904835
H7    H     H_    0.533074 0.689749 0.871622 0.269422
H8    H     H_    0.649416 0.654699 0.900703 0.255159
H9    H     H_    0.640939 0.739955 0.821495 0.251753
H10   H     H_    0.686634 0.589764 0.752961 0.212106
H11   H     H_    0.579697 0.636580 0.716688 0.209566
C51   C     C_3   0.373092 0.391594 0.245222 -0.353386
C52   C     C_3   0.312954 0.330049 0.190074 -0.932275
H12   H     H_    0.298430 0.362717 0.128455 0.266048
H13   H     H_    0.349635 0.265450 0.175888 0.257485
H14   H     H_    0.243279 0.315684 0.226711 0.259406
H15   H     H_    0.387080 0.355611 0.305190 0.223942
H16   H     H_    0.328186 0.450637 0.264029 0.223775
H17   H     H_    0.250258 0.627363 0.446460 0.159630
H18   H     H_    0.749674 0.372319 0.552880 0.159905
C53   C     C_3   0.108190 0.735849 0.411359 -0.424549
C54   C     C_3   0.140888 0.791784 0.487823 -0.862780
H19   H     H_    0.077866 0.812575 0.531398 0.260776
H20   H     H_    0.190204 0.753835 0.525996 0.252440
H21   H     H_    0.179071 0.852622 0.463097 0.252280
H22   H     H_    0.170087 0.719065 0.364786 0.193576
H23   H     H_    0.060614 0.777972 0.374999 0.203973
C55   C     C_3   0.891386 0.265711 0.592509 -0.432385
C56   C     C_3   0.859788 0.207762 0.516967 -0.858409
H24   H     H_    0.811025 0.244523 0.477206 0.254271
H25   H     H_    0.923362 0.186004 0.474612 0.260748
H26   H     H_    0.821331 0.147533 0.542818 0.251710
H27   H     H_    0.938505 0.224766 0.630482 0.204773
H28   H     H_    0.828916 0.283427 0.638034 0.199239
H29   H     H_    0.917797 0.707093 0.421143 0.136185
H30   H     H_    0.081853 0.294379 0.582635 0.138403
C57   C     C_3   0.663033 0.604168 0.233623 -0.407330
C58   C     C_3   0.763703 0.578112 0.255104 -0.833521
H31   H     H_    0.798849 0.635867 0.286351 0.231035
H32   H     H_    0.760500 0.520975 0.299998 0.279946
H33   H     H_    0.808280 0.559164 0.195087 0.240819
H34   H     H_    0.668967 0.656801 0.183631 0.191924
H35   H     H_    0.624664 0.635105 0.292129 0.198888
C59   C     C_3   0.341087 0.373324 0.749262 -0.416079
C60   C     C_3   0.256669 0.436832 0.765134 -0.825098
H36   H     H_    0.273898 0.503270 0.737043 0.270709
H37   H     H_    0.193516 0.408557 0.734392 0.236705
H38   H     H_    0.237874 0.445426 0.836085 0.250673
H39   H     H_    0.356013 0.359687 0.678799 0.214063
H40   H     H_    0.319102 0.308093 0.778116 0.187055
C61   C     C_3   0.741984 0.319474 0.038800 -0.392123
C62   C     C_3   0.731790 0.256429 0.115329 -0.884919
H41   H     H_    0.706967 0.293881 0.175554 0.274075
H42   H     H_    0.680584 0.201448 0.102433 0.257807
H43   H     H_    0.802467 0.226988 0.125302 0.247497
H44   H     H_    0.781092 0.284979 0.982843 0.213227
H45   H     H_    0.789343 0.376184 0.055549 0.196499
C63   C     C_3   0.634668 0.245450 0.891027 -0.384933
C64   C     C_3   0.701575 0.265725 0.810638 -0.886552
H46   H     H_    0.664083 0.305880 0.764079 0.267005
H47   H     H_    0.766080 0.303123 0.829166 0.249206
H48   H     H_    0.724735 0.202181 0.777543 0.249005
H49   H     H_    0.668788 0.196821 0.932077 0.209287
H50   H     H_    0.569660 0.210780 0.869818 0.198058
H51   H     H_    0.467275 0.335047 0.088843 0.151315
H52   H     H_    0.652859 0.497998 0.900532 0.136952
H53   H     H_    0.395924 0.226498 0.604348 0.136162
H54   H     H_    0.607961 0.774279 0.403720 0.145637
C65   C     C_3   0.591602 0.229760 0.344554 -0.414127
C66   C     C_3   0.533859 0.199584 0.268635 -0.893932
H55   H     H_    0.551327 0.130116 0.247406 0.261934
H56   H     H_    0.455895 0.203453 0.287710 0.268378
H57   H     H_    0.549886 0.243459 0.212538 0.263031
H58   H     H_    0.585750 0.303388 0.349590 0.216211
H59   H     H_    0.669037 0.216593 0.329904 0.197595
C67   C     C_3   0.385778 0.767080 0.649059 -0.420177
C68   C     C_3   0.428390 0.788397 0.735591 -0.896371
H60   H     H_    0.507239 0.780436 0.728269 0.271877
H61   H     H_    0.412615 0.857499 0.758864 0.261070
H62   H     H_    0.397717 0.741975 0.785893 0.252866
H63   H     H_    0.308532 0.783841 0.652839 0.197900
H64   H     H_    0.388096 0.693639 0.641221 0.225372
H65   H     H_    0.673070 0.909338 0.341603 0.141813
H66   H     H_    0.326424 0.091447 0.663689 0.139623

loop_
_geom_bond_atom_site_label_1
_geom_bond_atom_site_label_2
_ccdc_geom_bond_type
C25   C31   A    
C46   C57   S    
C26   C32   A    
C27   C29   A    
C41   C43   A    
C54   H21   S    
C20   N2    A    
C62   H41   S    
C55   H27   S    
C39   C41   A    
C59   H40   S    
C63   C64   S    
C24   C36   S    
C13   C18   A    
C6    C8    A    
C22   H18   S    
C35   C37   A    
C54   H20   S    
C67   H63   S    
C1    O3    A    
O3    Zn2   S    
C68   H62   S    
C2    O4    A    
C23   O7    A    
C59   C60   S    
C11   C13   A    
C31   C53   S    
C8    C67   S    
C49   H10   S    
C64   H48   S    
C20   H2    S    
C61   H45   S    
O2    Zn2   S    
C32   C55   S    
C57   C58   S    
C50   H7    S    
C60   H36   S    
C31   C33   A    
C36   C46   A    
C49   H11   S    
C7    C65   S    
C3    C13   A    
C44   H4    S    
C40   C42   A    
C53   H22   S    
O7    Zn2   S    
C24   O8    A    
C51   H16   S    
C60   H37   S    
C14   C17   A    
C42   C44   A    
C57   H35   S    
N1    Zn1   S    
C44   C46   A    
C7    C9    A    
C59   H39   S    
C53   H23   S    
C51   C52   S    
O6    Zn2   S    
C49   C50   S    
C47   C48   D    
C54   H19   S    
C4    C6    A    
C65   H58   S    
O1    Zn1   S    
C56   H24   S    
C5    C7    A    
C63   H49   S    
C66   H55   S    
C4    H54   S    
C18   H66   S    
C40   H51   S    
C29   C34   A    
C58   H33   S    
C1    C6    S    
C32   C34   A    
C17   H65   S    
C52   H12   S    
C65   H59   S    
C1    O1    A    
C56   H25   S    
C9    C11   A    
C19   H1    S    
C62   H42   S    
C53   C54   S    
C23   O5    A    
C68   H60   S    
C58   H32   S    
C41   C47   S    
C50   H9    S    
C16   C18   A    
C42   C48   S    
C52   H13   S    
C64   H46   S    
C10   C12   A    
C8    C10   A    
C47   C63   S    
C21   H17   S    
O4    Zn1   S    
C23   C35   S    
C51   H15   S    
C60   H38   S    
C2    C5    S    
C65   C66   S    
C19   C29   A    
C15   H5    S    
C45   C59   S    
C21   N1    A    
C61   C62   S    
C38   C51   S    
C19   N1    A    
C15   C17   A    
C21   C25   A    
C24   O6    A    
C39   H52   S    
C30   C33   A    
C3    H53   S    
C12   C14   A    
C3    C5    A    
C22   N2    A    
C11   C12   A    
C2    O2    A    
C55   H28   S    
C25   C27   A    
C26   C28   A    
O8    Zn1   S    
C36   C38   A    
C9    C15   A    
C43   C45   A    
C67   H64   S    
C20   C30   A    
C56   H26   S    
C38   C40   A    
C68   H61   S    
C43   H3    S    
C55   C56   S    
C66   H57   S    
N2    Zn2   S    
C37   C49   S    
C28   C30   A    
C58   H31   S    
C34   H30   S    
C57   H34   S    
C63   H50   S    
C4    C14   A    
C52   H14   S    
C16   H6    S    
C64   H47   S    
C62   H43   S    
C67   C68   S    
C61   H44   S    
O5    Zn1   S    
C37   C39   A    
C66   H56   S    
C22   C26   A    
C27   C28   A    
C50   H8    S    
C10   C16   A    
C33   H29   S    
C48   C61   S    
C35   C45   A    
