data_mof_unit_51670.cif
_audit_creation_date              2012-12-11T14:38:15-0500
_audit_creation_method            fapswitch 2.2
_symmetry_space_group_name_H-M    P1
_symmetry_Int_Tables_number       1
_space_group_crystal_system       triclinic
_cell_length_a                    19.736485
_cell_length_b                    11.240834
_cell_length_c                    19.69077
_cell_angle_alpha                 90.095989
_cell_angle_beta                  95.40821
_cell_angle_gamma                 90.211912
_cell_volume                      4349.00176323

loop_
_atom_site_label
_atom_site_type_symbol
_atom_type_description
_atom_site_fract_x
_atom_site_fract_y
_atom_site_fract_z
_atom_type_partial_charge
C1    C     C_R   0.708843 0.994620 0.366804 0.528461
C2    C     C_R   0.278795 0.964293 0.636902 0.545357
C3    C     C_R   0.208843 0.494621 0.366804 0.528460
C4    C     C_R   0.778796 0.464294 0.636902 0.545358
C5    C     C_3   0.674414 0.451747 0.459338 0.228829
C6    C     C_3   0.323429 0.451274 0.539323 0.219193
C7    C     C_3   0.174414 0.951747 0.459338 0.228829
C8    C     C_3   0.823429 0.951274 0.539323 0.219192
C9    C     C_3   0.821395 0.501721 0.525339 -0.248607
C10   C     C_3   0.174041 0.518284 0.485455 -0.271443
C11   C     C_3   0.321395 0.001721 0.525339 -0.248606
C12   C     C_3   0.674041 0.018284 0.485455 -0.271443
C13   C     C_3   0.761889 0.311943 0.550009 -0.267807
C14   C     C_3   0.221921 0.329865 0.448067 -0.224585
C15   C     C_3   0.261889 0.811943 0.550009 -0.267808
C16   C     C_3   0.721921 0.829866 0.448067 -0.224585
C17   C     C_3   0.763692 0.443643 0.563575 -0.019100
C18   C     C_3   0.226704 0.463647 0.439855 -0.032979
C19   C     C_3   0.263692 0.943643 0.563575 -0.019101
C20   C     C_3   0.726704 0.963647 0.439855 -0.032978
C21   C     C_3   0.743793 0.405826 0.432419 0.007181
C22   C     C_3   0.254917 0.406126 0.568131 0.002566
C23   C     C_3   0.243793 0.905826 0.432419 0.007181
C24   C     C_3   0.754917 0.906126 0.568131 0.002566
C25   C     C_3   0.801304 0.499379 0.447615 -0.255317
C26   C     C_3   0.199112 0.502533 0.561192 -0.242067
C27   C     C_3   0.301303 0.999378 0.447615 -0.255318
C28   C     C_3   0.699112 0.002534 0.561192 -0.242067
C29   C     C_3   0.767214 0.294391 0.474558 -0.278089
C30   C     C_3   0.227314 0.299851 0.523116 -0.281797
C31   C     C_3   0.267214 0.794391 0.474558 -0.278089
C32   C     C_3   0.727314 0.799851 0.523116 -0.281797
C33   C     C_3   0.491280 0.309287 0.961860 -0.169797
C34   C     C_3   0.524798 0.309288 0.034834 -0.172656
C35   C     C_3   0.991280 0.809287 0.961860 -0.169797
C36   C     C_3   0.024798 0.809288 0.034834 -0.172656
C37   C     C_3   0.433470 0.101346 0.976823 -0.028373
C38   C     C_3   0.581404 0.100545 0.019388 -0.031938
C39   C     C_3   0.933470 0.601346 0.976823 -0.028373
C40   C     C_3   0.081404 0.600545 0.019388 -0.031938
C41   C     C_3   0.560297 0.127585 0.942328 -0.168207
C42   C     C_3   0.454710 0.128549 0.053975 -0.158117
C43   C     C_3   0.060297 0.627585 0.942328 -0.168207
C44   C     C_3   0.954710 0.628549 0.053975 -0.158117
C45   C     C_R   0.534429 0.179119 0.337523 0.529498
C46   C     C_R   0.464953 0.179408 0.662015 0.525382
C47   C     C_R   0.034428 0.679119 0.337523 0.529496
C48   C     C_R   0.964953 0.679408 0.662015 0.525383
C49   C     C_3   0.485196 0.175576 0.933619 0.010151
C50   C     C_3   0.530874 0.175938 0.063095 0.009580
C51   C     C_3   0.985196 0.675576 0.933619 0.010151
C52   C     C_3   0.030874 0.675938 0.063095 0.009580
C53   C     C_1   0.761753 0.427232 0.904681 0.038980
C54   C     C_1   0.241608 0.419863 0.097865 0.049649
C55   C     C_1   0.261753 0.927232 0.904681 0.038980
C56   C     C_1   0.741608 0.919863 0.097865 0.049648
C57   C     C_1   0.753468 0.410894 0.036700 -0.040516
C58   C     C_1   0.252739 0.400245 0.966639 -0.054395
C59   C     C_1   0.253468 0.910894 0.036700 -0.040516
C60   C     C_1   0.752739 0.900245 0.966639 -0.054395
C61   C     C_1   0.756188 0.417638 0.965066 -0.065741
C62   C     C_1   0.249468 0.407288 0.038141 -0.057211
C63   C     C_1   0.256188 0.917638 0.965066 -0.065741
C64   C     C_1   0.749467 0.907288 0.038141 -0.057211
C65   C     C_1   0.748294 0.397213 0.096896 0.095669
C66   C     C_1   0.255833 0.389236 0.905940 0.077916
C67   C     C_1   0.248294 0.897213 0.096896 0.095669
C68   C     C_1   0.755833 0.889236 0.905940 0.077916
C69   C     C_R   0.738538 0.364165 0.360565 0.545627
C70   C     C_R   0.262396 0.360662 0.638514 0.546107
C71   C     C_R   0.238538 0.864165 0.360565 0.545626
C72   C     C_R   0.762396 0.860662 0.638514 0.546108
C73   C     C_R   0.723535 0.951399 0.164700 0.604898
C74   C     C_R   0.277160 0.953265 0.836209 0.596560
C75   C     C_R   0.223535 0.451399 0.164700 0.604898
C76   C     C_R   0.777160 0.453265 0.836209 0.596561
C77   C     C_R   0.555142 0.181883 0.136382 0.648319
C78   C     C_R   0.462135 0.180349 0.860586 0.637949
C79   C     C_R   0.055142 0.681883 0.136382 0.648318
C80   C     C_R   0.962135 0.680349 0.860586 0.637949
C81   C     C_R   0.737606 0.360930 0.165195 0.620796
C82   C     C_R   0.263434 0.358493 0.836092 0.624266
C83   C     C_R   0.237606 0.860930 0.165195 0.620795
C84   C     C_R   0.763434 0.858493 0.836092 0.624266
C85   C     C_1   0.487590 0.166150 0.594952 0.029151
C86   C     C_1   0.510832 0.165316 0.404153 0.032848
C87   C     C_1   0.987590 0.666150 0.594952 0.029153
C88   C     C_1   0.010832 0.665316 0.404153 0.032846
C89   C     C_1   0.501633 0.155236 0.463780 0.028047
C90   C     C_1   0.496417 0.155842 0.535244 0.024916
C91   C     C_1   0.001633 0.655236 0.463780 0.028046
C92   C     C_1   0.996417 0.655842 0.535244 0.024916
C93   C     C_3   0.692331 0.491782 0.534979 -0.180949
C94   C     C_3   0.302480 0.496395 0.465449 -0.178008
C95   C     C_3   0.192331 0.991782 0.534979 -0.180948
C96   C     C_3   0.802480 0.996395 0.465449 -0.178008
Cr1   Cr    Cr6+3 0.765780 0.160710 0.267420 1.068242
Cr2   Cr    Cr6+3 0.234220 0.160710 0.732580 1.065628
Cr3   Cr    Cr6+3 0.265780 0.660710 0.267420 1.068244
Cr4   Cr    Cr6+3 0.734220 0.660710 0.732580 1.065626
Cr5   Cr    Cr6+3 0.612200 0.009560 0.248850 1.120398
Cr6   Cr    Cr6+3 0.387800 0.009560 0.751150 1.129565
Cr7   Cr    Cr6+3 0.112200 0.509560 0.248850 1.120399
Cr8   Cr    Cr6+3 0.887800 0.509560 0.751150 1.129565
Cr9   Cr    Cr6+3 0.616030 0.323720 0.248510 1.146398
Cr10  Cr    Cr6+3 0.383970 0.323720 0.751490 1.156591
Cr11  Cr    Cr6+3 0.116030 0.823720 0.248510 1.146408
Cr12  Cr    Cr6+3 0.883970 0.823720 0.751490 1.156581
H1    H     H_    0.690519 0.587334 0.539649 0.157744
H2    H     H_    0.313037 0.589893 0.460856 0.161384
H3    H     H_    0.190519 0.087334 0.539649 0.157746
H4    H     H_    0.813037 0.089893 0.460856 0.161384
H5    H     H_    0.821500 0.277398 0.467036 0.205586
H6    H     H_    0.175400 0.276358 0.536628 0.202549
H7    H     H_    0.321500 0.777398 0.467036 0.205587
H8    H     H_    0.675400 0.776358 0.536628 0.202548
H9    H     H_    0.869265 0.450196 0.536456 0.170720
H10   H     H_    0.124605 0.470333 0.475201 0.151517
H11   H     H_    0.369265 0.950196 0.536456 0.170720
H12   H     H_    0.624605 0.970333 0.475201 0.151517
H13   H     H_    0.846816 0.476687 0.420893 0.143513
H14   H     H_    0.154940 0.477491 0.589515 0.145982
H15   H     H_    0.346816 0.976687 0.420893 0.143513
H16   H     H_    0.654940 0.977491 0.589515 0.145981
H17   H     H_    0.524976 0.359713 0.929362 0.167873
H18   H     H_    0.490835 0.360388 0.066506 0.177393
H19   H     H_    0.024976 0.859713 0.929362 0.167873
H20   H     H_    0.990835 0.860388 0.066506 0.177393
H21   H     H_    0.424008 0.206590 0.067691 0.118410
H22   H     H_    0.591646 0.205188 0.928612 0.114276
H23   H     H_    0.924008 0.706590 0.067691 0.118409
H24   H     H_    0.091646 0.705188 0.928612 0.114276
H25   H     H_    0.653701 0.461457 0.568974 0.171913
H26   H     H_    0.335749 0.457728 0.428556 0.179082
H27   H     H_    0.153701 0.961457 0.568974 0.171915
H28   H     H_    0.835749 0.957728 0.428556 0.179081
H29   H     H_    0.334606 0.091713 0.543576 0.085218
H30   H     H_    0.659602 0.110133 0.474837 0.080704
H31   H     H_    0.834606 0.591714 0.543576 0.085218
H32   H     H_    0.159602 0.610133 0.474837 0.080704
H33   H     H_    0.284623 0.088515 0.430081 0.170327
H34   H     H_    0.719450 0.086214 0.583642 0.169865
H35   H     H_    0.784623 0.588515 0.430080 0.170328
H36   H     H_    0.219450 0.586214 0.583642 0.169864
H37   H     H_    0.805161 0.270965 0.578771 0.256411
H38   H     H_    0.171415 0.301598 0.426204 0.259235
H39   H     H_    0.305161 0.770965 0.578771 0.256411
H40   H     H_    0.671415 0.801599 0.426204 0.259235
H41   H     H_    0.714129 0.273166 0.565957 0.115118
H42   H     H_    0.261794 0.284396 0.421432 0.156880
H43   H     H_    0.214128 0.773165 0.565957 0.115118
H44   H     H_    0.761794 0.784396 0.421432 0.156880
H45   H     H_    0.737253 0.218144 0.455867 0.096889
H46   H     H_    0.260800 0.223505 0.531674 0.087520
H47   H     H_    0.237253 0.718144 0.455867 0.096888
H48   H     H_    0.760801 0.723506 0.531674 0.087520
O1    O     O_R   0.783100 0.287550 0.345460 -0.540220
O2    O     O_R   0.216900 0.287550 0.654540 -0.538354
O3    O     O_R   0.283100 0.787550 0.345460 -0.540219
O4    O     O_R   0.716900 0.787550 0.654540 -0.538355
O5    O     O_R   0.554710 0.081900 0.170950 -0.434894
O6    O     O_R   0.445290 0.081900 0.829050 -0.428376
O7    O     O_R   0.054710 0.581900 0.170950 -0.434895
O8    O     O_R   0.945290 0.581900 0.829050 -0.428375
O9    O     O_R   0.545650 0.284910 0.163740 -0.502324
O10   O     O_R   0.454350 0.284910 0.836260 -0.494407
O11   O     O_R   0.045650 0.784910 0.163740 -0.502323
O12   O     O_R   0.954350 0.784910 0.836260 -0.494409
O13   O     O_R   0.677950 0.374280 0.185410 -0.446429
O14   O     O_R   0.322050 0.374280 0.814590 -0.438077
O15   O     O_R   0.177950 0.874280 0.185410 -0.446427
O16   O     O_R   0.822050 0.874280 0.814590 -0.438078
O17   O     O_3   0.664670 0.164660 0.254930 -0.319566
O18   O     O_3   0.335330 0.164660 0.745070 -0.296206
O19   O     O_3   0.164670 0.664660 0.254930 -0.319568
O20   O     O_3   0.835330 0.664660 0.745070 -0.296205
O21   O     O_R   0.760020 0.037400 0.337700 -0.516782
O22   O     O_R   0.239980 0.037400 0.662300 -0.527687
O23   O     O_R   0.260020 0.537400 0.337700 -0.516781
O24   O     O_R   0.739980 0.537400 0.662300 -0.527687
O25   O     O_R   0.666600 0.921990 0.332020 -0.486298
O26   O     O_R   0.333400 0.921990 0.667980 -0.488233
O27   O     O_R   0.166600 0.421990 0.332020 -0.486298
O28   O     O_R   0.833400 0.421990 0.667980 -0.488233
O29   O     O_R   0.557260 0.082670 0.312540 -0.523292
O30   O     O_R   0.442740 0.082670 0.687460 -0.515602
O31   O     O_R   0.057260 0.582670 0.312540 -0.523292
O32   O     O_R   0.942740 0.582670 0.687460 -0.515602
O33   O     O_R   0.548410 0.285740 0.316480 -0.445437
O34   O     O_R   0.451590 0.285740 0.683520 -0.455157
O35   O     O_R   0.048410 0.785740 0.316480 -0.445435
O36   O     O_R   0.951590 0.785740 0.683520 -0.455162
O37   O     O_R   0.680500 0.375040 0.327000 -0.452877
O38   O     O_R   0.319500 0.375040 0.673000 -0.448638
O39   O     O_R   0.180500 0.875040 0.327000 -0.452872
O40   O     O_R   0.819500 0.875040 0.673000 -0.448641
O41   O     O_R   0.780350 0.286720 0.192720 -0.488807
O42   O     O_R   0.219650 0.286720 0.807280 -0.493779
O43   O     O_R   0.280350 0.786720 0.192720 -0.488807
O44   O     O_R   0.719650 0.786720 0.807280 -0.493778
O45   O     O_R   0.757470 0.036630 0.196110 -0.467101
O46   O     O_R   0.242530 0.036630 0.803890 -0.476760
O47   O     O_R   0.257470 0.536630 0.196110 -0.467101
O48   O     O_R   0.742530 0.536630 0.803890 -0.476760
O49   O     O_R   0.663840 0.921160 0.179280 -0.448282
O50   O     O_R   0.336160 0.921160 0.820720 -0.450781
O51   O     O_R   0.163840 0.421160 0.179280 -0.448281
O52   O     O_R   0.836160 0.421160 0.820720 -0.450782
C97   C     C_2   0.426074 0.381668 0.958305 0.280654
H49   H     H_    0.386871 0.360544 0.991116 0.096762
O53   O     O_2   0.419356 0.469930 0.922241 -0.448987
C98   C     C_2   0.589446 0.381712 0.038752 0.262500
H50   H     H_    0.627990 0.360197 0.005550 0.099170
O54   O     O_2   0.595905 0.470791 0.074407 -0.455589
C99   C     C_2   0.926074 0.881668 0.958305 0.280655
H51   H     H_    0.886871 0.860544 0.991116 0.096762
O55   O     O_2   0.919356 0.969930 0.922241 -0.448988
C100  C     C_2   0.089446 0.881712 0.038752 0.262500
H52   H     H_    0.127990 0.860197 0.005550 0.099170
O56   O     O_2   0.095905 0.970791 0.074407 -0.455588
C101  C     C_2   0.359883 0.140818 0.962080 0.126909
H53   H     H_    0.326597 0.145155 0.002927 0.121898
O57   O     O_2   0.335543 0.162414 0.904399 -0.512056
C102  C     C_2   0.655396 0.138403 0.033514 0.119042
H54   H     H_    0.688647 0.140052 0.992570 0.129219
O58   O     O_2   0.680057 0.161762 0.090869 -0.530014
C103  C     C_2   0.859883 0.640818 0.962080 0.126909
H55   H     H_    0.826597 0.645155 0.002927 0.121898
O59   O     O_2   0.835543 0.662414 0.904399 -0.512055
C104  C     C_2   0.155396 0.638403 0.033514 0.119042
H56   H     H_    0.188647 0.640052 0.992570 0.129219
O60   O     O_2   0.180057 0.661762 0.090869 -0.530014
C105  C     C_2   0.581545 0.036073 0.890763 0.215836
H57   H     H_    0.570774 0.942316 0.894682 0.180829
O61   O     O_2   0.613064 0.067749 0.843368 -0.517667
C106  C     C_2   0.431089 0.037230 0.104388 0.234148
H58   H     H_    0.442089 0.943570 0.100824 0.178311
O62   O     O_2   0.397305 0.068680 0.150110 -0.510094
C107  C     C_2   0.081545 0.536073 0.890763 0.215836
H59   H     H_    0.070774 0.442316 0.894682 0.180829
O63   O     O_2   0.113064 0.567749 0.843368 -0.517667
C108  C     C_2   0.931089 0.537230 0.104388 0.234148
H60   H     H_    0.942089 0.443570 0.100824 0.178311
O64   O     O_2   0.897305 0.568680 0.150110 -0.510095
C109  C     C_2   0.582337 0.966440 0.032044 0.274728
H61   H     H_    0.612001 0.909501 0.001929 0.104824
O65   O     O_2   0.554008 0.919102 0.077070 -0.486828
C110  C     C_2   0.430236 0.966978 0.964101 0.283464
H62   H     H_    0.397549 0.912401 0.992598 0.101733
O66   O     O_2   0.459859 0.917161 0.920855 -0.489464
C111  C     C_2   0.082337 0.466440 0.032044 0.274728
H63   H     H_    0.112001 0.409501 0.001929 0.104824
O67   O     O_2   0.054008 0.419102 0.077070 -0.486828
C112  C     C_2   0.930236 0.466978 0.964101 0.283464
H64   H     H_    0.897548 0.412401 0.992598 0.101732
O68   O     O_2   0.959859 0.417161 0.920855 -0.489464
C113  C     C_2   0.622313 0.354451 0.459839 0.307908
H65   H     H_    0.627436 0.275702 0.429929 0.055325
O69   O     O_2   0.571146 0.369037 0.489191 -0.426461
C114  C     C_2   0.372953 0.350761 0.534232 0.300408
H66   H     H_    0.369273 0.272571 0.565009 0.059758
O70   O     O_2   0.421205 0.362053 0.500228 -0.433916
C115  C     C_2   0.122313 0.854451 0.459839 0.307907
H67   H     H_    0.127436 0.775702 0.429929 0.055325
O71   O     O_2   0.071146 0.869037 0.489191 -0.426461
C116  C     C_2   0.872953 0.850761 0.534232 0.300408
H68   H     H_    0.869273 0.772572 0.565009 0.059758
O72   O     O_2   0.921205 0.862053 0.500228 -0.433916
S1    S     S_3+6 0.630069 0.566283 0.407356 0.015256
O73   O     O_2   0.597887 0.653172 0.452561 -0.313241
O74   O     O_2   0.677196 0.627207 0.362796 -0.343437
O75   O     O_3   0.566172 0.507523 0.355383 -0.430771
H69   H     H_    0.545430 0.575808 0.329474 0.360884
S2    S     S_3+6 0.373110 0.561357 0.592022 0.018756
O76   O     O_2   0.397956 0.659546 0.548905 -0.318109
O77   O     O_2   0.333018 0.610943 0.646764 -0.332188
O78   O     O_3   0.443304 0.498799 0.631439 -0.431103
H70   H     H_    0.466169 0.563238 0.659423 0.362841
S3    S     S_3+6 0.130069 0.066283 0.407356 0.015255
O79   O     O_2   0.097887 0.153172 0.452562 -0.313252
O80   O     O_2   0.177196 0.127207 0.362796 -0.343425
O81   O     O_3   0.066172 0.007523 0.355383 -0.430773
H71   H     H_    0.045419 0.075812 0.329486 0.360886
S4    S     S_3+6 0.873110 0.061357 0.592022 0.018757
O82   O     O_2   0.897956 0.159546 0.548906 -0.318099
O83   O     O_2   0.833018 0.110943 0.646764 -0.332198
O84   O     O_3   0.943304 0.998799 0.631439 -0.431102
H72   H     H_    0.966161 0.063231 0.659435 0.362840

loop_
_geom_bond_atom_site_label_1
_geom_bond_atom_site_label_2
_ccdc_geom_bond_type
C58   C62   S    
C39   C51   S    
C82   O14   A    
C109  O65   D    
C67   C83   S    
C8    C24   S    
C109  H61   S    
Cr3   O3    S    
C16   C32   S    
S2    O78   S    
C9    H9    S    
C14   C18   S    
Cr5   O17   S    
C107  H59   S    
C8    C96   S    
C13   H37   S    
C87   C92   T    
C11   H11   S    
C102  H54   S    
C32   H8    S    
C15   H43   S    
C100  H52   S    
C44   C108  S    
C111  H63   S    
C96   H28   S    
C39   C112  S    
Cr11  O15   S    
Cr7   O51   S    
C106  H58   S    
C44   H23   S    
C15   C19   S    
C26   H36   S    
C96   H4    S    
C11   C19   S    
O81   H71   S    
Cr6   O30   S    
C37   C110  S    
Cr9   O13   S    
C12   C28   S    
Cr7   O27   S    
Cr10  O10   S    
C13   C29   S    
S4    O82   D    
C4    O24   A    
C48   O32   A    
C93   H25   S    
C99   O55   D    
C81   O41   A    
C41   H22   S    
C8    S4    S    
C7    S3    S    
C111  O67   D    
Cr3   O43   S    
C83   O15   A    
C77   O9    A    
C6    C22   S    
Cr12  O20   S    
Cr11  O39   S    
C116  O72   D    
C49   C78   S    
C3    C18   S    
C6    C114  S    
C113  H65   S    
C2    O26   A    
S3    O81   S    
C38   C102  S    
C37   C42   S    
C3    O23   A    
C51   C80   S    
C80   O8    A    
C29   H5    S    
Cr11  O19   S    
C59   C67   T    
C69   O37   A    
C32   H48   S    
C55   C74   S    
C42   C106  S    
C58   C66   T    
C40   C43   S    
C12   H12   S    
C35   C36   S    
C106  O62   D    
O75   H69   S    
C6    C94   S    
C55   C63   T    
C45   O29   A    
Cr4   O20   S    
C112  O68   D    
C33   C97   S    
C56   C64   T    
C7    C115  S    
S2    O76   D    
C81   O13   A    
Cr12  O40   S    
C18   C94   S    
C105  H57   S    
C39   C103  S    
C36   C52   S    
C16   C20   S    
C71   O39   A    
C40   C111  S    
C46   C85   S    
Cr3   O47   S    
C34   H18   S    
C44   C52   S    
Cr8   O52   S    
Cr12  O12   S    
C20   C96   S    
C35   H19   S    
Cr1   O1    S    
Cr9   O17   S    
O78   H70   S    
Cr10  O14   S    
C12   C20   S    
C25   H35   S    
C1    O21   A    
C46   O34   A    
C5    C93   S    
Cr5   O29   S    
C110  H62   S    
Cr5   O49   S    
C31   H7    S    
C22   C70   S    
C110  O66   D    
C5    C113  S    
C33   C34   S    
C75   O51   A    
C77   O5    A    
Cr8   O32   S    
C85   C90   T    
Cr11  O11   S    
C78   O10   A    
Cr1   O17   S    
Cr7   O19   S    
Cr2   O42   S    
C73   O49   A    
C9    C25   S    
C68   C84   S    
Cr1   O41   S    
C115  H67   S    
Cr7   O31   S    
C94   H26   S    
C38   C41   S    
C8    C116  S    
C26   H14   S    
C36   C100  S    
C108  O64   D    
Cr6   O50   S    
C82   O42   A    
C27   H15   S    
C54   C62   T    
C74   O46   A    
C75   O47   A    
C72   O40   A    
C14   C30   S    
Cr10  O38   S    
C73   O45   A    
C15   C31   S    
C94   H2    S    
C10   C26   S    
C46   O30   A    
C54   C75   S    
C21   C69   S    
Cr1   O21   S    
C70   O2    A    
Cr6   O26   S    
C76   O48   A    
Cr9   O37   S    
C99   H51   S    
C24   C32   S    
Cr3   O23   S    
C101  H53   S    
C10   H10   S    
C23   C71   S    
C66   C82   S    
C37   C49   S    
Cr4   O4    S    
C108  H60   S    
C69   O1    A    
C103  H55   S    
C88   C91   T    
C11   C27   S    
C70   O38   A    
C57   C65   T    
C14   H42   S    
C13   H41   S    
C33   H17   S    
C97   H49   S    
Cr10  O18   S    
C48   C87   S    
Cr3   O19   S    
C107  O63   D    
C4    O28   A    
C104  O60   D    
C28   H34   S    
Cr8   O20   S    
Cr4   O48   S    
C34   C98   S    
C42   C50   S    
C4    C17   S    
Cr4   O44   S    
C114  O70   D    
C103  O59   D    
C98   O54   D    
C3    O27   A    
C78   O6    A    
C23   C27   S    
C25   H13   S    
C10   H32   S    
O84   H72   S    
C35   C51   S    
C43   C107  S    
C12   H30   S    
C59   C63   S    
C53   C76   S    
C17   C93   S    
Cr10  O34   S    
C83   O43   A    
Cr4   O24   S    
C50   C77   S    
C36   H20   S    
C47   O31   A    
C19   C95   S    
Cr6   O6    S    
C24   C72   S    
C29   H45   S    
Cr2   O22   S    
C30   H6    S    
C9    C17   S    
C115  O71   D    
C21   C25   S    
C97   O53   D    
C1    C20   S    
C1    O25   A    
C56   C73   S    
C22   C30   S    
C84   O44   A    
C2    C19   S    
C33   C49   S    
C5    S1    S    
C53   C61   T    
Cr2   O46   S    
S4    O84   S    
Cr12  O36   S    
C24   C28   S    
C40   C104  S    
C79   O7    A    
C114  H66   S    
C84   O16   A    
C86   C89   T    
C102  O58   D    
C21   C29   S    
Cr8   O8    S    
C34   C50   S    
C31   H47   S    
C7    C95   S    
C28   H16   S    
C57   C61   S    
C39   C44   S    
C38   C50   S    
Cr1   O45   S    
S1    O74   D    
Cr6   O18   S    
C41   C49   S    
C71   O3    A    
C14   H38   S    
Cr7   O7    S    
C72   O4    A    
C13   C17   S    
C100  O56   D    
C60   C64   S    
C79   O11   A    
C47   C88   S    
C112  H64   S    
S4    O83   D    
C45   C86   S    
C11   H29   S    
S3    O79   D    
C16   H44   S    
C101  O57   D    
C40   C52   S    
C15   H39   S    
C9    H31   S    
C43   C51   S    
C16   H40   S    
C98   H50   S    
C7    C23   S    
C41   C105  S    
C10   C18   S    
Cr12  O16   S    
Cr2   O18   S    
C74   O50   A    
Cr5   O5    S    
C27   H33   S    
Cr9   O33   S    
Cr9   O9    S    
C43   H24   S    
C42   H21   S    
S2    O77   D    
S3    O80   D    
C47   O35   A    
C104  H56   S    
C6    S2    S    
Cr5   O25   S    
C48   O36   A    
C116  H68   S    
C52   C79   S    
C37   C101  S    
Cr11  O35   S    
Cr2   O2    S    
C30   H46   S    
C5    C21   S    
C95   H27   S    
C60   C68   T    
C22   C26   S    
S1    O75   S    
C105  O61   D    
C45   O33   A    
C65   C81   S    
C38   C109  S    
Cr8   O28   S    
C95   H3    S    
C2    O22   A    
C113  O69   D    
C89   C90   S    
S1    O73   D    
C35   C99   S    
C80   O12   A    
C91   C92   S    
C76   O52   A    
C93   H1    S    
C23   C31   S    
