data_mof_unit_24677.cif
_audit_creation_date              2012-12-10T17:11:07-0500
_audit_creation_method            fapswitch 2.2
_symmetry_space_group_name_H-M    P1
_symmetry_Int_Tables_number       1
_space_group_crystal_system       triclinic
_cell_length_a                    10.019032
_cell_length_b                    10.605934
_cell_length_c                    16.621151
_cell_angle_alpha                 89.880894
_cell_angle_beta                  85.171444
_cell_angle_gamma                 87.893264
_cell_volume                      1758.7247111

loop_
_atom_site_label
_atom_site_type_symbol
_atom_type_description
_atom_site_fract_x
_atom_site_fract_y
_atom_site_fract_z
_atom_type_partial_charge
C1    C     C_R   0.499024 0.736903 0.489745 0.905782
C2    C     C_R   0.355945 0.441510 0.782393 -0.208072
C3    C     C_R   0.441598 0.313648 0.162752 0.109450
C4    C     C_R   0.430448 0.367486 0.239618 -0.235675
C5    C     C_R   0.648525 0.458900 0.214698 -0.222791
C6    C     C_R   0.660366 0.407834 0.137586 -0.214654
C7    C     C_R   0.556384 0.338555 0.110366 0.146777
C8    C     C_2   0.466878 0.410417 0.990550 -0.308345
C9    C     C_2   0.552920 0.328036 0.022832 0.069759
C10   C     C_R   0.531235 0.443198 0.264692 -0.050983
C11   C     C_2   0.606189 0.065636 0.459304 -0.195527
C12   C     C_R   0.481486 0.499881 0.653606 0.867826
C13   C     C_2   0.508653 0.127983 0.503853 -0.351894
C14   C     C_2   0.609500 0.929697 0.460253 -0.192955
C15   C     C_2   0.496876 0.864855 0.458951 -0.060325
C16   C     C_2   0.084444 0.453034 0.442490 -0.150275
C17   C     C_2   0.936269 0.427779 0.452911 0.108008
C18   C     C_R   0.502128 0.261825 0.501765 0.935872
C19   C     C_R   0.518793 0.491186 0.346944 0.841221
C20   C     C_R   0.471535 0.488709 0.741081 -0.036696
C21   C     C_R   0.582642 0.515575 0.783170 -0.207940
C22   C     C_R   0.580417 0.490508 0.865020 -0.167653
C23   C     C_R   0.468391 0.436093 0.904851 0.197802
C24   C     C_R   0.354387 0.415618 0.864501 -0.172023
H1    H     H_    0.746716 0.429953 0.097007 0.139460
H2    H     H_    0.429078 0.079956 0.538739 0.152875
H3    H     H_    0.093373 0.516706 0.553433 0.160014
H4    H     H_    0.666305 0.512498 0.897225 0.129112
N1    N     N_2   0.147950 0.498670 0.499150 -0.203534
N2    N     N_2   0.852290 0.498640 0.499130 -0.215554
O1    O     O_R   0.386960 0.680940 0.500010 -0.607940
O2    O     O_R   0.613100 0.680900 0.499990 -0.623237
O3    O     O_R   0.373570 0.500040 0.615810 -0.614383
O4    O     O_R   0.599710 0.500000 0.615790 -0.606831
O5    O     O_R   0.386900 0.319100 0.500010 -0.608983
O6    O     O_R   0.613040 0.319060 0.499990 -0.620632
O7    O     O_R   0.400290 0.500000 0.384210 -0.627821
O8    O     O_R   0.626430 0.499960 0.384190 -0.628657
Zn1   Zn    Zn3+2 0.349000 0.500030 0.500020 0.921619
Zn2   Zn    Zn3+2 0.651000 0.499970 0.499980 0.917041
H5    H     H_    0.671835 0.554202 0.752638 0.152601
H6    H     H_    0.686310 0.113815 0.425669 0.173237
H7    H     H_    0.703642 0.884719 0.474771 0.164234
C25   C     C_3   0.370625 0.916429 0.422242 -0.399609
C26   C     C_3   0.343864 0.843404 0.345890 -0.339930
C27   C     C_3   0.218841 0.896852 0.309515 -0.908105
H8    H     H_    0.129343 0.888029 0.353095 0.267825
H9    H     H_    0.230734 0.997851 0.293706 0.268568
H10   H     H_    0.202822 0.843671 0.253886 0.255906
H11   H     H_    0.431291 0.849957 0.300397 0.215580
H12   H     H_    0.328899 0.742387 0.359828 0.251514
H13   H     H_    0.283477 0.910837 0.467994 0.203344
H14   H     H_    0.378477 0.016513 0.403768 0.227989
H15   H     H_    0.143229 0.423298 0.387767 0.158479
C28   C     C_3   0.885371 0.313454 0.411473 -0.321801
C29   C     C_3   0.985847 0.247799 0.348361 -0.443587
C30   C     C_3   0.924430 0.135938 0.309361 -0.897343
H16   H     H_    0.902263 0.061165 0.354883 0.259645
H17   H     H_    0.830856 0.166281 0.282194 0.266974
H18   H     H_    0.996433 0.095872 0.260888 0.254874
H19   H     H_    0.016483 0.315941 0.299941 0.220586
H20   H     H_    0.076094 0.212523 0.377313 0.233570
H21   H     H_    0.856365 0.244048 0.459252 0.205054
H22   H     H_    0.796126 0.341501 0.380288 0.243620
H23   H     H_    0.890673 0.577342 0.523496 0.150906
H24   H     H_    0.342670 0.350016 0.280226 0.143866
H25   H     H_    0.728786 0.514026 0.234274 0.156063
C31   C     C_3   0.649523 0.240248 0.971691 -0.398560
C32   C     C_3   0.740455 0.155295 0.020789 -0.364381
C33   C     C_3   0.824911 0.062134 0.966203 -0.889102
H26   H     H_    0.759236 0.999100 0.935324 0.262404
H27   H     H_    0.888996 0.113492 0.920235 0.260394
H28   H     H_    0.890622 0.003352 0.003054 0.251345
H29   H     H_    0.809377 0.214028 0.052304 0.223694
H30   H     H_    0.679529 0.101294 0.066837 0.219179
H31   H     H_    0.589232 0.179658 0.935253 0.212320
H32   H     H_    0.715086 0.296768 0.929600 0.202219
H33   H     H_    0.265992 0.377153 0.896111 0.128228
C34   C     C_3   0.326618 0.237830 0.136906 -0.444210
C35   C     C_3   0.368649 0.098866 0.122161 -0.332816
C36   C     C_3   0.250877 0.023176 0.099146 -0.893688
H34   H     H_    0.167374 0.029347 0.147435 0.259267
H35   H     H_    0.214440 0.059548 0.041893 0.263344
H36   H     H_    0.283470 0.922566 0.090538 0.251188
H37   H     H_    0.448808 0.090769 0.072107 0.228041
H38   H     H_    0.407486 0.057739 0.177576 0.225485
H39   H     H_    0.241141 0.242343 0.184244 0.196376
H40   H     H_    0.287942 0.279053 0.081658 0.204711
H41   H     H_    0.269041 0.420614 0.750872 0.152061
H42   H     H_    0.397380 0.469156 0.029451 0.149201

loop_
_geom_bond_atom_site_label_1
_geom_bond_atom_site_label_2
_ccdc_geom_bond_type
C4    H24   S    
C28   C29   S    
H3    N1    S    
C5    H25   S    
C3    C34   S    
C34   H39   S    
C36   H34   S    
C26   C27   S    
C27   H10   S    
O3    Zn1   S    
C13   C18   S    
O4    Zn2   S    
C15   C25   S    
C3    C7    A    
C5    C6    A    
C11   C14   S    
C30   H17   S    
C6    H1    S    
C26   H12   S    
C1    O1    A    
C8    C23   S    
C29   C30   S    
C11   H6    S    
C35   H38   S    
C19   O7    A    
C31   C32   S    
C25   H14   S    
C8    C9    D    
C28   H21   S    
C23   C24   A    
C33   H26   S    
C1    C15   S    
C18   O5    A    
C17   C28   S    
C25   H13   S    
C22   H4    S    
C21   C22   A    
C17   N2    D    
N1    Zn1   S    
C34   H40   S    
C36   H35   S    
C27   H9    S    
C2    C20   A    
O6    Zn2   S    
C16   C17   S    
C30   H18   S    
C16   N1    D    
C1    O2    A    
C2    H41   S    
O5    Zn1   S    
C35   H37   S    
C19   O8    A    
C10   C19   S    
C28   H22   S    
C12   C20   S    
C33   H28   S    
N2    Zn2   S    
C32   H29   S    
C29   H19   S    
C21   H5    S    
C24   H33   S    
C2    C24   A    
C29   H20   S    
C13   H2    S    
C8    H42   S    
C12   O4    A    
C3    C4    A    
C36   H36   S    
C25   C26   S    
C31   H32   S    
C7    C9    S    
C27   H8    S    
C14   C15   D    
C35   C36   S    
C6    C7    A    
C31   H31   S    
C9    C31   S    
C5    C10   A    
O7    Zn1   S    
O8    Zn2   S    
C11   C13   D    
C30   H16   S    
C18   O6    A    
C26   H11   S    
O1    Zn1   S    
C32   H30   S    
O2    Zn2   S    
C32   C33   S    
C16   H15   S    
N2    H23   S    
C34   C35   S    
C20   C21   A    
C22   C23   A    
C33   H27   S    
C12   O3    A    
C4    C10   A    
C14   H7    S    
