data_mof_unit_40371.cif
_audit_creation_date              2012-12-10T20:28:38-0500
_audit_creation_method            fapswitch 2.2
_symmetry_space_group_name_H-M    P1
_symmetry_Int_Tables_number       1
_space_group_crystal_system       triclinic
_cell_length_a                    10.482607
_cell_length_b                    10.699557
_cell_length_c                    9.889432
_cell_angle_alpha                 89.372864
_cell_angle_beta                  87.236854
_cell_angle_gamma                 90.822412
_cell_volume                      1107.71235378

loop_
_atom_site_label
_atom_site_type_symbol
_atom_type_description
_atom_site_fract_x
_atom_site_fract_y
_atom_site_fract_z
_atom_type_partial_charge
C1    C     C_R   0.504594 0.259861 0.499897 0.897862
C2    C     C_R   0.531752 0.936874 0.371346 -0.230532
C3    C     C_R   0.530552 0.871331 0.495004 -0.084255
C4    C     C_R   0.260233 0.519080 0.503324 0.904999
C5    C     C_R   0.555513 0.935002 0.613255 0.074479
C6    C     C_3   0.493479 0.922999 0.752211 -0.545621
C7    C     C_3   0.487491 0.064375 0.751291 0.028688
C8    C     C_R   0.466877 0.394391 0.074557 0.221286
C9    C     C_R   0.545341 0.599871 0.068378 -0.166529
C10   C     C_R   0.545421 0.599630 0.924802 -0.136148
C11   C     C_R   0.463995 0.395332 0.932330 0.282361
C12   C     C_R   0.052653 0.578529 0.632753 0.015051
C13   C     C_3   0.335419 0.332501 0.939989 -0.539920
C14   C     C_3   0.343390 0.325094 0.092271 -0.516205
C15   C     C_R   0.505850 0.740038 0.498896 0.858986
C16   C     C_R   0.738477 0.522652 0.497354 0.891237
C17   C     C_R   0.095571 0.571994 0.766691 -0.210700
C18   C     C_R   0.010853 0.592974 0.878247 0.261072
C19   C     C_R   0.891049 0.642186 0.858194 -0.215564
C20   C     C_R   0.848384 0.649575 0.728562 -0.173619
C21   C     C_R   0.922536 0.601209 0.619312 0.117473
C22   C     C_3   0.228944 0.682008 0.203271 -0.714684
C23   C     C_R   0.128999 0.565034 0.509815 -0.163276
C24   C     C_3   0.698913 0.124783 0.844183 -0.733915
C25   C     C_3   0.004613 0.437142 0.053130 -0.811706
C26   C     C_R   0.076155 0.604607 0.387246 0.221914
C27   C     C_R   0.944670 0.586287 0.377636 -0.314327
C28   C     C_R   0.869292 0.570366 0.496404 -0.167885
C29   C     C_R   0.553435 0.063130 0.613680 0.137226
C30   C     C_R   0.527475 0.128682 0.496268 -0.152927
C31   C     C_R   0.530395 0.066077 0.371962 -0.213815
H1    H     H_    0.559172 0.885004 0.826453 0.195082
H2    H     H_    0.828573 0.668195 0.943364 0.128159
H3    H     H_    0.755026 0.687781 0.714086 0.153414
H4    H     H_    0.900173 0.596704 0.281899 0.170963
H5    H     H_    0.521294 0.115265 0.276676 0.165500
H6    H     H_    0.522767 0.889476 0.275949 0.158225
H7    H     H_    0.397656 0.876875 0.753462 0.196027
H8    H     H_    0.075185 0.778284 0.290158 0.217644
H9    H     H_    0.206657 0.736379 0.111230 0.203815
H10   H     H_    0.231056 0.582023 0.177034 0.269715
H11   H     H_    0.324257 0.713972 0.232546 0.267755
H12   H     H_    0.388227 0.098369 0.748377 0.116683
H13   H     H_    0.524230 0.102014 0.953091 0.217328
H14   H     H_    0.737145 0.173741 0.932380 0.221447
H15   H     H_    0.732821 0.176982 0.751336 0.252272
H16   H     H_    0.736349 0.028251 0.841882 0.223745
H17   H     H_    0.012194 0.627077 0.079650 0.229522
H18   H     H_    0.040473 0.416016 0.154475 0.244518
H19   H     H_    0.042785 0.366799 0.980667 0.252742
H20   H     H_    0.898551 0.429635 0.059865 0.246298
H21   H     H_    0.580041 0.681548 0.119443 0.139938
H22   H     H_    0.580632 0.680493 0.868587 0.135742
H23   H     H_    0.259183 0.394550 0.907661 0.218218
H24   H     H_    0.333581 0.239485 0.893783 0.200420
H25   H     H_    0.268138 0.377584 0.148445 0.226090
H26   H     H_    0.356486 0.228327 0.130648 0.191484
H27   H     H_    0.192105 0.554258 0.790085 0.180441
N1    N     N_R   0.499160 0.499140 0.142800 -0.109578
N2    N     N_R   0.499160 0.499180 0.857150 -0.110808
N3    N     N_2   0.135820 0.706438 0.312140 -0.316384
N4    N     N_2   0.560441 0.122617 0.856465 -0.282598
N5    N     N_2   0.044962 0.562091 0.010840 -0.329386
O1    O     O_R   0.500020 0.316790 0.614690 -0.596756
O2    O     O_R   0.500000 0.316760 0.385350 -0.614573
O3    O     O_R   0.316770 0.500020 0.614690 -0.635223
O4    O     O_R   0.316760 0.499980 0.385350 -0.606699
O5    O     O_R   0.500000 0.683240 0.614650 -0.636615
O6    O     O_R   0.499980 0.683210 0.385310 -0.647279
O7    O     O_R   0.683240 0.500020 0.614650 -0.611210
O8    O     O_R   0.683230 0.499980 0.385310 -0.612370
Zn1   Zn    Zn3+2 0.500010 0.500020 0.653130 0.939590
Zn2   Zn    Zn3+2 0.499990 0.499980 0.346870 0.925694

loop_
_geom_bond_atom_site_label_1
_geom_bond_atom_site_label_2
_ccdc_geom_bond_type
C12   C17   A    
C16   C28   S    
C4    O4    A    
C10   N2    A    
C25   H20   S    
C7    N4    S    
O6    Zn2   S    
C29   C30   A    
O4    Zn2   S    
C7    H12   S    
O2    Zn2   S    
C9    C10   A    
N1    Zn2   S    
C14   H25   S    
C19   C20   A    
C12   C23   A    
C17   H27   S    
O5    Zn1   S    
C24   H15   S    
C22   H9    S    
C13   H24   S    
C6    H7    S    
C2    C3    A    
C20   H3    S    
C9    H21   S    
C13   C14   S    
C16   O7    A    
C22   N3    S    
C4    O3    A    
C11   C13   S    
C2    H6    S    
C26   C27   A    
C22   H11   S    
C16   O8    A    
C8    C11   A    
C7    C29   S    
C15   O5    A    
C12   C21   A    
C1    C30   S    
C26   N3    S    
H13   N4    S    
C17   C18   A    
C6    C7    S    
C5    C29   A    
O1    Zn1   S    
C8    N1    A    
C25   N5    S    
C5    C6    S    
C15   O6    A    
C25   H18   S    
C18   N5    S    
C22   H10   S    
O7    Zn1   S    
C24   H14   S    
C11   N2    A    
C1    O1    A    
C3    C5    A    
H8    N3    S    
C3    C15   S    
C20   C21   A    
C10   H22   S    
C13   H23   S    
C19   H2    S    
C23   C26   A    
C27   C28   A    
O8    Zn2   S    
C14   H26   S    
N2    Zn1   S    
C25   H19   S    
C18   C19   A    
H17   N5    S    
C24   N4    S    
C8    C14   S    
C27   H4    S    
C4    C23   S    
C31   H5    S    
C24   H16   S    
C9    N1    A    
C1    O2    A    
C21   C28   A    
C30   C31   A    
O3    Zn1   S    
C2    C31   A    
C6    H1    S    
