data_mof_unit_13096.cif
_audit_creation_date              2013-03-05T15:57:40-0500
_audit_creation_method            fapswitch 2.2
_symmetry_space_group_name_H-M    P1
_symmetry_Int_Tables_number       1
_space_group_crystal_system       triclinic
_cell_length_a                    19.597311
_cell_length_b                    17.534622
_cell_length_c                    12.600836
_cell_angle_alpha                 89.94644
_cell_angle_beta                  99.585622
_cell_angle_gamma                 89.996795
_cell_volume                      4269.58477185

loop_
_atom_site_label
_atom_site_type_symbol
_atom_site_description
_atom_site_fract_x
_atom_site_fract_y
_atom_site_fract_z
_atom_type_partial_charge
O1    O     O_R   0.448200 0.076800 0.373930 -0.586185
O2    O     O_R   0.448200 0.923200 0.373930 -0.587079
O3    O     O_R   0.948200 0.576800 0.373930 -0.586063
O4    O     O_R   0.948200 0.423200 0.373930 -0.587115
O5    O     O_R   0.414750 0.076790 0.542400 -0.570747
O6    O     O_R   0.414750 0.923210 0.542400 -0.570727
O7    O     O_R   0.914750 0.576790 0.542400 -0.570962
O8    O     O_R   0.914750 0.423210 0.542400 -0.570577
C1    C     C_R   0.412303 0.104622 0.443837 0.875664
C2    C     C_R   0.412047 0.895662 0.443685 0.873136
C3    C     C_R   0.912225 0.604543 0.443780 0.874944
C4    C     C_R   0.912191 0.395515 0.443780 0.874235
Zn1   Zn    Zn3+2 0.522330 0.000000 0.387520 0.988591
Zn2   Zn    Zn3+2 0.022330 0.500000 0.387520 0.988550
Zn3   Zn    Zn3+2 0.477660 0.000000 0.612480 0.969223
Zn4   Zn    Zn3+2 0.977660 0.500000 0.612480 0.969188
O9    O     O_R   0.585240 0.923200 0.457600 -0.603488
O10   O     O_R   0.585240 0.076800 0.457600 -0.607650
O11   O     O_R   0.085240 0.423200 0.457600 -0.603168
O12   O     O_R   0.085240 0.576800 0.457600 -0.607755
O13   O     O_R   0.551780 0.923190 0.626070 -0.650131
O14   O     O_R   0.551780 0.076810 0.626070 -0.648293
O15   O     O_R   0.051780 0.423190 0.626070 -0.650430
O16   O     O_R   0.051780 0.576810 0.626070 -0.648056
C5    C     C_R   0.590564 0.899232 0.557876 0.840972
C6    C     C_R   0.590572 0.100736 0.557827 0.842126
C7    C     C_R   0.090549 0.399210 0.557866 0.841032
C8    C     C_R   0.090597 0.600696 0.557848 0.842022
C9    C     C_R   0.748209 0.181006 0.729486 -0.166396
C10   C     C_R   0.748139 0.818610 0.729647 -0.174075
C11   C     C_R   0.248709 0.680201 0.729099 -0.166578
C12   C     C_R   0.247850 0.318155 0.729874 -0.174060
H1    H     H_    0.662792 0.114276 0.763498 0.161613
H2    H     H_    0.662775 0.885440 0.763590 0.151053
H3    H     H_    0.163376 0.613385 0.763250 0.161204
H4    H     H_    0.162448 0.384958 0.763727 0.151267
H5    H     H_    0.375923 0.738846 0.752417 0.152242
H6    H     H_    0.374932 0.259059 0.754064 0.151816
H7    H     H_    0.875356 0.239844 0.753333 0.152524
H8    H     H_    0.875265 0.759640 0.753541 0.151588
H9    H     H_    0.775768 0.176759 0.811306 0.162070
H10   H     H_    0.775703 0.822755 0.811459 0.148270
H11   H     H_    0.276516 0.675583 0.810722 0.161849
H12   H     H_    0.275275 0.322096 0.811791 0.148373
C13   C     C_R   0.648012 0.150905 0.596962 -0.054728
C14   C     C_R   0.647967 0.848952 0.597090 -0.049870
C15   C     C_R   0.148103 0.650750 0.597022 -0.054599
C16   C     C_R   0.147909 0.348865 0.597065 -0.049886
C17   C     C_R   0.336050 0.821301 0.297532 -0.014338
C18   C     C_R   0.337786 0.181123 0.298088 -0.013821
C19   C     C_R   0.837154 0.319978 0.297776 -0.015430
C20   C     C_R   0.837205 0.680417 0.297914 -0.013480
C21   C     C_R   0.276813 0.777029 0.269827 -0.156135
C22   C     C_R   0.278551 0.225463 0.270337 -0.161081
C23   C     C_R   0.777953 0.275635 0.270004 -0.156207
C24   C     C_R   0.777943 0.724710 0.270201 -0.161224
C25   C     C_R   0.244957 0.744359 0.348752 -0.197378
C26   C     C_R   0.246031 0.257060 0.349210 -0.178328
C27   C     C_R   0.745697 0.243514 0.348887 -0.197511
C28   C     C_R   0.745636 0.756601 0.349105 -0.178381
C29   C     C_R   0.274038 0.751260 0.458795 0.092893
C30   C     C_R   0.274489 0.249142 0.459374 0.090608
C31   C     C_R   0.774377 0.250950 0.459022 0.092718
C32   C     C_R   0.774317 0.748986 0.459223 0.090800
C33   C     C_R   0.338282 0.788300 0.486805 0.108728
C34   C     C_R   0.338622 0.211864 0.487650 0.107431
C35   C     C_R   0.838525 0.288147 0.487223 0.108640
C36   C     C_R   0.838504 0.711798 0.487394 0.107456
C37   C     C_R   0.742303 0.220295 0.541863 0.096907
C38   C     C_R   0.742223 0.779503 0.542062 0.096737
C39   C     C_R   0.242236 0.720272 0.541701 0.097315
C40   C     C_R   0.242245 0.279474 0.542173 0.096370
C41   C     C_R   0.778768 0.216101 0.648887 0.165722
C42   C     C_R   0.778685 0.783558 0.649079 0.172060
C43   C     C_R   0.279029 0.715599 0.648476 0.165946
C44   C     C_R   0.278524 0.283262 0.649324 0.171850
C45   C     C_R   0.346174 0.743987 0.672131 -0.207227
C46   C     C_R   0.345558 0.254578 0.673448 -0.211308
C47   C     C_R   0.845845 0.244636 0.672833 -0.207830
C48   C     C_R   0.845759 0.754963 0.673040 -0.210440
C49   C     C_R   0.375615 0.779643 0.592321 -0.131482
C50   C     C_R   0.375423 0.219602 0.593640 -0.130912
C51   C     C_R   0.875539 0.279954 0.593027 -0.131378
C52   C     C_R   0.875484 0.719799 0.593227 -0.130720
C53   C     C_R   0.674815 0.192894 0.520549 -0.234058
C54   C     C_R   0.674736 0.806963 0.520736 -0.230126
C55   C     C_R   0.174687 0.693029 0.520688 -0.234050
C56   C     C_R   0.174794 0.307025 0.520677 -0.230050
C57   C     C_R   0.683414 0.146772 0.702984 -0.187042
C58   C     C_R   0.683372 0.852960 0.703108 -0.193736
C59   C     C_R   0.183822 0.646140 0.702810 -0.186673
C60   C     C_R   0.183139 0.352612 0.703210 -0.193989
C61   C     C_R   0.364058 0.832288 0.408205 -0.191488
C62   C     C_R   0.364874 0.168666 0.408798 -0.191926
C63   C     C_R   0.864559 0.331767 0.408510 -0.191525
C64   C     C_R   0.864612 0.668393 0.408606 -0.191935
H13   H     H_    0.642633 0.200444 0.443035 0.158416
H14   H     H_    0.642535 0.799482 0.443247 0.156917
H15   H     H_    0.142275 0.700899 0.443434 0.157991
H16   H     H_    0.142718 0.299715 0.443049 0.157392
H17   H     H_    0.700701 0.209205 0.320538 0.151241
H18   H     H_    0.700596 0.790890 0.320783 0.157211
H19   H     H_    0.199882 0.710158 0.320452 0.151268
H20   H     H_    0.201038 0.291416 0.320864 0.157313
H21   H     H_    0.254926 0.767521 0.186042 0.178959
H22   H     H_    0.257244 0.235986 0.186552 0.170936
H23   H     H_    0.756465 0.265546 0.186205 0.179978
H24   H     H_    0.756421 0.734922 0.186419 0.170659
H25   H     H_    0.428643 0.798674 0.613527 0.156976
H26   H     H_    0.428419 0.200503 0.615218 0.158314
H27   H     H_    0.928533 0.299046 0.614477 0.157272
H28   H     H_    0.928498 0.700730 0.614672 0.158102
C65   C     C_R   0.644865 0.006942 0.137315 -0.123213
C66   C     C_R   0.144856 0.506874 0.137297 -0.123180
H29   H     H_    0.656868 0.003699 0.310240 0.171642
H30   H     H_    0.156855 0.504131 0.310234 0.171602
H31   H     H_    0.668924 0.999953 0.930922 0.184074
H32   H     H_    0.168924 0.499740 0.930909 0.184032
N1    N     N_R   0.552340 0.000000 0.237260 -0.103299
N2    N     N_R   0.052340 0.500000 0.237260 -0.103374
C67   C     C_R   0.378463 0.999612 0.763800 0.435738
C68   C     C_R   0.878459 0.499824 0.763776 0.435778
C69   C     C_R   0.354247 0.000846 0.860835 -0.239210
C70   C     C_R   0.854241 0.500635 0.860834 -0.239355
C71   C     C_R   0.400980 0.002420 0.955592 -0.223228
C72   C     C_R   0.900976 0.501709 0.955608 -0.221649
C73   C     C_R   0.472970 0.002485 0.954226 0.002225
C74   C     C_R   0.972968 0.501879 0.954233 0.002376
C75   C     C_R   0.495448 0.001406 0.853772 0.179162
C76   C     C_R   0.995447 0.501073 0.853777 0.178861
C77   C     C_R   0.523035 0.003292 0.048435 -0.017674
C78   C     C_R   0.023035 0.502718 0.048434 -0.017637
C79   C     C_R   0.595150 0.005227 0.041910 0.113721
C80   C     C_R   0.095146 0.504869 0.041902 0.113452
C81   C     C_R   0.615259 0.002658 0.940731 -0.254192
C82   C     C_R   0.115257 0.502327 0.940726 -0.254257
C83   C     C_R   0.566069 0.001135 0.848646 -0.204965
C84   C     C_R   0.066066 0.500857 0.848643 -0.204699
C85   C     C_R   0.503776 0.001063 0.149807 -0.052142
C86   C     C_R   0.003778 0.500534 0.149803 -0.052333
C87   C     C_R   0.621022 0.002679 0.234919 -0.038318
C88   C     C_R   0.121015 0.502847 0.234916 -0.038216
N3    N     N_R   0.448170 0.000000 0.762060 -0.197036
N4    N     N_R   0.948170 0.500000 0.762060 -0.197087
H33   H     H_    0.451230 0.999562 0.163794 0.162751
H34   H     H_    0.951240 0.498746 0.163794 0.162623
H35   H     H_    0.378566 0.003807 0.027685 0.233537
H36   H     H_    0.878556 0.502740 0.027710 0.232894
H37   H     H_    0.299175 0.000749 0.862723 0.203163
H38   H     H_    0.799168 0.500638 0.862720 0.203000
H39   H     H_    0.584942 0.999255 0.774215 0.205580
H40   H     H_    0.084938 0.499202 0.774203 0.205547
C89   C     C_2   0.720605 0.014808 0.140160 0.880831
O17   O     O_2   0.743178 0.058239 0.078381 -0.636805
O18   O     O_R   0.766363 0.975174 0.218063 -0.808993
H41   H     H_    0.816635 0.985919 0.213558 0.355746
C90   C     C_2   0.220582 0.514865 0.140120 0.881023
O19   O     O_2   0.243090 0.558254 0.078222 -0.636563
O20   O     O_R   0.266399 0.475402 0.218141 -0.809127
H42   H     H_    0.316654 0.486216 0.213607 0.355741
N5    N     N_R   0.329070 0.998051 0.666872 0.232737
O21   O     O_R   0.297922 0.934009 0.638214 -0.387062
O22   O     O_R   0.298235 0.061293 0.632777 -0.385291
N6    N     N_R   0.829067 0.499199 0.666833 0.232819
O23   O     O_R   0.797909 0.562641 0.634657 -0.386416
O24   O     O_R   0.798264 0.435305 0.636286 -0.386121
C91   C     C_2   0.368324 0.850653 0.207684 0.928613
O25   O     O_2   0.333662 0.887019 0.135178 -0.641802
O26   O     O_R   0.436951 0.831829 0.201987 -0.780803
H43   H     H_    0.451822 0.850682 0.133284 0.334309
C92   C     C_2   0.371138 0.153494 0.208426 0.925060
O27   O     O_2   0.336792 0.119882 0.132867 -0.645570
O28   O     O_R   0.440531 0.170998 0.206505 -0.781768
H44   H     H_    0.456288 0.153392 0.137907 0.335173
C93   C     C_2   0.870169 0.348315 0.208066 0.928994
O29   O     O_2   0.835769 0.383127 0.133610 -0.642289
O30   O     O_R   0.939291 0.330232 0.204836 -0.780744
H45   H     H_    0.954794 0.348454 0.136285 0.334603
C94   C     C_2   0.870179 0.652266 0.208159 0.924665
O31   O     O_2   0.835664 0.617915 0.133500 -0.645961
O32   O     O_R   0.939364 0.670081 0.205063 -0.781601
H46   H     H_    0.954808 0.652116 0.136399 0.335058

loop_
_geom_bond_atom_site_label_1
_geom_bond_atom_site_label_2
_geom_bond_distance
_ccdc_geom_bond_type
C7    C16   1.449500 S    
C3    C64   1.477076 S    
C39   C43   1.419003 A    
C92   O27   1.222537 D    
H29   C87   1.082869 S    
C8    C15   1.449043 S    
C26   C30   1.413888 A    
C90   O19   1.222803 D    
C23   C27   1.383140 A    
O26   H43   1.013502 S    
C67   N3    1.369905 A    
O10   C6    1.318770 A    
O3    C3    1.309896 A    
C68   N4    1.369914 A    
C10   C58   1.394214 A    
C69   H37   1.083494 S    
N5    O21   1.300553 A    
C36   C52   1.414851 A    
C37   C53   1.390757 A    
C91   O26   1.398207 S    
H3    C59   1.082256 S    
O32   H46   1.013490 S    
O7    C3    1.327377 A    
C92   O28   1.398261 S    
C36   C64   1.413234 A    
C11   H11   1.083770 S    
Zn1   O10   1.937287 S    
C66   C88   1.388397 A    
N6    O23   1.300527 A    
Zn4   N4    2.061402 S    
C44   C46   1.392037 A    
C17   C91   1.477897 S    
C32   C36   1.408649 A    
O20   H42   1.013860 S    
C22   C26   1.383065 A    
C10   C42   1.403670 A    
C69   C71   1.378788 A    
C9    C41   1.403663 A    
C74   C76   1.407958 A    
C68   N6    1.426711 S    
O2    Zn1   1.967510 S    
C24   H24   1.084362 S    
O13   C5    1.307953 A    
C6    C13   1.449210 S    
C40   C56   1.390855 A    
O6    Zn3   1.937167 S    
C11   C43   1.403667 A    
Zn3   O14   1.967486 S    
C31   C37   1.411096 A    
C51   H27   1.081848 S    
C72   H36   1.073219 S    
C14   C58   1.400898 A    
C38   C42   1.418937 A    
C16   C56   1.382939 A    
C4    C63   1.476904 S    
C37   C41   1.419017 A    
C18   C92   1.478294 S    
N2    C86   1.330773 A    
O15   C7    1.307976 A    
O4    C4    1.309358 A    
C76   N4    1.355672 A    
C40   C44   1.418941 A    
C34   C62   1.413243 A    
H4    C60   1.082294 S    
C33   C61   1.412898 A    
C39   C55   1.390787 A    
C26   H20   1.078244 S    
O8    Zn4   1.937167 S    
C65   C79   1.416107 A    
C94   O32   1.398218 S    
C35   C63   1.412878 A    
C28   H18   1.078241 S    
C74   C78   1.408576 A    
C9    C57   1.394097 A    
O11   C7    1.318807 A    
N5    O22   1.300778 A    
C55   H15   1.078862 S    
C41   C47   1.392000 A    
C25   H19   1.078275 S    
C31   C35   1.408474 A    
O5    Zn3   1.935922 S    
C22   H22   1.084357 S    
C48   C52   1.388243 A    
C27   H17   1.078261 S    
Zn2   O12   1.937287 S    
O1    C1    1.309960 A    
C93   O30   1.398387 S    
C71   H35   1.073173 S    
C86   H34   1.073589 S    
C91   O25   1.222676 D    
C77   C85   1.391451 A    
C30   C34   1.408619 A    
C18   C62   1.424232 A    
C80   C82   1.396474 A    
O12   C8    1.318750 A    
C2    C61   1.476551 S    
C84   H40   1.064451 S    
O28   H44   1.013512 S    
H5    C45   1.083923 S    
C24   C28   1.383016 A    
C23   H23   1.084386 S    
H7    C47   1.083945 S    
C90   O20   1.398645 S    
O1    Zn1   1.967180 S    
C13   C53   1.382847 A    
C32   C38   1.411094 A    
C73   C75   1.407990 A    
C66   C90   1.485154 S    
O5    C1    1.327403 A    
H1    C57   1.082263 S    
C34   C50   1.414857 A    
C46   C50   1.388212 A    
C33   C49   1.414833 A    
H2    C58   1.082296 S    
C45   C49   1.388273 A    
O8    C4    1.327780 A    
C67   N5    1.426817 S    
H8    C48   1.083908 S    
C12   H12   1.083745 S    
C30   C40   1.411123 A    
N2    C88   1.352002 A    
C52   H28   1.081891 S    
C35   C51   1.414855 A    
C19   C93   1.478479 S    
C43   C45   1.392057 A    
C56   H16   1.078824 S    
O3    Zn2   1.967180 S    
H30   C88   1.082867 S    
C82   C84   1.379806 A    
O7    Zn4   1.935922 S    
C49   H25   1.081871 S    
Zn4   O15   1.967156 S    
Zn2   N2    2.074056 S    
C76   C84   1.396182 A    
C16   C60   1.400915 A    
N1    C87   1.352019 A    
Zn3   N3    2.061402 S    
C27   C31   1.414022 A    
C89   O18   1.398652 S    
C68   C70   1.383671 A    
O2    C2    1.309349 A    
C50   H26   1.081883 S    
H32   C82   1.080200 S    
C70   C72   1.378817 A    
Zn1   N1    2.074056 S    
C81   C83   1.379841 A    
C70   H38   1.083499 S    
C85   H33   1.073588 S    
C72   C74   1.413846 A    
C13   C57   1.400899 A    
C9    H9    1.083786 S    
C15   C59   1.400886 A    
Zn2   O11   1.936043 S    
C83   H39   1.064470 S    
O16   C8    1.307769 A    
C65   C89   1.485178 S    
C77   C79   1.429658 A    
C21   C25   1.383012 A    
C12   C44   1.403655 A    
H31   C81   1.080218 S    
C25   C29   1.413974 A    
C75   N3    1.355741 A    
C78   C86   1.391375 A    
H6    C46   1.083913 S    
C11   C59   1.394139 A    
Zn1   O9    1.936043 S    
C28   C32   1.413872 A    
N1    C85   1.330843 A    
Zn4   O16   1.967486 S    
N6    O24   1.300481 A    
C20   C94   1.478111 S    
O9    C5    1.318785 A    
C18   C22   1.392299 A    
C93   O29   1.222929 D    
C47   C51   1.388242 A    
C29   C39   1.410963 A    
C12   C60   1.394189 A    
C17   C21   1.392033 A    
C1    C62   1.477246 S    
C66   C80   1.416093 A    
C65   C87   1.388456 A    
C20   C64   1.424217 A    
C19   C23   1.392274 A    
C29   C33   1.408565 A    
O4    Zn2   1.967510 S    
C54   H14   1.078828 S    
C73   C77   1.408626 A    
C67   C69   1.383486 A    
C53   H13   1.078843 S    
O6    C2    1.327615 A    
C94   O31   1.222513 D    
C21   H21   1.084408 S    
Zn3   O13   1.967156 S    
C75   C83   1.396190 A    
C78   C80   1.429680 A    
O30   H45   1.013622 S    
O14   C6    1.307856 A    
C19   C63   1.424480 A    
O18   H41   1.013868 S    
C71   C73   1.413780 A    
C79   C81   1.396501 A    
C10   H10   1.083741 S    
C42   C48   1.392068 A    
C17   C61   1.424358 A    
C89   O17   1.222812 D    
C5    C14   1.449436 S    
C20   C24   1.392211 A    
C15   C55   1.382678 A    
C14   C54   1.382881 A    
C38   C54   1.390882 A    
