data_mof_unit_15142.cif
_audit_creation_date              2013-03-05T15:50:30-0500
_audit_creation_method            fapswitch 2.2
_symmetry_space_group_name_H-M    P1
_symmetry_Int_Tables_number       1
_space_group_crystal_system       triclinic
_cell_length_a                    19.213245
_cell_length_b                    7.332138
_cell_length_c                    17.63603
_cell_angle_alpha                 90.000927
_cell_angle_beta                  108.605441
_cell_angle_gamma                 90.001428
_cell_volume                      2354.61836619

loop_
_atom_site_label
_atom_site_type_symbol
_atom_site_description
_atom_site_fract_x
_atom_site_fract_y
_atom_site_fract_z
_atom_type_partial_charge
O1    O     O_R   0.562310 0.505770 0.439670 -0.592927
O2    O     O_R   0.437690 0.005770 0.560330 -0.593042
O3    O     O_R   0.411650 0.169150 0.405330 -0.557993
O4    O     O_R   0.588350 0.669150 0.594670 -0.558012
C1    C     C_R   0.384145 0.346185 0.384761 0.903970
C2    C     C_R   0.615855 0.846187 0.615239 0.903944
O5    O     O_R   0.560140 0.175610 0.430010 -0.570315
O6    O     O_R   0.439860 0.675610 0.569990 -0.570157
O7    O     O_R   0.587240 0.012100 0.585200 -0.547178
O8    O     O_R   0.412760 0.512100 0.414800 -0.547120
C3    C     C_R   0.580600 0.344472 0.415100 0.998399
C4    C     C_R   0.419393 0.844469 0.584893 0.998741
O9    O     O_3   0.508720 0.341420 0.550890 -0.280171
O10   O     O_3   0.491280 0.841420 0.449110 -0.280190
V1    V     V_3+5 0.498380 0.063930 0.490560 1.258338
V2    V     V_3+5 0.501620 0.563930 0.509440 1.258414
C5    C     C_R   0.176173 0.761337 0.872159 -0.165548
C6    C     C_R   0.823859 0.261284 0.127879 -0.165580
C7    C     C_R   0.131212 0.915877 0.866618 -0.156136
C8    C     C_R   0.868787 0.415872 0.133381 -0.156140
C9    C     C_R   0.135225 0.058776 0.814881 -0.241821
C10   C     C_R   0.864735 0.558821 0.185075 -0.241829
C11   C     C_R   0.182603 0.046859 0.768576 0.180460
C12   C     C_R   0.817358 0.546904 0.231379 0.180463
C13   C     C_R   0.227729 0.891486 0.774977 0.057245
C14   C     C_R   0.772261 0.391490 0.225012 0.057247
C15   C     C_R   0.224628 0.749044 0.827284 0.083305
C16   C     C_R   0.775395 0.249003 0.172743 0.083329
C17   C     C_R   0.185634 0.187767 0.715932 -0.183311
C18   C     C_R   0.814294 0.687856 0.283988 -0.183318
C19   C     C_R   0.232620 0.174920 0.669801 -0.166571
C20   C     C_R   0.767309 0.675009 0.330118 -0.166456
C21   C     C_R   0.277911 0.021596 0.675951 0.195620
C22   C     C_R   0.722046 0.521647 0.323999 0.195693
C23   C     C_R   0.275964 0.878908 0.729104 0.028307
C24   C     C_R   0.724021 0.378921 0.270879 0.028302
C25   C     C_R   0.322269 0.724707 0.736583 -0.027155
C26   C     C_R   0.677736 0.224697 0.263423 -0.026997
C27   C     C_R   0.321431 0.586134 0.792639 0.340971
C28   C     C_R   0.678591 0.086099 0.207388 0.340928
C29   C     C_R   0.271101 0.597965 0.835434 -0.316574
C30   C     C_R   0.728938 0.097901 0.164612 -0.316715
C31   C     C_R   0.325299 0.009710 0.630026 -0.161131
C32   C     C_R   0.674655 0.509765 0.369920 -0.161086
C33   C     C_R   0.369943 0.855369 0.634702 -0.179741
C34   C     C_R   0.630039 0.355387 0.365278 -0.180337
C35   C     C_R   0.367154 0.712711 0.687029 -0.182188
C36   C     C_R   0.632852 0.212703 0.312977 -0.182261
H1    H     H_    0.174506 0.651302 0.912623 0.138122
H2    H     H_    0.825555 0.151205 0.087450 0.138135
H3    H     H_    0.100787 0.178262 0.809766 0.151282
H4    H     H_    0.899143 0.678350 0.190158 0.151277
H5    H     H_    0.151674 0.308187 0.710450 0.135700
H6    H     H_    0.848228 0.808314 0.289438 0.135694
H7    H     H_    0.233957 0.285867 0.629672 0.127375
H8    H     H_    0.765944 0.785994 0.370215 0.127465
H9    H     H_    0.326369 0.119964 0.589427 0.147529
H10   H     H_    0.673562 0.620052 0.410492 0.147600
H11   H     H_    0.400083 0.592539 0.688394 0.183079
H12   H     H_    0.599949 0.092503 0.311638 0.183108
H13   H     H_    0.270032 0.491196 0.877575 0.183715
H14   H     H_    0.730026 0.991102 0.122495 0.183720
C37   C     C_3   0.753100 0.804257 0.835715 -0.318104
C38   C     C_3   0.246896 0.304263 0.164287 -0.318134
H15   H     H_    0.773968 0.667058 0.853860 0.276540
H16   H     H_    0.226027 0.167059 0.146146 0.276551
H17   H     H_    0.743638 0.860747 0.890216 0.128021
H18   H     H_    0.256357 0.360747 0.109784 0.128024
C39   C     C_3   0.678218 0.804232 0.765049 -0.405980
C40   C     C_3   0.321779 0.304246 0.234951 -0.405931
H19   H     H_    0.639713 0.898354 0.781218 0.136483
H20   H     H_    0.360282 0.398379 0.218783 0.136482
H21   H     H_    0.648933 0.673137 0.757560 0.209656
H22   H     H_    0.351066 0.173159 0.242433 0.209653
H23   H     H_    0.858017 0.695634 0.762349 0.245508
H24   H     H_    0.141979 0.195632 0.237648 0.245498
H25   H     H_    0.748960 0.636248 0.660483 0.272229
H26   H     H_    0.251029 0.136256 0.339517 0.272250
C41   C     C_3   0.827700 0.824532 0.741983 -0.353779
C42   C     C_3   0.172296 0.324533 0.258017 -0.353735
C43   C     C_3   0.768667 0.104264 0.783309 0.316406
C44   C     C_3   0.231335 0.604270 0.216700 0.316461
C45   C     C_3   0.811493 0.921577 0.813194 -0.152634
C46   C     C_3   0.188505 0.421584 0.186810 -0.152643
H27   H     H_    0.734606 0.124252 0.823398 0.015756
H28   H     H_    0.265396 0.624260 0.176611 0.015730
C47   C     C_3   0.688257 0.873266 0.685157 -0.172567
C48   C     C_3   0.311741 0.373268 0.314846 -0.172572
C49   C     C_3   0.756483 0.781544 0.671625 -0.174131
C50   C     C_3   0.243512 0.281550 0.328376 -0.174182
C51   C     C_3   0.709741 0.080996 0.698251 0.352814
C52   C     C_3   0.290261 0.581001 0.301758 0.352796
H29   H     H_    0.660499 0.157175 0.701008 0.041827
H30   H     H_    0.339504 0.657187 0.299004 0.041837
H31   H     H_    0.864498 0.912623 0.720343 0.183617
H32   H     H_    0.135497 0.412614 0.279658 0.183609
H33   H     H_    0.765140 0.825056 0.615489 0.182207
H34   H     H_    0.234859 0.325074 0.384514 0.181953
O11   O     O_R   0.087220 0.271820 0.085230 -0.575744
O12   O     O_R   0.912780 0.771820 0.914770 -0.575734
O13   O     O_R   0.939860 0.595540 0.069990 -0.596183
O14   O     O_R   0.060140 0.095540 0.930010 -0.596176
C53   C     C_R   0.919174 0.426752 0.084657 0.963483
C54   C     C_R   0.080826 0.926754 0.915343 0.963455
O15   O     O_R   0.088340 0.601930 0.094680 -0.507699
O16   O     O_R   0.911660 0.101930 0.905320 -0.507695
O17   O     O_R   0.062310 0.765410 0.939660 -0.591419
O18   O     O_R   0.937690 0.265410 0.060340 -0.591434
C55   C     C_R   0.116654 0.434066 0.115880 0.876977
C56   C     C_R   0.883345 0.934062 0.884121 0.876981
O19   O     O_3   0.991270 0.429630 0.949130 -0.250875
O20   O     O_3   0.008730 0.929630 0.050870 -0.250899
V3    V     V_3+5 0.001620 0.707150 0.009440 1.268897
V4    V     V_3+5 0.998380 0.207150 0.990560 1.268889
S1    S     S_3+6 0.808923 0.323228 0.801903 -0.026496
O21   O     O_2   0.830555 0.373039 0.889098 -0.327745
O22   O     O_2   0.872566 0.349279 0.770970 -0.229200
O23   O     O_3   0.737487 0.450599 0.753803 -0.561363
H35   H     H_    0.699082 0.414573 0.777293 0.314471
S2    S     S_3+6 0.191084 0.823232 0.198114 -0.026507
O24   O     O_2   0.169442 0.873043 0.110920 -0.327747
O25   O     O_2   0.127448 0.849281 0.229060 -0.229193
O26   O     O_3   0.262527 0.950603 0.246208 -0.561378
H36   H     H_    0.300927 0.914574 0.222711 0.314466
S3    S     S_3+6 0.733126 0.180842 0.613421 -0.011100
O27   O     O_2   0.697909 0.364871 0.594601 -0.279058
O28   O     O_2   0.814662 0.198662 0.631694 -0.267990
O29   O     O_3   0.701046 0.055021 0.529555 -0.579692
H37   H     H_    0.724833 0.106222 0.491985 0.353904
S4    S     S_3+6 0.266877 0.680837 0.386593 -0.011090
O30   O     O_2   0.302064 0.864906 0.405404 -0.278772
O31   O     O_2   0.185338 0.698571 0.368322 -0.268329
O32   O     O_3   0.298993 0.555054 0.470465 -0.579711
H38   H     H_    0.274789 0.605289 0.507830 0.353830
N1    N     N_R   0.373349 0.437993 0.810186 0.237014
O33   O     O_R   0.442609 0.470587 0.822104 -0.386522
O34   O     O_R   0.354894 0.280272 0.831725 -0.392055
N2    N     N_R   0.626665 0.937980 0.189830 0.237006
O35   O     O_R   0.557408 0.970604 0.177910 -0.386498
O36   O     O_R   0.645115 0.780205 0.168317 -0.392058

loop_
_geom_bond_atom_site_label_1
_geom_bond_atom_site_label_2
_geom_bond_distance
_ccdc_geom_bond_type
C41   C45   1.558849 S    
C37   H15   1.092371 S    
O12   C56   1.353549 A    
C47   C51   1.575657 S    
O13   V3    2.006635 S    
C52   S4    1.845283 S    
O1    C3    1.344286 A    
C29   H13   1.084139 S    
C42   C46   1.558851 S    
C40   C48   1.565902 S    
O29   H37   0.990984 S    
O11   V4    2.026669 S    
N1    O33   1.301374 A    
C27   C29   1.406398 A    
C8    C53   1.487534 S    
C27   N1    1.440033 S    
H26   C50   1.084558 S    
O5    C3    1.350028 A    
C18   H6    1.083669 S    
H25   C49   1.084568 S    
O16   V4    2.008194 S    
C11   C17   1.402616 A    
O15   V3    2.008245 S    
C23   C25   1.418584 A    
C12   C14   1.414110 A    
C38   H18   1.113549 S    
S1    O21   1.504331 D    
O11   C55   1.353538 A    
C44   C52   1.573991 S    
C6    C8    1.409175 A    
O18   V4    1.993063 S    
C39   H19   1.113338 S    
O23   H35   0.990421 S    
O17   V3    1.993062 S    
C5    C7    1.409225 A    
C1    C48   1.549349 S    
C38   C46   1.562287 S    
C48   C52   1.575682 S    
C32   C34   1.406390 A    
S1    O22   1.501659 D    
C28   N2    1.439970 S    
C40   H22   1.100230 S    
S3    O29   1.684288 S    
C19   C21   1.404510 A    
C39   H21   1.100231 S    
C53   O18   1.344358 A    
C38   C40   1.574468 S    
C42   H32   1.111237 S    
C30   H14   1.084087 S    
C26   C36   1.412832 A    
C39   C47   1.565905 S    
S2    O26   1.653107 S    
C28   C30   1.406393 A    
O2    C4    1.344300 A    
O6    V2    2.006853 S    
C2    O7    1.370030 A    
O20   V3    1.774760 S    
C43   C45   1.572388 S    
S2    O25   1.501663 D    
C36   H12   1.080451 S    
C34   C36   1.407116 A    
C33   C35   1.407195 A    
C37   H17   1.113551 S    
C5    C15   1.404041 A    
C37   C39   1.574479 S    
O26   H36   0.990439 S    
C6    C16   1.404037 A    
O4    C2    1.404793 A    
C5    H1    1.084344 S    
O5    V1    2.006849 S    
C20   C22   1.404445 A    
C44   H28   1.115725 S    
C2    C47   1.549338 S    
C37   C45   1.562281 S    
C21   C31   1.401103 A    
O4    V2    2.008223 S    
S4    O31   1.500995 D    
C41   H31   1.111243 S    
O14   V4    2.006649 S    
C18   C20   1.397971 A    
C51   H29   1.113026 S    
C7    C54   1.487527 S    
C15   C29   1.401128 A    
O6    C4    1.350020 A    
S1    O23   1.653093 S    
C43   S1    1.766742 S    
C52   H30   1.113025 S    
C45   C56   1.541740 S    
C22   C32   1.401095 A    
O1    V2    1.992768 S    
O14   C54   1.349836 A    
O2    V1    1.992759 S    
C31   C33   1.406453 A    
N2    O36   1.301422 A    
C13   C23   1.414315 A    
C44   S2    1.766733 S    
C14   C24   1.414309 A    
C48   C50   1.557952 S    
C44   C46   1.572382 S    
C9    C11   1.406233 A    
S3    O27   1.498472 D    
C10   C12   1.406223 A    
S4    O32   1.684324 S    
C25   C35   1.412840 A    
C32   H10   1.084388 S    
C9    H3    1.084167 S    
O3    V1    2.008272 S    
S2    O24   1.504331 D    
C6    H2    1.084291 S    
C10   H4    1.084119 S    
O16   C56   1.349388 A    
N1    O34   1.301261 A    
O15   C55   1.349400 A    
C51   S3    1.845262 S    
C7    C9    1.407553 A    
O12   V3    2.026700 S    
H24   C42   1.108167 S    
C8    C10   1.407492 A    
C4    C33   1.487708 S    
O3    C1    1.404814 A    
C13   C15   1.407277 A    
C14   C16   1.407213 A    
C46   C55   1.541753 S    
O13   C53   1.349838 A    
C24   C26   1.418496 A    
S4    O30   1.498462 D    
O7    V1    2.006687 S    
C1    O8    1.370008 A    
C25   C27   1.421301 A    
O8    V2    2.006661 S    
C26   C28   1.421232 A    
O32   H38   0.990811 S    
C17   H5    1.083719 S    
C16   C30   1.401069 A    
C21   C23   1.413178 A    
C20   H8    1.083869 S    
O19   V4    1.774788 S    
C22   C24   1.413108 A    
C11   C13   1.414175 A    
C42   C50   1.558170 S    
C12   C18   1.402555 A    
C41   C49   1.558162 S    
N2    O35   1.301372 A    
C31   H9    1.084442 S    
C35   H11   1.080525 S    
C43   C51   1.573982 S    
C17   C19   1.397972 A    
O9    V2    1.775137 S    
C49   H33   1.102127 S    
S3    O28   1.500974 D    
C47   C49   1.557950 S    
O10   V1    1.775109 S    
C3    C34   1.487714 S    
C40   H20   1.113340 S    
C19   H7    1.083919 S    
H23   C41   1.108168 S    
C50   H34   1.102139 S    
C54   O17   1.344362 A    
C43   H27   1.115722 S    
C38   H16   1.092370 S    
