data_mof_unit_22147.cif
_audit_creation_date              2012-10-26T20:02:58-0400
_audit_creation_method            fapswitch 2.2
_symmetry_space_group_name_H-M    P1
_symmetry_Int_Tables_number       1
_space_group_crystal_system       triclinic
_cell_length_a                    10.765067
_cell_length_b                    12.316883
_cell_length_c                    13.190025
_cell_angle_alpha                 116.6973
_cell_angle_beta                  77.742558
_cell_angle_gamma                 102.03639
_cell_volume                      1513.95156721

loop_
_atom_site_label
_atom_site_type_symbol
_atom_type_description
_atom_site_fract_x
_atom_site_fract_y
_atom_site_fract_z
_atom_type_partial_charge
Br1   Br    Br    0.075785 0.725900 0.433883 -0.628187
C1    C     C_R   0.508202 0.854861 0.286810 0.526069
C2    C     C_R   0.476108 0.569051 0.009652 0.031523
C3    C     C_R   0.447541 0.649635 0.126039 0.014250
C4    C     C_R   0.739731 0.999938 0.499634 0.547148
C5    C     C_R   0.446937 0.440715 0.976167 0.043167
C6    C     C_R   0.358479 0.397671 0.050725 0.032902
C7    C     C_R   0.313174 0.480466 0.159971 -0.131374
C8    C     C_R   0.359560 0.604258 0.198304 -0.112520
C9    C     C_R   0.506226 0.353691 0.873502 -0.013551
C10   C     C_R   0.359984 0.189135 0.906321 -0.155298
C11   C     C_R   0.504209 0.773825 0.164435 -0.006309
C12   C     C_3   0.121002 0.998249 0.501703 0.054549
C13   C     C_R   0.704740 0.349794 0.330439 -0.139412
C14   C     C_R   0.327286 0.758160 0.645601 0.077246
C15   C     C_R   0.290535 0.661052 0.677166 -0.146907
C16   C     C_R   0.481387 0.145517 0.713455 0.532517
C17   C     C_R   0.355345 0.558228 0.622369 -0.137506
C18   C     C_R   0.458690 0.551131 0.534699 -0.005696
C19   C     C_R   0.493000 0.653294 0.505277 0.182732
C20   C     C_R   0.529576 0.447303 0.475579 -0.014422
C21   C     C_R   0.633181 0.448668 0.389396 0.043740
C22   C     C_R   0.665182 0.548671 0.362316 -0.162727
C23   C     C_3   0.045999 0.036524 0.626338 -0.087727
C24   C     C_R   0.596806 0.648123 0.418620 -0.101688
C25   C     C_R   0.502951 0.341347 0.497609 0.036166
C26   C     C_R   0.673797 0.248987 0.356339 0.038852
C27   C     C_R   0.259851 0.999679 0.500205 0.558102
C28   C     C_3   0.962202 0.103477 0.470365 -0.241049
C29   C     C_3   0.104570 0.095712 0.461932 -0.281254
C30   C     C_3   0.899846 0.017388 0.620909 -0.103089
C31   C     C_3   0.919351 0.873147 0.409859 -0.109731
C32   C     C_3   0.877365 0.999848 0.500081 0.047508
C33   C     C_3   0.075275 0.979015 0.699806 -0.401511
C34   C     C_3   0.062096 0.870842 0.413388 0.043386
C35   C     C_3   0.637784 0.386946 0.817369 -0.388584
C36   C     C_3   0.835415 0.122197 0.722901 -0.430638
C37   C     C_3   0.895669 0.837763 0.286742 -0.441906
C38   C     C_R   0.316420 0.272315 0.015414 -0.139990
C39   C     C_R   0.453196 0.229174 0.834359 0.011125
C40   C     C_R   0.563253 0.820063 0.083438 -0.137226
C41   C     C_R   0.568303 0.744562 0.967027 -0.146099
C42   C     C_R   0.525346 0.620066 0.930085 -0.124583
Cu1   Cu    Cu3+1 0.529690 0.098270 0.475420 0.907578
Cu2   Cu    Cu3+1 0.470310 0.901730 0.524580 0.923668
H1    H     H_    0.939067 0.194865 0.536805 0.134524
H2    H     H_    0.319562 0.663864 0.282818 0.201241
H3    H     H_    0.728676 0.172469 0.311044 0.114877
H4    H     H_    0.744526 0.550354 0.296540 0.122625
H5    H     H_    0.784223 0.350509 0.264580 0.098970
H6    H     H_    0.425731 0.332345 0.561414 0.117425
H7    H     H_    0.276917 0.837581 0.689371 0.119693
H8    H     H_    0.323021 0.486072 0.650575 0.093568
H9    H     H_    0.211607 0.665672 0.744703 0.101273
H10   H     H_    0.629896 0.719274 0.391074 0.180179
H11   H     H_    0.150964 0.071623 0.371918 0.125382
H12   H     H_    0.855642 0.931896 0.631007 0.164669
H13   H     H_    0.151691 0.188116 0.515559 0.128582
H14   H     H_    0.077173 0.136458 0.674054 0.130790
H15   H     H_    0.859109 0.801396 0.434564 0.178045
H16   H     H_    0.118865 0.854640 0.327881 0.133518
H17   H     H_    0.015095 0.012358 0.784680 0.106587
H18   H     H_    0.055184 0.878046 0.660109 0.199807
H19   H     H_    0.176094 0.008156 0.717110 0.141238
H20   H     H_    0.696460 0.312259 0.788311 0.124309
H21   H     H_    0.630874 0.401721 0.741871 0.152684
H22   H     H_    0.691761 0.468763 0.878784 0.128281
H23   H     H_    0.319483 0.093627 0.877652 0.114464
H24   H     H_    0.872944 0.211319 0.718982 0.123192
H25   H     H_    0.729951 0.104807 0.724678 0.155596
H26   H     H_    0.854679 0.128690 0.804957 0.126870
H27   H     H_    0.918467 0.743145 0.230423 0.147160
H28   H     H_    0.793723 0.838972 0.283856 0.137957
H29   H     H_    0.957056 0.900181 0.251045 0.127928
H30   H     H_    0.244063 0.449116 0.217169 0.135849
H31   H     H_    0.246632 0.239071 0.070883 0.106939
H32   H     H_    0.604553 0.915180 0.109931 0.128328
H33   H     H_    0.527729 0.565105 0.839062 0.116237
H34   H     H_    0.608499 0.782034 0.905124 0.120466
H35   H     H_    0.943299 0.097401 0.388197 0.129853
N1    N     N_R   0.574690 0.246280 0.438200 -0.232837
N2    N     N_R   0.426100 0.754320 0.561190 -0.226625
O1    O     O_R   0.537340 0.972510 0.318130 -0.503999
O2    O     O_R   0.487200 0.806530 0.359650 -0.525752
O3    O     O_R   0.707380 0.082980 0.479220 -0.505203
O4    O     O_R   0.657240 0.917000 0.520740 -0.532306
O5    O     O_R   0.512800 0.193470 0.640350 -0.503907
O6    O     O_R   0.462660 0.027490 0.681870 -0.518821
O7    O     O_R   0.342760 0.083000 0.479260 -0.521293
O8    O     O_R   0.292620 0.917020 0.520780 -0.461607

loop_
_geom_bond_atom_site_label_1
_geom_bond_atom_site_label_2
_ccdc_geom_bond_type
C26   H3    S    
C20   C25   A    
C36   H24   S    
C16   O6    A    
C40   C41   A    
C1    O2    A    
Cu2   N2    S    
Cu1   O1    S    
C1    C11   S    
C35   H22   S    
C6    C7    A    
C10   H23   S    
C42   H33   S    
C2    C42   A    
C11   C40   A    
C18   C20   A    
C12   C34   S    
C19   N2    A    
C40   H32   S    
C35   H21   S    
C22   H4    S    
C19   C24   A    
C14   C15   A    
C28   C32   S    
C33   H17   S    
C9    C39   A    
C17   C18   A    
C17   H8    S    
C18   C19   A    
C7    C8    A    
C4    C32   S    
C30   C32   S    
C12   C27   S    
C27   O7    A    
C31   C37   S    
C13   C26   A    
C3    C11   A    
Cu1   O5    S    
C4    O3    A    
C2    C5    A    
C41   H34   S    
C36   H25   S    
C1    O1    A    
C14   N2    A    
C37   H27   S    
C31   C34   S    
C12   C29   S    
C26   N1    A    
Cu2   O6    S    
Cu1   N1    S    
C35   H20   S    
C14   H7    S    
C29   H11   S    
C7    H30   S    
C23   C33   S    
C30   C36   S    
C12   C23   S    
C16   C39   S    
C28   C29   S    
C33   H19   S    
C34   H16   S    
C38   H31   S    
C10   C38   A    
Cu2   O8    S    
C4    O4    A    
C8    H2    S    
C25   N1    A    
C36   H26   S    
Cu2   O2    S    
C41   C42   A    
C31   H15   S    
C2    C3    A    
Cu1   Cu2   S    
Br1   C34   S    
C37   H29   S    
C16   O5    A    
C24   H10   S    
C5    C9    A    
C9    C35   S    
C5    C6    A    
C28   H1    S    
C31   C32   S    
C30   H12   S    
Cu2   O4    S    
C23   C30   S    
C25   H6    S    
C13   C21   A    
C13   H5    S    
C28   H35   S    
C23   H14   S    
C29   H13   S    
C33   H18   S    
C22   C24   A    
C10   C39   A    
C15   H9    S    
C15   C17   A    
C6    C38   A    
C21   C22   A    
C27   O8    A    
C3    C8    A    
C20   C21   A    
Cu1   O7    S    
Cu1   O3    S    
C37   H28   S    
