data_mof_unit_62934.cif
_audit_creation_date              2012-12-10T16:54:08-0500
_audit_creation_method            fapswitch 2.2
_symmetry_space_group_name_H-M    P1
_symmetry_Int_Tables_number       1
_space_group_crystal_system       triclinic
_cell_length_a                    18.493819
_cell_length_b                    18.51368
_cell_length_c                    42.923968
_cell_angle_alpha                 90.041706
_cell_angle_beta                  89.951242
_cell_angle_gamma                 90.009934
_cell_volume                      14696.6698906

loop_
_atom_site_label
_atom_site_type_symbol
_atom_type_description
_atom_site_fract_x
_atom_site_fract_y
_atom_site_fract_z
_atom_type_partial_charge
C1    C     C_R   0.500007 0.000023 0.584234 0.940420
C2    C     C_R   0.999974 0.499988 0.584245 0.940330
C3    C     C_R   0.000002 0.500022 0.084232 0.941302
C4    C     C_R   0.499973 0.000000 0.084242 0.940896
C5    C     C_R   0.000144 0.499980 0.719266 0.436657
C6    C     C_R   0.500274 0.000004 0.719260 0.437222
C7    C     C_R   0.499935 0.000033 0.219255 0.437948
C8    C     C_R   0.000030 0.500064 0.219253 0.437989
C9    C     C_R   0.500048 0.000061 0.282368 0.289940
C10   C     C_R   0.000053 0.499981 0.282369 0.289996
C11   C     C_R   0.000331 0.500084 0.782369 0.288592
C12   C     C_R   0.500387 0.999883 0.782370 0.289032
C13   C     C_R   0.947819 0.540974 0.668255 -0.087025
C14   C     C_R   0.458712 0.948162 0.668213 -0.087174
C15   C     C_R   0.052184 0.458837 0.668162 -0.087139
C16   C     C_R   0.541601 0.051920 0.668190 -0.087125
C17   C     C_R   0.448222 0.041690 0.168230 -0.087308
C18   C     C_R   0.958183 0.448495 0.168199 -0.087280
C19   C     C_R   0.551615 0.958323 0.168174 -0.087360
C20   C     C_R   0.041838 0.551643 0.168193 -0.087279
C21   C     C_R   0.950726 0.544489 0.635393 -0.110858
C22   C     C_R   0.455165 0.951128 0.635353 -0.110753
C23   C     C_R   0.049160 0.455309 0.635303 -0.110674
C24   C     C_R   0.544982 0.048996 0.635321 -0.110799
C25   C     C_R   0.451150 0.045075 0.135362 -0.110951
C26   C     C_R   0.954776 0.451418 0.135335 -0.110545
C27   C     C_R   0.548684 0.954904 0.135309 -0.110744
C28   C     C_R   0.045218 0.548714 0.135322 -0.110679
C29   C     C_R   0.999936 0.499919 0.618802 -0.061717
C30   C     C_R   0.500040 0.000065 0.618792 -0.061344
C31   C     C_R   0.499923 0.999986 0.118795 -0.061243
C32   C     C_R   0.999991 0.500062 0.118787 -0.061190
C33   C     C_R   0.000044 0.499926 0.684730 0.017978
C34   C     C_R   0.500201 0.000027 0.684722 0.017838
C35   C     C_R   0.499920 0.000015 0.184720 0.017565
C36   C     C_R   0.000016 0.500070 0.184716 0.017531
C37   C     C_R   0.500028 0.000005 0.415869 0.763507
C38   C     C_R   0.000003 0.499977 0.415879 0.762753
C39   C     C_R   0.000038 0.500041 0.915858 0.768136
C40   C     C_R   0.500068 0.999971 0.915873 0.764603
C41   C     C_R   0.362379 0.139853 0.499321 0.886507
C42   C     C_R   0.860119 0.362383 0.499325 0.886769
C43   C     C_R   0.637650 0.860174 0.499315 0.886631
C44   C     C_R   0.139866 0.637601 0.499322 0.886068
C45   C     C_R   0.638192 0.139178 0.499500 0.897819
C46   C     C_R   0.139187 0.361827 0.499505 0.897510
C47   C     C_R   0.361826 0.860834 0.499501 0.897042
C48   C     C_R   0.860779 0.638139 0.499509 0.897361
C49   C     C_R   0.862369 0.639845 0.999322 0.886272
C50   C     C_R   0.360151 0.862347 0.999325 0.887741
C51   C     C_R   0.139264 0.361958 0.000165 0.903187
C52   C     C_R   0.639828 0.137639 0.999327 0.882790
C53   C     C_R   0.138226 0.639142 0.999513 0.900684
C54   C     C_R   0.639182 0.861824 0.999508 0.897636
C55   C     C_R   0.861817 0.360838 0.999499 0.897292
C56   C     C_R   0.362476 0.140041 0.000665 0.887492
C57   C     C_2   0.208684 0.735595 0.473293 0.207017
C58   C     C_2   0.264260 0.208504 0.473323 0.206898
C59   C     C_2   0.791360 0.264376 0.473277 0.207105
C60   C     C_2   0.735867 0.791435 0.473317 0.206584
C61   C     C_2   0.785710 0.728748 0.472458 0.161241
C62   C     C_2   0.728717 0.214448 0.472425 0.160884
C63   C     C_2   0.214395 0.271159 0.472456 0.160985
C64   C     C_2   0.271342 0.785514 0.472434 0.160916
C65   C     C_2   0.707719 0.236556 0.973518 0.205706
C66   C     C_2   0.763953 0.708230 0.973400 0.206547
C67   C     C_2   0.292417 0.763312 0.973513 0.206497
C68   C     C_2   0.265190 0.323080 0.994799 0.206327
C69   C     C_2   0.320186 0.265820 0.990418 0.179034
C70   C     C_2   0.229899 0.713281 0.972565 0.157807
C71   C     C_2   0.714152 0.770917 0.972496 0.160994
C72   C     C_2   0.770384 0.286400 0.972550 0.161471
C73   C     C_2   0.201185 0.686941 0.496546 -0.379722
C74   C     C_2   0.313036 0.201119 0.496545 -0.379809
C75   C     C_2   0.798804 0.313056 0.496548 -0.379991
C76   C     C_2   0.687035 0.798935 0.496542 -0.379558
C77   C     C_2   0.805592 0.694136 0.498971 -0.364634
C78   C     C_2   0.694271 0.194282 0.498959 -0.364644
C79   C     C_2   0.194315 0.305772 0.498970 -0.364581
C80   C     C_2   0.305751 0.805716 0.498961 -0.364346
C81   C     C_2   0.701071 0.187038 0.996484 -0.381396
C82   C     C_2   0.813019 0.701103 0.996524 -0.380403
C83   C     C_2   0.298942 0.812909 0.996486 -0.381294
C84   C     C_2   0.194680 0.306375 0.998874 -0.376055
C85   C     C_2   0.311371 0.199907 0.003711 -0.396644
C86   C     C_2   0.194342 0.694198 0.998978 -0.369549
C87   C     C_2   0.694296 0.805759 0.998983 -0.365710
C88   C     C_2   0.805675 0.305780 0.998977 -0.367350
C89   C     C_R   0.453920 0.046548 0.365464 -0.195985
C90   C     C_R   0.953310 0.454002 0.365438 -0.196036
C91   C     C_R   0.546268 0.953576 0.365398 -0.196005
C92   C     C_R   0.046792 0.545865 0.365439 -0.195910
C93   C     C_R   0.951265 0.543663 0.865396 -0.195594
C94   C     C_R   0.455150 0.952349 0.865401 -0.194469
C95   C     C_R   0.049263 0.456622 0.865374 -0.194280
C96   C     C_R   0.545469 0.047337 0.865428 -0.196696
C97   C     C_R   0.454782 0.047428 0.332964 -0.149482
C98   C     C_R   0.952458 0.454869 0.332936 -0.149407
C99   C     C_R   0.545407 0.952720 0.332896 -0.149427
C100  C     C_R   0.047666 0.545009 0.332937 -0.149478
C101  C     C_R   0.952178 0.544620 0.832900 -0.150362
C102  C     C_R   0.454340 0.953169 0.832901 -0.149544
C103  C     C_R   0.048481 0.455686 0.832871 -0.151369
C104  C     C_R   0.546468 0.046449 0.832926 -0.150005
C105  C     C_R   0.500087 0.000075 0.316513 0.080639
C106  C     C_R   0.000063 0.499947 0.316517 0.080566
C107  C     C_R   0.000339 0.500133 0.816487 0.081559
C108  C     C_R   0.500425 0.999814 0.816504 0.081250
C109  C     C_R   0.500083 0.000048 0.381801 0.021884
C110  C     C_R   0.000041 0.499936 0.381809 0.022331
C111  C     C_R   0.000165 0.500086 0.881769 0.016660
C112  C     C_R   0.500229 0.999890 0.881793 0.019943
H1    H     H_    0.243734 0.679500 0.513599 0.137499
H2    H     H_    0.320590 0.243725 0.513572 0.137490
H3    H     H_    0.756218 0.320523 0.513618 0.137459
H4    H     H_    0.679416 0.756409 0.513578 0.137497
H5    H     H_    0.783335 0.708749 0.521456 0.139087
H6    H     H_    0.709004 0.216351 0.521452 0.139090
H7    H     H_    0.216438 0.291170 0.521457 0.139194
H8    H     H_    0.290982 0.783671 0.521451 0.139068
H9    H     H_    0.744195 0.179028 0.013219 0.137917
H10   H     H_    0.820777 0.743902 0.013444 0.137560
H11   H     H_    0.255796 0.820934 0.013242 0.137415
H12   H     H_    0.175967 0.250903 0.999579 0.120286
H13   H     H_    0.265634 0.189718 0.018921 0.147099
H14   H     H_    0.208118 0.717208 0.021408 0.139708
H15   H     H_    0.716595 0.791326 0.021458 0.139074
H16   H     H_    0.791569 0.283079 0.021426 0.139009
H17   H     H_    0.418280 0.083001 0.377861 0.138340
H18   H     H_    0.916644 0.418561 0.377810 0.138193
H19   H     H_    0.581905 0.917112 0.377743 0.138368
H20   H     H_    0.083441 0.581315 0.377812 0.138204
H21   H     H_    0.913393 0.577851 0.877757 0.140378
H22   H     H_    0.419689 0.915661 0.877753 0.139415
H23   H     H_    0.087240 0.422547 0.877727 0.145086
H24   H     H_    0.580860 0.084047 0.877803 0.139439
H25   H     H_    0.419266 0.084144 0.320665 0.154976
H26   H     H_    0.915547 0.419550 0.320609 0.154982
H27   H     H_    0.580916 0.916008 0.320542 0.154983
H28   H     H_    0.084577 0.580341 0.320613 0.154981
H29   H     H_    0.914521 0.579080 0.820567 0.154880
H30   H     H_    0.418668 0.916632 0.820556 0.154795
H31   H     H_    0.086215 0.421270 0.820510 0.155215
H32   H     H_    0.582191 0.082975 0.820600 0.154767
N1    N     N_R   0.503500 0.936997 0.266329 -0.155400
N2    N     N_R   0.063179 0.503375 0.266319 -0.155448
N3    N     N_R   0.496531 0.063111 0.266362 -0.155449
N4    N     N_R   0.936915 0.496637 0.266370 -0.155463
N5    N     N_R   0.005045 0.437080 0.766352 -0.154579
N6    N     N_R   0.563448 0.004048 0.766311 -0.155165
N7    N     N_R   0.995522 0.563035 0.766361 -0.154874
N8    N     N_R   0.437271 0.995792 0.766392 -0.154847
N9    N     N_R   0.004385 0.436998 0.735352 -0.138869
N10   N     N_R   0.563419 0.003546 0.735309 -0.138851
N11   N     N_R   0.996005 0.563016 0.735360 -0.138955
N12   N     N_R   0.437189 0.996410 0.735392 -0.138888
N13   N     N_R   0.502897 0.936961 0.235328 -0.138975
N14   N     N_R   0.063188 0.502866 0.235316 -0.138904
N15   N     N_R   0.497026 0.063119 0.235360 -0.138971
N16   N     N_R   0.936884 0.497224 0.235369 -0.139002
O1    O     O_3   0.500000 0.000000 0.500000 -0.499933
O2    O     O_3   0.000000 0.500000 0.500000 -0.499943
O3    O     O_3   0.000000 0.500000 0.000000 -0.497805
O4    O     O_3   0.500000 0.000000 0.000000 -0.498182
O5    O     O_R   0.500000 0.939850 0.569320 -0.621348
O6    O     O_R   0.060150 0.500000 0.569320 -0.621401
O7    O     O_R   0.500000 0.060150 0.569320 -0.621451
O8    O     O_R   0.939850 0.500000 0.569320 -0.621433
O9    O     O_R   1.000000 0.439850 0.069320 -0.621431
O10   O     O_R   0.560150 0.000000 0.069320 -0.621708
O11   O     O_R   1.000000 0.560150 0.069320 -0.621608
O12   O     O_R   0.439850 0.000000 0.069320 -0.621912
O13   O     O_R   0.439930 0.000000 0.430670 -0.644307
O14   O     O_R   0.000000 0.439930 0.430670 -0.644399
O15   O     O_R   0.560070 0.000000 0.430670 -0.644561
O16   O     O_R   0.000000 0.560070 0.430670 -0.644226
O17   O     O_R   0.939930 0.500000 0.930670 -0.644364
O18   O     O_R   0.500000 0.939930 0.930670 -0.644703
O19   O     O_R   0.060070 0.500000 0.930670 -0.648861
O20   O     O_R   0.500000 0.060070 0.930670 -0.644585
O21   O     O_R   0.415450 0.144560 0.518170 -0.650034
O22   O     O_R   0.855440 0.415450 0.518170 -0.650181
O23   O     O_R   0.584550 0.855440 0.518170 -0.649890
O24   O     O_R   0.144560 0.584550 0.518170 -0.650118
O25   O     O_R   0.584550 0.144560 0.518170 -0.626464
O26   O     O_R   0.144560 0.415450 0.518170 -0.626449
O27   O     O_R   0.415450 0.855440 0.518170 -0.626479
O28   O     O_R   0.855440 0.584550 0.518170 -0.626648
O29   O     O_R   0.915450 0.644560 0.018170 -0.649933
O30   O     O_R   0.355440 0.915450 0.018170 -0.649225
O31   O     O_R   0.084550 0.355440 0.018170 -0.646291
O32   O     O_R   0.644560 0.084550 0.018170 -0.649146
O33   O     O_R   0.084550 0.644560 0.018170 -0.625739
O34   O     O_R   0.644560 0.915450 0.018170 -0.626333
O35   O     O_R   0.915450 0.355440 0.018170 -0.626626
O36   O     O_R   0.355440 0.084550 0.018170 -0.626159
O37   O     O_R   0.644640 0.915430 0.481820 -0.607604
O38   O     O_R   0.084570 0.644640 0.481820 -0.607226
O39   O     O_R   0.355360 0.084570 0.481820 -0.607368
O40   O     O_R   0.915430 0.355360 0.481820 -0.607266
O41   O     O_R   0.355360 0.915430 0.481820 -0.645961
O42   O     O_R   0.915430 0.644640 0.481820 -0.645683
O43   O     O_R   0.644640 0.084570 0.481820 -0.646036
O44   O     O_R   0.084570 0.355360 0.481820 -0.645917
O45   O     O_R   0.144640 0.415430 0.981820 -0.626079
O46   O     O_R   0.584570 0.144640 0.981820 -0.612177
O47   O     O_R   0.855360 0.584570 0.981820 -0.607971
O48   O     O_R   0.415430 0.855360 0.981820 -0.607664
O49   O     O_R   0.855360 0.415430 0.981820 -0.646160
O50   O     O_R   0.415430 0.144640 0.981820 -0.647800
O51   O     O_R   0.144640 0.584570 0.981820 -0.650593
O52   O     O_R   0.584570 0.855360 0.981820 -0.646332
Zn1   Zn    Zn3+2 0.414160 0.000000 0.474030 0.966672
Zn2   Zn    Zn3+2 0.000000 0.414160 0.474030 0.966623
Zn3   Zn    Zn3+2 0.585840 0.000000 0.474030 0.966756
Zn4   Zn    Zn3+2 1.000000 0.585840 0.474030 0.966506
Zn5   Zn    Zn3+2 0.914160 0.500000 0.974030 0.966842
Zn6   Zn    Zn3+2 0.500000 0.914160 0.974030 0.967633
Zn7   Zn    Zn3+2 0.085840 0.500000 0.974030 0.953577
Zn8   Zn    Zn3+2 0.500000 0.085840 0.974030 0.959174
Zn9   Zn    Zn3+2 0.500000 0.085780 0.525960 1.015576
Zn10  Zn    Zn3+2 0.914220 0.500000 0.525960 1.015510
Zn11  Zn    Zn3+2 0.500000 0.914220 0.525960 1.015500
Zn12  Zn    Zn3+2 0.085780 0.500000 0.525960 1.015372
Zn13  Zn    Zn3+2 0.000000 0.585780 0.025960 1.016523
Zn14  Zn    Zn3+2 0.414220 0.000000 0.025960 1.016050
Zn15  Zn    Zn3+2 0.000000 0.414220 0.025960 1.018543
Zn16  Zn    Zn3+2 0.585780 0.000000 0.025960 1.014372
N17   N     N_2   0.156793 0.739956 0.448737 -0.255838
H33   H     H_    0.148184 0.791871 0.440860 0.226820
C113  C     C_3   0.168659 0.689721 0.423373 -0.704459
H34   H     H_    0.122895 0.693257 0.406731 0.227478
H35   H     H_    0.171821 0.633375 0.432145 0.226301
H36   H     H_    0.219428 0.703106 0.410809 0.236600
N18   N     N_2   0.259718 0.156486 0.448809 -0.255896
H37   H     H_    0.207697 0.147865 0.440992 0.226783
C114  C     C_3   0.309882 0.168121 0.423385 -0.704391
H38   H     H_    0.306219 0.122276 0.406783 0.227465
H39   H     H_    0.366337 0.171328 0.432095 0.226429
H40   H     H_    0.296454 0.218740 0.410794 0.236620
N19   N     N_2   0.843300 0.259996 0.448700 -0.255903
H41   H     H_    0.851914 0.208075 0.440792 0.226852
C115  C     C_3   0.831486 0.310218 0.423367 -0.704549
H42   H     H_    0.877257 0.306634 0.406695 0.227483
H43   H     H_    0.828362 0.366574 0.432168 0.226323
H44   H     H_    0.780715 0.296862 0.410829 0.236598
N20   N     N_2   0.740457 0.843330 0.448786 -0.256028
H45   H     H_    0.792492 0.851907 0.440944 0.226811
C116  C     C_3   0.690330 0.831574 0.423387 -0.704462
H46   H     H_    0.693994 0.877349 0.406775 0.227463
H47   H     H_    0.633863 0.828387 0.432125 0.226404
H48   H     H_    0.703789 0.780903 0.410799 0.236620
N21   N     N_2   0.813501 0.708414 0.442655 -0.297883
H49   H     H_    0.868477 0.714117 0.439708 0.259282
C117  C     C_3   0.783178 0.643187 0.429478 -0.759058
H50   H     H_    0.800463 0.595127 0.443013 0.222347
H51   H     H_    0.802250 0.636925 0.405094 0.238479
H52   H     H_    0.723175 0.646334 0.429308 0.240781
N22   N     N_2   0.708273 0.186873 0.442617 -0.297994
H53   H     H_    0.713845 0.131957 0.439626 0.259218
C118  C     C_3   0.642961 0.217283 0.429558 -0.759700
H54   H     H_    0.594883 0.199973 0.443144 0.222301
H55   H     H_    0.636581 0.198370 0.405165 0.238528
H56   H     H_    0.646170 0.277221 0.429441 0.240965
N23   N     N_2   0.186780 0.291439 0.442650 -0.297926
H57   H     H_    0.131807 0.285829 0.439698 0.259265
C119  C     C_3   0.217253 0.356600 0.429493 -0.759418
H58   H     H_    0.199965 0.404708 0.443040 0.222357
H59   H     H_    0.198307 0.362838 0.405108 0.238506
H60   H     H_    0.277253 0.353375 0.429332 0.240889
N24   N     N_2   0.291837 0.813042 0.442627 -0.297969
H61   H     H_    0.286233 0.867948 0.439650 0.259269
C120  C     C_3   0.357185 0.782635 0.429533 -0.759637
H62   H     H_    0.405231 0.799984 0.443106 0.222308
H63   H     H_    0.363603 0.801511 0.405143 0.238503
H64   H     H_    0.353995 0.722696 0.429398 0.240960
N25   N     N_2   0.654818 0.242032 0.949403 -0.258623
H65   H     H_    0.645753 0.294316 0.942093 0.223397
C121  C     C_3   0.665721 0.193133 0.923478 -0.702098
H66   H     H_    0.619052 0.197096 0.907324 0.226202
H67   H     H_    0.669792 0.136397 0.931697 0.228111
H68   H     H_    0.715706 0.207529 0.910546 0.236410
N26   N     N_2   0.758979 0.655877 0.949037 -0.256564
H69   H     H_    0.706808 0.647129 0.941432 0.225389
C122  C     C_3   0.808616 0.667222 0.923398 -0.704082
H70   H     H_    0.804573 0.621206 0.906904 0.226049
H71   H     H_    0.865250 0.670499 0.931886 0.227348
H72   H     H_    0.794952 0.717705 0.910755 0.236856
N27   N     N_2   0.345331 0.757938 0.949358 -0.256900
H73   H     H_    0.354556 0.705665 0.942031 0.223103
C123  C     C_3   0.334249 0.806742 0.923452 -0.701894
H74   H     H_    0.380880 0.802846 0.907239 0.226602
H75   H     H_    0.330077 0.863486 0.931688 0.227997
H76   H     H_    0.284266 0.792200 0.910578 0.236173
N28   N     N_2   0.288625 0.396604 0.996308 -0.278821
H77   H     H_    0.331472 0.404518 0.011293 0.226040
C124  C     C_3   0.299120 0.432788 0.966719 -0.675850
H78   H     H_    0.289402 0.491523 0.969812 0.234333
H79   H     H_    0.261128 0.412293 0.948712 0.244972
H80   H     H_    0.355515 0.425230 0.958444 0.226832
N29   N     N_2   0.383879 0.284979 0.973531 -0.290693
H81   H     H_    0.432540 0.271098 0.983554 0.254178
C125  C     C_3   0.379749 0.274335 0.940165 -0.712006
H82   H     H_    0.375158 0.216035 0.934460 0.255215
H83   H     H_    0.429295 0.296197 0.928997 0.228484
H84   H     H_    0.332186 0.303064 0.930421 0.229724
N30   N     N_2   0.210925 0.684309 0.942821 -0.298798
H85   H     H_    0.217237 0.629352 0.940251 0.252803
C126  C     C_3   0.146067 0.713733 0.928946 -0.752977
H86   H     H_    0.097448 0.696732 0.942241 0.223035
H87   H     H_    0.140963 0.693725 0.904659 0.237451
H88   H     H_    0.148935 0.773671 0.928372 0.239864
N31   N     N_2   0.686314 0.790928 0.942695 -0.298143
H89   H     H_    0.631331 0.785212 0.939810 0.258597
C127  C     C_3   0.716660 0.855980 0.929386 -0.758513
H90   H     H_    0.699464 0.904205 0.942876 0.222716
H91   H     H_    0.697521 0.861993 0.905018 0.238280
H92   H     H_    0.776659 0.852770 0.929142 0.240844
N32   N     N_2   0.789856 0.314789 0.942768 -0.298244
H93   H     H_    0.783980 0.369746 0.940070 0.258565
C128  C     C_3   0.854710 0.284756 0.929074 -0.755608
H94   H     H_    0.903240 0.301657 0.942430 0.223679
H95   H     H_    0.860275 0.304372 0.904755 0.238296
H96   H     H_    0.851467 0.224828 0.928619 0.240379
C129  C     C_2   0.889686 0.580805 0.685128 0.391453
H97   H     H_    0.874011 0.634606 0.677760 0.067363
O53   O     O_2   0.857085 0.552797 0.706723 -0.540483
C130  C     C_2   0.418452 0.890342 0.685048 0.391330
H98   H     H_    0.364470 0.875062 0.677685 0.067359
O54   O     O_2   0.446288 0.857559 0.706604 -0.540477
C131  C     C_2   0.110364 0.418997 0.684931 0.391411
H99   H     H_    0.125934 0.365152 0.677535 0.067342
O55   O     O_2   0.143123 0.447043 0.706467 -0.540463
C132  C     C_2   0.581950 0.109711 0.685009 0.391317
H100  H     H_    0.635882 0.125025 0.677559 0.067380
O56   O     O_2   0.554243 0.142438 0.706653 -0.540509
C133  C     C_2   0.390644 0.082338 0.185095 0.391169
H101  H     H_    0.375606 0.136280 0.177672 0.067113
O57   O     O_2   0.357781 0.054882 0.206749 -0.540302
C134  C     C_2   0.917401 0.391039 0.185034 0.391243
H102  H     H_    0.863351 0.376126 0.177622 0.067047
O58   O     O_2   0.944862 0.358139 0.206646 -0.540277
C135  C     C_2   0.609205 0.917705 0.184976 0.391153
H103  H     H_    0.624216 0.863738 0.177532 0.067165
O59   O     O_2   0.642108 0.945212 0.206600 -0.540337
C136  C     C_2   0.082644 0.609092 0.185026 0.391186
H104  H     H_    0.136677 0.624019 0.177567 0.067098
O60   O     O_2   0.055224 0.641970 0.206695 -0.540338
C137  C     C_2   0.901701 0.595221 0.618669 0.403670
H105  H     H_    0.845722 0.600870 0.625844 0.064748
O61   O     O_2   0.924186 0.633027 0.597464 -0.568884
C138  C     C_2   0.404093 0.902434 0.618596 0.403500
H106  H     H_    0.398026 0.846575 0.625761 0.064850
O62   O     O_2   0.366482 0.925066 0.597367 -0.569227
C139  C     C_2   0.098090 0.404527 0.618486 0.403840
H107  H     H_    0.154072 0.398784 0.625598 0.064693
O63   O     O_2   0.075521 0.366789 0.597267 -0.569052
C140  C     C_2   0.595959 0.097722 0.618521 0.403362
H108  H     H_    0.602011 0.153586 0.625713 0.064854
O64   O     O_2   0.633516 0.075113 0.597229 -0.569240
C141  C     C_2   0.402585 0.096196 0.118602 0.402326
H109  H     H_    0.346720 0.102541 0.125834 0.065562
O65   O     O_2   0.425335 0.133534 0.097296 -0.571404
C142  C     C_2   0.903500 0.402975 0.118555 0.402387
H110  H     H_    0.897028 0.347189 0.125762 0.065123
O66   O     O_2   0.866179 0.425739 0.097258 -0.570392
C143  C     C_2   0.597240 0.903755 0.118493 0.402694
H111  H     H_    0.653103 0.897403 0.125683 0.064979
O67   O     O_2   0.574483 0.866405 0.097186 -0.569968
C144  C     C_2   0.096483 0.597145 0.118523 0.402230
H112  H     H_    0.102963 0.652934 0.125754 0.064984
O68   O     O_2   0.133791 0.574367 0.097183 -0.569871

loop_
_geom_bond_atom_site_label_1
_geom_bond_atom_site_label_2
_ccdc_geom_bond_type
C101  C107  A    
C117  H51   S    
O10   Zn16  S    
C123  H74   S    
O38   Zn4   S    
C133  H101  S    
C125  H83   S    
N29   H81   S    
C42   C75   S    
C21   C137  S    
C98   H26   S    
C2    C29   S    
O43   Zn3   S    
C48   O28   A    
C46   C79   S    
C7    N15   A    
C1    O7    A    
N24   H61   S    
C74   H2    S    
C120  H64   S    
C89   H17   S    
N4    N16   A    
C55   C88   S    
N5    N9    A    
C41   C74   S    
C40   O20   A    
C14   C130  S    
N8    N12   A    
C45   C78   S    
N7    N11   A    
C37   C109  S    
C97   C105  A    
C39   C111  S    
O1    Zn3   S    
O25   Zn9   S    
C13   C129  S    
O3    Zn15  S    
C50   C83   S    
C24   C140  S    
O47   Zn5   S    
C116  H47   S    
O21   Zn9   S    
C12   N6    A    
C28   C32   A    
C134  H102  S    
C58   N18   S    
C93   C101  A    
C12   C108  S    
C3    O9    A    
C20   C28   A    
C5    N11   A    
C21   C29   A    
C60   C76   D    
C81   H9    S    
C49   C82   S    
O13   Zn1   S    
C13   C33   A    
N17   H33   S    
C37   O15   A    
N1    N13   A    
C38   O16   A    
C125  H82   S    
C45   O43   A    
C138  H106  S    
C13   C21   A    
C43   O37   A    
C46   O26   A    
C63   N23   S    
C71   N31   S    
C130  O54   D    
C96   C104  A    
C75   H3    S    
O5    Zn11  S    
C118  H55   S    
C44   C73   S    
C61   N21   S    
O19   Zn7   S    
O17   Zn5   S    
N22   C118  S    
C103  H31   S    
C7    N13   A    
C67   N27   S    
C100  C106  A    
C98   C106  A    
O35   Zn15  S    
C17   C25   A    
O49   Zn5   S    
C122  H71   S    
C19   C35   A    
C45   O25   A    
C43   O23   A    
C113  H36   S    
C121  H67   S    
O33   Zn13  S    
C91   H19   S    
C94   C102  A    
C128  H94   S    
C89   C97   A    
C103  C107  A    
N19   C115  S    
O3    Zn13  S    
C82   H10   S    
C10   N4    A    
C50   O48   A    
C25   C31   A    
N32   C128  S    
C67   C83   D    
C137  H105  S    
C54   O34   A    
C86   H14   S    
C12   N8    A    
C66   C82   D    
C144  H112  S    
C56   C85   S    
C40   C112  S    
O2    Zn4   S    
C116  H46   S    
C28   C144  S    
C23   C29   A    
C92   H20   S    
C93   H21   S    
C118  H54   S    
C119  H60   S    
N31   C127  S    
C9    C105  S    
C48   O42   A    
C142  H110  S    
N19   H41   S    
C57   C73   D    
C129  O53   D    
C16   C34   A    
C61   C77   D    
O1    Zn9   S    
O40   Zn2   S    
C128  H96   S    
C54   O52   A    
N25   H65   S    
C124  H79   S    
C99   H27   S    
C3    C32   S    
C47   C80   S    
C97   H25   S    
C95   C103  A    
C16   C132  S    
C126  H87   S    
O6    Zn12  S    
C132  H100  S    
C79   H7    S    
C90   H18   S    
C48   C77   S    
C23   C139  S    
C69   N29   S    
C136  O60   D    
C121  H66   S    
C115  H44   S    
N27   H73   S    
C25   C141  S    
C140  O64   D    
N23   C119  S    
C10   N2    A    
O3    Zn5   S    
C11   N7    A    
C139  O63   D    
C19   C135  S    
C135  O59   D    
C10   C106  S    
C47   O27   A    
C2    O8    A    
C69   C85   D    
C58   C74   D    
O2    Zn2   S    
C139  H107  S    
O26   Zn12  S    
O45   Zn7   S    
C116  H48   S    
C4    O12   A    
O30   Zn14  S    
C62   C78   D    
C130  H98   S    
C14   C34   A    
C118  H56   S    
C18   C134  S    
C119  H58   S    
C51   O45   A    
N2    N14   A    
C65   C72   S    
O51   Zn7   S    
C67   C70   S    
C14   C22   A    
N25   C121  S    
C92   C110  A    
O27   Zn11  S    
O1    Zn11  S    
C46   O44   A    
C120  H63   S    
C66   N26   S    
C70   N30   S    
C60   N20   S    
O23   Zn11  S    
C114  H40   S    
N26   H69   S    
C102  H30   S    
C91   C99   A    
C20   C136  S    
C62   N22   S    
C6    N12   A    
N22   H53   S    
O3    Zn7   S    
C53   O33   A    
C18   C26   A    
C41   O39   A    
C8    N14   A    
C51   O31   A    
C96   H24   S    
C42   O22   A    
C44   O38   A    
C141  O65   D    
C134  O58   D    
O9    Zn15  S    
C115  H42   S    
C68   N28   S    
C73   H1    S    
O24   Zn12  S    
C8    C36   S    
O34   Zn16  S    
C133  O57   D    
C56   O36   A    
O12   Zn14  S    
C11   N5    A    
C68   C69   S    
C127  H92   S    
C138  O62   D    
N18   H37   S    
C38   C110  S    
C22   C30   A    
C2    O6    A    
C17   C133  S    
N20   C116  S    
C117  H52   S    
C127  H90   S    
O39   Zn1   S    
C64   C80   D    
C41   O21   A    
C39   O17   A    
C125  H84   S    
N29   C125  S    
O48   Zn6   S    
O22   Zn10  S    
N30   H85   S    
C68   C84   D    
N28   C124  S    
N28   H77   S    
C26   C32   A    
O46   Zn8   S    
C27   C31   A    
C6    C34   S    
C60   C61   S    
O14   Zn2   S    
O15   Zn3   S    
C15   C131  S    
C131  H99   S    
C56   O50   A    
C122  H70   S    
C57   N17   S    
C39   O19   A    
C66   C71   S    
C143  O67   D    
O2    Zn10  S    
O41   Zn1   S    
C6    N10   A    
C4    O10   A    
C93   C111  A    
C71   C87   D    
O2    Zn12  S    
C65   N25   S    
C8    N16   A    
C104  C108  A    
O4    Zn6   S    
C43   C76   S    
C123  H75   S    
O18   Zn6   S    
O8    Zn10  S    
C144  O68   D    
C94   H22   S    
C27   C143  S    
N17   C113  S    
C119  H59   S    
N31   H89   S    
N21   H49   S    
C9    N1    A    
C1    C30   S    
C142  O66   D    
C129  H97   S    
C50   O30   A    
C4    C31   S    
C38   O14   A    
N32   H93   S    
C20   C36   A    
C26   C142  S    
O4    Zn14  S    
C17   C35   A    
C83   H11   S    
C18   C36   A    
C51   C84   S    
O28   Zn10  S    
C55   O35   A    
C135  H103  S    
C80   H8    S    
O44   Zn2   S    
N26   C122  S    
C124  H78   S    
C85   H13   S    
C143  H111  S    
N3    N15   A    
C87   H15   S    
C63   C79   D    
C126  H86   S    
C96   C112  A    
C52   O46   A    
C122  H72   S    
C77   H5    S    
C54   C87   S    
C132  O56   D    
C49   O29   A    
C89   C109  A    
O50   Zn8   S    
C47   O41   A    
C52   O32   A    
C121  H68   S    
C94   C112  A    
O7    Zn9   S    
C100  H28   S    
N27   C123  S    
C22   C138  S    
O11   Zn13  S    
C115  H43   S    
O16   Zn4   S    
C102  C108  A    
C53   C86   S    
C19   C27   A    
N23   H57   S    
C44   O24   A    
O37   Zn3   S    
O4    Zn8   S    
C15   C23   A    
C137  O61   D    
N18   C114  S    
C52   C81   S    
C101  H29   S    
C72   C88   D    
C99   C105  A    
O36   Zn14  S    
C127  H91   S    
C49   O47   A    
C123  H76   S    
C113  H35   S    
N21   C117  S    
C128  H95   S    
C9    N3    A    
C5    C33   S    
N30   C126  S    
C64   N24   S    
C72   N32   S    
C1    O5    A    
C53   O51   A    
C95   H23   S    
C120  H62   S    
O4    Zn16  S    
C131  O55   D    
C40   O18   A    
C78   H6    S    
C114  H39   S    
C11   C107  S    
C124  H80   S    
O20   Zn8   S    
C90   C110  A    
C117  H50   S    
C70   C86   D    
C59   C75   D    
C92   C100  A    
C57   C64   S    
C126  H88   S    
C58   C63   S    
N24   C120  S    
O1    Zn1   S    
C59   C62   S    
O31   Zn15  S    
C7    C35   S    
O29   Zn13  S    
N20   H45   S    
C84   H12   S    
C141  H109  S    
C55   O49   A    
C59   N19   S    
C91   C109  A    
C42   O40   A    
C88   H16   S    
C95   C111  A    
C3    O11   A    
C136  H104  S    
O52   Zn6   S    
C5    N9    A    
C76   H4    S    
C15   C33   A    
C140  H108  S    
C24   C30   A    
C104  H32   S    
C37   O13   A    
O32   Zn16  S    
C16   C24   A    
N6    N10   A    
C113  H34   S    
C65   C81   D    
O42   Zn4   S    
C114  H38   S    
C90   C98   A    
