data_mof_unit_20187.cif
_audit_creation_date              2012-12-10T20:48:47-0500
_audit_creation_method            fapswitch 2.2
_symmetry_space_group_name_H-M    P1
_symmetry_Int_Tables_number       1
_space_group_crystal_system       triclinic
_cell_length_a                    15.775156
_cell_length_b                    8.930207
_cell_length_c                    8.107245
_cell_angle_alpha                 89.977738
_cell_angle_beta                  90.31061
_cell_angle_gamma                 90.00217
_cell_volume                      1142.0945818

loop_
_atom_site_label
_atom_site_type_symbol
_atom_type_description
_atom_site_fract_x
_atom_site_fract_y
_atom_site_fract_z
_atom_type_partial_charge
C1    C     C_R   0.499980 0.217982 0.500019 0.932894
C2    C     C_3   0.047133 0.362537 0.414740 0.016944
C3    C     C_3   0.952445 0.483496 0.699481 -0.007561
C4    C     C_3   0.948588 0.372837 0.407678 -0.007162
C5    C     C_1   0.750755 0.502955 0.503582 -0.206045
C6    C     C_1   0.249238 0.500258 0.499612 -0.207119
C7    C     C_3   0.082846 0.500987 0.510387 0.168651
C8    C     C_3   0.917279 0.506391 0.518216 0.184979
C9    C     C_3   0.951543 0.656552 0.450074 -0.409994
C10   C     C_3   0.048492 0.648476 0.432707 -0.431165
C11   C     C_3   0.144188 0.226900 0.224883 -0.807455
C12   C     C_1   0.825838 0.505821 0.511472 -0.065323
C13   C     C_3   0.166891 0.587673 0.882050 -0.786321
C14   C     C_3   0.898733 0.243391 0.155815 -0.771702
C15   C     C_3   0.830009 0.588294 0.861173 -0.769672
C16   C     C_1   0.174142 0.500589 0.503538 -0.022649
C17   C     C_R   0.337865 0.499956 0.499624 0.896117
C18   C     C_R   0.662139 0.500156 0.500587 0.903564
C19   C     C_1   0.499977 0.934791 0.499971 -0.196981
C20   C     C_1   0.499972 0.065184 0.500027 -0.197322
C21   C     C_R   0.499991 0.781992 0.499980 0.932838
C22   C     C_3   0.052518 0.488415 0.693886 -0.015219
H1    H     H_    0.077913 0.748274 0.491496 0.172016
H2    H     H_    0.203556 0.250101 0.294180 0.246536
H3    H     H_    0.159179 0.218101 0.091599 0.236254
H4    H     H_    0.117244 0.118170 0.265633 0.235002
H5    H     H_    0.072345 0.718135 0.765275 0.241907
H6    H     H_    0.166182 0.652582 0.998768 0.229397
H7    H     H_    0.219900 0.629755 0.805735 0.256296
H8    H     H_    0.177685 0.468083 0.913180 0.244390
H9    H     H_    0.873884 0.465661 0.210854 0.235599
H10   H     H_    0.889221 0.263153 0.021844 0.232823
H11   H     H_    0.839785 0.194758 0.207675 0.227902
H12   H     H_    0.065365 0.656400 0.300267 0.174003
H13   H     H_    0.951616 0.162518 0.171820 0.259613
H14   H     H_    0.953565 0.586291 0.931193 0.259085
H15   H     H_    0.819782 0.633977 0.987066 0.216034
H16   H     H_    0.804217 0.472533 0.857719 0.245756
H17   H     H_    0.794914 0.663259 0.775959 0.259802
H18   H     H_    0.934584 0.749400 0.535255 0.196984
H19   H     H_    0.922669 0.684158 0.328353 0.166548
H20   H     H_    0.933928 0.368904 0.740287 0.090941
H21   H     H_    0.922768 0.268010 0.463492 0.107853
H22   H     H_    0.075106 0.379393 0.744792 0.113170
H23   H     H_    0.062860 0.260475 0.488359 0.098339
H24   H     H_    0.093799 0.441681 0.182086 0.251169
N1    N     N_1   0.500000 0.500030 0.073640 -0.033433
N2    N     N_1   0.500000 0.500030 0.926360 -0.033535
N3    N     N_2   0.083491 0.346127 0.249960 -0.254083
N4    N     N_2   0.087021 0.609265 0.796344 -0.297539
N5    N     N_2   0.917960 0.383842 0.236932 -0.266147
N6    N     N_2   0.919589 0.590120 0.822125 -0.287406
O1    O     O_R   0.500000 0.285340 0.636850 -0.615230
O2    O     O_R   0.500000 0.285340 0.363150 -0.615841
O3    O     O_R   0.377140 0.500000 0.636930 -0.618276
O4    O     O_R   0.377140 0.500000 0.363070 -0.614153
O5    O     O_R   0.622860 0.500000 0.636930 -0.617742
O6    O     O_R   0.622860 0.500000 0.363070 -0.615915
O7    O     O_R   0.500000 0.714650 0.636900 -0.616065
O8    O     O_R   0.500000 0.714650 0.363100 -0.615366
Zn1   Zn    Zn3+2 0.500000 0.499990 0.682780 0.983007
Zn2   Zn    Zn3+2 0.500000 0.499990 0.317220 0.986009

loop_
_geom_bond_atom_site_label_1
_geom_bond_atom_site_label_2
_ccdc_geom_bond_type
O6    Zn2   S    
C7    C10   S    
C2    C4    S    
C3    N6    S    
C3    H20   S    
O5    Zn1   S    
C11   N3    S    
C4    H21   S    
C8    C12   S    
C7    C22   S    
C9    C10   S    
C17   O3    A    
C18   O5    A    
C9    H19   S    
N1    N2    T    
C17   O4    A    
H5    N4    S    
C22   N4    S    
C4    C8    S    
N1    Zn2   S    
C13   H6    S    
C15   N6    S    
O8    Zn2   S    
H24   N3    S    
C15   H17   S    
N2    Zn1   S    
C15   H16   S    
C14   H11   S    
C1    O2    A    
O3    Zn1   S    
C13   H7    S    
C7    C16   S    
C2    N3    S    
C21   O7    A    
C2    H23   S    
C10   H1    S    
O4    Zn2   S    
O7    Zn1   S    
C11   H3    S    
C4    N5    S    
C6    C16   T    
C13   N4    S    
C11   H2    S    
C21   O8    A    
C13   H8    S    
C19   C20   T    
C5    C12   T    
C10   H12   S    
C3    C8    S    
C11   H4    S    
C14   H10   S    
C14   H13   S    
C6    C17   S    
C1    O1    A    
C15   H15   S    
C3    C22   S    
C5    C18   S    
O2    Zn2   S    
C2    C7    S    
C19   C21   S    
O1    Zn1   S    
C18   O6    A    
C9    H18   S    
C22   H22   S    
C14   N5    S    
H9    N5    S    
C8    C9    S    
C1    C20   S    
H14   N6    S    
