data_mof_unit_39162.cif
_audit_creation_date              2012-12-10T17:47:17-0500
_audit_creation_method            fapswitch 2.2
_symmetry_space_group_name_H-M    P1
_symmetry_Int_Tables_number       1
_space_group_crystal_system       triclinic
_cell_length_a                    11.666517
_cell_length_b                    14.899767
_cell_length_c                    14.836874
_cell_angle_alpha                 63.837434
_cell_angle_beta                  106.093257
_cell_angle_gamma                 102.312517
_cell_volume                      2211.6981368

loop_
_atom_site_label
_atom_site_type_symbol
_atom_type_description
_atom_site_fract_x
_atom_site_fract_y
_atom_site_fract_z
_atom_type_partial_charge
C1    C     C_R   0.479365 0.119835 0.311524 0.814556
C2    C     C_R   0.516598 0.880254 0.688184 0.766761
C3    C     C_R   0.382756 0.327174 0.997342 -0.036078
C4    C     C_R   0.502168 0.676687 0.000221 -0.054277
C5    C     C_R   0.450785 0.467497 0.051192 -0.062216
C6    C     C_R   0.431113 0.536641 0.946217 -0.062363
C7    C     C_R   0.366076 0.499417 0.870300 0.036194
C8    C     C_R   0.473490 0.506274 0.127894 0.059388
C9    C     C_R   0.347827 0.395572 0.895546 0.483356
C10   C     C_R   0.502134 0.609527 0.102344 0.448094
C11   C     C_R   0.719622 0.291090 0.651451 -0.333318
C12   C     C_R   0.276247 0.708857 0.350993 -0.319883
C13   C     C_R   0.684728 0.211087 0.622567 -0.004899
C14   C     C_R   0.316195 0.791187 0.375591 0.015187
C15   C     C_R   0.499780 0.277599 0.521856 0.563315
C16   C     C_R   0.494324 0.715909 0.488326 0.548498
C17   C     C_R   0.539041 0.368688 0.536266 -0.133917
C18   C     C_R   0.449411 0.624609 0.473286 -0.111594
C19   C     C_R   0.645786 0.368366 0.610576 0.111976
C20   C     C_R   0.343507 0.626875 0.397314 0.122252
C21   C     C_R   0.473947 0.456315 0.487049 0.060072
C22   C     C_R   0.509081 0.534162 0.523651 0.070961
C23   C     C_R   0.284523 0.999552 0.500328 0.828757
C24   C     C_R   0.715553 0.000021 0.500176 0.776800
C25   C     C_R   0.596315 0.514325 0.614490 -0.202376
C26   C     C_R   0.375138 0.468792 0.404002 -0.158071
C27   C     C_R   0.670844 0.439443 0.651579 -0.189698
C28   C     C_R   0.308161 0.549457 0.363756 -0.159753
C29   C     C_1   0.162711 0.997832 0.501773 -0.181837
C30   C     C_1   0.837618 0.999256 0.501331 -0.167723
C31   C     C_1   0.060073 0.997270 0.502374 -0.012599
C32   C     C_1   0.940257 0.998137 0.502107 -0.006342
C33   C     C_R   0.455504 0.188207 0.201012 -0.145603
C34   C     C_R   0.515591 0.812385 0.797168 -0.140645
C35   C     C_R   0.359908 0.223064 0.023244 -0.258363
C36   C     C_R   0.529329 0.780423 0.974568 -0.259441
C37   C     C_R   0.396244 0.153382 0.124056 0.428368
C38   C     C_R   0.534727 0.848764 0.873797 0.432683
C39   C     C_R   0.484868 0.291737 0.173161 -0.296420
C40   C     C_R   0.488120 0.708592 0.823696 -0.309509
C41   C     C_R   0.438859 0.362567 0.074816 0.040583
C42   C     C_R   0.471354 0.640503 0.922301 0.054775
Cu1   Cu    Cu3+1 0.469550 0.918260 0.475690 0.961681
Cu2   Cu    Cu3+1 0.530450 0.081740 0.524310 0.973946
H1    H     H_    0.600776 0.548424 0.664419 0.145404
H2    H     H_    0.345825 0.416969 0.368173 0.214388
H3    H     H_    0.480972 0.680860 0.766789 0.163572
H4    H     H_    0.545032 0.316136 0.229415 0.175163
H5    H     H_    0.311175 0.194744 0.965933 0.194239
H6    H     H_    0.544514 0.809562 0.032376 0.177519
H7    H     H_    0.742213 0.432078 0.718516 0.144982
H8    H     H_    0.230185 0.553182 0.302460 0.139838
H9    H     H_    0.263396 0.854187 0.340560 0.171877
H10   H     H_    0.741854 0.151427 0.653307 0.147370
H11   H     H_    0.802533 0.291552 0.706987 0.163176
H12   H     H_    0.193477 0.709757 0.294926 0.149059
N1    N     N_R   0.576230 0.204580 0.560790 -0.203915
N2    N     N_R   0.423770 0.795420 0.439210 -0.218362
O1    O     O_R   0.459870 0.022090 0.338120 -0.529415
O2    O     O_R   0.540130 0.977910 0.661880 -0.536989
O3    O     O_R   0.511290 0.160150 0.379180 -0.568291
O4    O     O_R   0.488710 0.839850 0.620820 -0.621494
O5    O     O_R   0.311490 0.930960 0.479480 -0.585558
O6    O     O_R   0.688510 0.069040 0.520520 -0.592139
O7    O     O_R   0.362910 0.069020 0.520540 -0.528614
O8    O     O_R   0.637090 0.930980 0.479460 -0.544661
O9    O     O_3   0.286407 0.360381 0.820935 -0.575543
C43   C     C_3   0.363225 0.372387 0.756320 0.093873
H13   H     H_    0.435391 0.436047 0.749803 0.118541
H14   H     H_    0.308162 0.389266 0.677644 0.172704
C44   C     C_3   0.419659 0.275668 0.792217 -0.891660
H15   H     H_    0.348895 0.211404 0.798844 0.253188
H16   H     H_    0.470902 0.283267 0.736136 0.220279
H17   H     H_    0.482574 0.260393 0.867526 0.240912
O10   O     O_3   0.523805 0.645250 0.178012 -0.559274
C45   C     C_3   0.647486 0.645211 0.223466 0.022911
H18   H     H_    0.703699 0.687784 0.164735 0.122388
H19   H     H_    0.672408 0.566907 0.266979 0.149605
C46   C     C_3   0.675815 0.695486 0.297876 -0.709070
H20   H     H_    0.623055 0.654031 0.358565 0.271906
H21   H     H_    0.772744 0.695367 0.334421 0.199617
H22   H     H_    0.653486 0.774385 0.256489 0.234351
O11   O     O_3   0.543816 0.950730 0.848891 -0.563713
C47   C     C_3   0.662268 0.984830 0.885983 0.074160
H23   H     H_    0.719600 0.997481 0.831914 0.144474
H24   H     H_    0.703122 0.931532 0.964039 0.116672
C48   C     C_3   0.660981 0.083858 0.892149 -0.798024
H25   H     H_    0.611851 0.071050 0.951777 0.229511
H26   H     H_    0.754259 0.116492 0.912398 0.200776
H27   H     H_    0.615493 0.137893 0.817283 0.263811
O12   O     O_3   0.369102 0.051434 0.148077 -0.570038
C49   C     C_3   0.440316 0.021896 0.104762 0.040819
H28   H     H_    0.535788 0.054716 0.117185 0.129698
H29   H     H_    0.403572 0.044851 0.020992 0.150497
C50   C     C_3   0.438767 0.908170 0.155285 -0.704648
H30   H     H_    0.491321 0.884368 0.119396 0.196849
H31   H     H_    0.480064 0.883504 0.238301 0.257186
H32   H     H_    0.345210 0.871980 0.145574 0.247899
N3    N     N_3   0.296321 0.561423 0.773880 -0.559049
H33   H     H_    0.273290 0.623698 0.777333 0.242325
H34   H     H_    0.342106 0.583017 0.714934 0.199077
N4    N     N_3   0.445340 0.447221 0.227229 -0.567869
H35   H     H_    0.377707 0.388734 0.226612 0.244548
H36   H     H_    0.522780 0.421993 0.282371 0.215545
O13   O     O_3   0.618567 0.736457 0.517964 -0.568244
C51   C     C_3   0.658692 0.727200 0.621278 0.157530
H37   H     H_    0.595720 0.679573 0.671878 0.069242
H38   H     H_    0.671703 0.799003 0.627885 0.182458
C52   C     C_3   0.784806 0.693333 0.664082 -0.857203
H39   H     H_    0.793114 0.630399 0.646600 0.267162
H40   H     H_    0.850997 0.756660 0.629143 0.250296
H41   H     H_    0.808122 0.669924 0.748583 0.202428
O14   O     O_3   0.383211 0.257975 0.474854 -0.584475
C53   C     C_3   0.305113 0.238882 0.541179 0.059080
H42   H     H_    0.323333 0.293971 0.576447 0.125331
H43   H     H_    0.313408 0.162832 0.604672 0.182257
C54   C     C_3   0.176141 0.244847 0.480372 -0.791025
H44   H     H_    0.157913 0.203149 0.430937 0.263407
H45   H     H_    0.113246 0.212416 0.533778 0.211729
H46   H     H_    0.160068 0.324379 0.430457 0.226365

loop_
_geom_bond_atom_site_label_1
_geom_bond_atom_site_label_2
_ccdc_geom_bond_type
C40   H3    S    
C21   C26   A    
C4    C36   A    
C38   O11   S    
C11   C13   A    
C50   H30   S    
C47   C48   S    
Cu1   Cu2   S    
C4    C42   A    
C54   H45   S    
C53   H42   S    
C50   H32   S    
C1    C33   S    
C39   C41   A    
Cu2   O6    S    
C11   C19   A    
C33   C39   A    
C7    N3    S    
C34   C40   A    
C23   C29   S    
C35   C37   A    
C47   H24   S    
C13   H10   S    
C52   H40   S    
C5    C6    A    
C2    O2    A    
C13   N1    A    
C51   H37   S    
C46   H22   S    
C15   C17   A    
Cu1   N2    S    
O11   C47   S    
C43   H13   S    
C22   C25   A    
C35   H5    S    
C45   C46   S    
C19   C27   A    
Cu1   O1    S    
C2    C34   S    
C23   O5    A    
C24   O6    A    
C34   C38   A    
C21   C22   A    
C15   N1    A    
Cu2   O7    S    
C27   H7    S    
C14   N2    A    
C37   O12   S    
Cu1   O5    S    
O9    C43   S    
C45   H18   S    
C54   H46   S    
O12   C49   S    
C46   H21   S    
C20   C28   A    
C49   C50   S    
C33   C37   A    
O10   C45   S    
C9    O9    S    
C3    C9    A    
C5    C8    A    
C10   O10   S    
N3    H33   S    
C3    C35   A    
Cu2   N1    S    
C12   C20   A    
C49   H29   S    
C16   C18   A    
C16   N2    A    
C47   H23   S    
N4    H36   S    
C12   H12   S    
C16   O13   S    
C8    C10   A    
N3    H34   S    
C12   C14   A    
C48   H26   S    
C52   H41   S    
C4    C10   A    
C25   H1    S    
C36   H6    S    
C44   H16   S    
O14   C53   S    
C7    C9    A    
C5    C41   A    
C3    C41   A    
C15   O14   S    
C18   C22   A    
C31   C32   S    
C45   H19   S    
C40   C42   A    
C1    O3    A    
C44   H17   S    
C53   H43   S    
C50   H31   S    
C43   C44   S    
C6    C7    A    
C24   O8    A    
Cu2   O3    S    
C25   C27   A    
O13   C51   S    
C26   C28   A    
C11   H11   S    
C23   O7    A    
C1    O1    A    
C44   H15   S    
C29   C31   T    
C54   H44   S    
C30   C32   T    
C28   H8    S    
C51   H38   S    
Cu2   O2    S    
Cu1   O8    S    
C36   C38   A    
C49   H28   S    
C17   C19   A    
C18   C20   A    
N4    H35   S    
C24   C30   S    
C53   C54   S    
C26   H2    S    
C46   H20   S    
C14   H9    S    
C48   H25   S    
C43   H14   S    
C6    C42   A    
C48   H27   S    
C52   H39   S    
C8    N4    S    
C2    O4    A    
Cu1   O4    S    
C39   H4    S    
C51   C52   S    
C17   C21   A    
