data_mof_unit_62063.cif
_audit_creation_date              2012-12-10T19:11:46-0500
_audit_creation_method            fapswitch 2.2
_symmetry_space_group_name_H-M    P1
_symmetry_Int_Tables_number       1
_space_group_crystal_system       triclinic
_cell_length_a                    44.537832
_cell_length_b                    38.927656
_cell_length_c                    21.718808
_cell_angle_alpha                 90.00005
_cell_angle_beta                  60.869883
_cell_angle_gamma                 89.999973
_cell_volume                      32892.3125108

loop_
_atom_site_label
_atom_site_type_symbol
_atom_type_description
_atom_site_fract_x
_atom_site_fract_y
_atom_site_fract_z
_atom_type_partial_charge
C1    C     C_R   0.067230 0.500001 0.432775 0.869284
C2    C     C_R   0.623190 0.503913 0.822296 -0.180868
C3    C     C_R   1.000000 0.104794 1.000000 -0.095888
C4    C     C_R   0.526613 0.731996 0.944202 -0.086354
C5    C     C_R   0.473388 0.731996 0.055796 -0.086351
C6    C     C_R   0.026588 0.231995 0.944154 -0.086347
C7    C     C_R   0.973413 0.231995 0.055844 -0.086347
C8    C     C_R   0.026542 0.267681 0.944010 -0.161605
C9    C     C_R   0.973459 0.267681 0.055988 -0.161604
C10   C     C_R   0.526567 0.767681 0.944058 -0.161605
C11   C     C_R   0.473433 0.767681 0.055940 -0.161604
C12   C     C_R   0.000000 0.285750 0.999999 0.100203
C13   C     C_R   0.876808 0.003897 0.177708 -0.180867
C14   C     C_R   0.500000 0.785751 0.999999 0.100209
C15   C     C_R   0.500000 0.714188 0.999999 0.184237
C16   C     C_R   0.000001 0.214187 0.999999 0.184244
C17   C     C_R   0.030660 0.341471 0.979597 -0.164185
C18   C     C_R   0.969340 0.341471 0.020401 -0.164187
C19   C     C_R   0.530653 0.841472 0.979673 -0.164182
C20   C     C_R   0.469347 0.841472 0.020325 -0.164182
C21   C     C_2   0.000835 0.506072 0.814413 -0.380482
C22   C     C_2   0.999165 0.506072 0.185587 -0.380483
C23   C     C_2   0.500835 0.006072 0.814413 -0.380482
C24   C     C_R   0.123191 0.003907 0.822294 -0.180870
C25   C     C_2   0.499165 0.006072 0.185587 -0.380483
C26   C     C_R   0.030686 0.377161 0.979374 -0.183444
C27   C     C_R   0.969314 0.377161 0.020625 -0.183444
C28   C     C_R   0.530679 0.877162 0.979448 -0.183447
C29   C     C_R   0.469321 0.877162 0.020551 -0.183446
C30   C     C_R   0.000000 0.395226 1.000000 -0.038432
C31   C     C_R   0.500000 0.895227 1.000000 -0.038416
C32   C     C_R   0.000000 0.323405 0.999999 0.113840
C33   C     C_R   0.500000 0.823406 0.999999 0.113843
C34   C     C_R   0.499858 0.377023 0.944249 -0.181926
C35   C     C_R   0.395120 0.499588 0.104404 -0.077975
C36   C     C_R   0.500141 0.377023 0.055752 -0.181923
C37   C     C_R   0.999866 0.877023 0.944241 -0.181929
C38   C     C_R   0.000134 0.877023 0.055759 -0.181930
C39   C     C_R   0.499869 0.341344 0.944259 -0.169412
C40   C     C_R   0.500130 0.341344 0.055742 -0.169415
C41   C     C_R   0.999877 0.841344 0.944251 -0.169419
C42   C     C_R   0.000123 0.841344 0.055749 -0.169419
C43   C     C_R   0.499999 0.323341 0.000000 0.111756
C44   C     C_R   1.000000 0.823341 0.000000 0.111759
C45   C     C_R   0.500000 0.395083 0.000000 -0.040177
C46   C     C_R   0.604880 0.499590 0.895595 -0.077984
C47   C     C_R   0.000000 0.895083 0.000000 -0.040175
C48   C     C_R   0.477894 0.267765 0.061520 -0.176124
C49   C     C_R   0.522105 0.267765 0.938481 -0.176128
C50   C     C_R   0.977890 0.767765 0.061516 -0.176130
C51   C     C_R   0.022110 0.767765 0.938484 -0.176130
C52   C     C_R   0.977874 0.732089 0.061503 -0.175175
C53   C     C_R   0.022126 0.732089 0.938497 -0.175175
C54   C     C_R   0.477878 0.232089 0.061507 -0.175173
C55   C     C_R   0.522121 0.232089 0.938494 -0.175173
C56   C     C_R   1.000000 0.714084 0.000000 0.103762
C57   C     C_R   0.895120 0.999590 0.104404 -0.077990
C58   C     C_R   0.500000 0.214084 0.000000 0.103759
C59   C     C_2   0.974520 0.519826 0.742272 0.207075
C60   C     C_2   0.025480 0.519826 0.257728 0.207077
C61   C     C_2   0.474520 0.019826 0.742272 0.207073
C62   C     C_2   0.525479 0.019826 0.257728 0.207073
C63   C     C_R   0.499999 0.285770 0.000000 0.103369
C64   C     C_R   1.000000 0.785770 0.000000 0.103371
C65   C     C_R   0.031188 0.658512 0.969368 -0.168623
C66   C     C_R   0.968812 0.658512 0.030632 -0.168622
C67   C     C_R   0.531188 0.158512 0.969359 -0.168622
C68   C     C_R   0.104880 0.999590 0.895595 -0.077986
C69   C     C_R   0.468812 0.158512 0.030642 -0.168620
C70   C     C_R   0.031201 0.622834 0.969374 -0.178299
C71   C     C_R   0.968799 0.622834 0.030626 -0.178298
C72   C     C_R   0.531201 0.122834 0.969365 -0.178296
C73   C     C_R   0.468799 0.122834 0.030636 -0.178297
C74   C     C_R   1.000000 0.604763 0.000000 -0.034055
C75   C     C_R   0.500000 0.104763 0.000000 -0.034057
C76   C     C_R   1.000000 0.676514 0.000000 0.111724
C77   C     C_R   0.500000 0.176514 0.000000 0.111723
C78   C     C_2   0.995194 0.498810 0.689524 -0.385739
C79   C     C_R   0.268127 0.474594 0.264977 -0.162837
C80   C     C_2   0.004806 0.498810 0.310476 -0.385733
C81   C     C_2   0.495194 0.998810 0.689524 -0.385743
C82   C     C_2   0.504806 0.998810 0.310476 -0.385743
C83   C     C_R   0.377329 0.494607 0.066691 -0.206232
C84   C     C_R   0.622672 0.494646 0.933316 -0.206237
C85   C     C_R   0.877328 0.994662 0.066678 -0.206227
C86   C     C_R   0.122672 0.994651 0.933319 -0.206231
C87   C     C_R   0.341580 0.494113 0.101535 0.176612
C88   C     C_R   0.658422 0.494154 0.898471 0.176614
C89   C     C_R   0.841578 0.994169 0.101522 0.176604
C90   C     C_R   0.731872 0.474574 0.735076 -0.162831
C91   C     C_R   0.158422 0.994159 0.898474 0.176612
C92   C     C_R   0.323384 0.499028 0.174977 0.046522
C93   C     C_R   0.676616 0.499033 0.825019 0.046521
C94   C     C_R   0.823383 0.999033 0.174978 0.046530
C95   C     C_R   0.176617 0.999033 0.825021 0.046524
C96   C     C_2   0.516628 0.675868 0.097603 0.896556
C97   C     C_2   0.483372 0.675868 0.902397 0.896555
C98   C     C_2   0.016726 0.175867 0.097460 0.896560
C99   C     C_2   0.983274 0.175867 0.902539 0.896559
C100  C     C_R   0.768127 0.974569 0.264911 -0.162844
C101  C     C_R   0.932770 0.500001 0.567224 0.869281
C102  C     C_R   0.231873 0.974571 0.735082 -0.162837
C103  C     C_R   0.232418 0.474921 0.301606 -0.181076
C104  C     C_R   0.767581 0.474900 0.698444 -0.181074
C105  C     C_R   0.732418 0.974894 0.301542 -0.181077
C106  C     C_R   0.267582 0.974897 0.698452 -0.181076
C107  C     C_R   0.214308 0.500179 0.286904 0.101015
C108  C     C_R   0.785691 0.500182 0.713088 0.101023
C109  C     C_R   0.714308 0.000181 0.286911 0.101014
C110  C     C_R   0.285692 0.000181 0.713090 0.101015
C111  C     C_R   0.232341 0.525352 0.235799 -0.166634
C112  C     C_R   0.567230 0.000001 0.432776 0.869275
C113  C     C_R   0.767658 0.525379 0.764135 -0.166631
C114  C     C_R   0.732340 0.025383 0.235877 -0.166628
C115  C     C_R   0.267659 0.025380 0.764131 -0.166629
C116  C     C_R   0.268041 0.525090 0.199470 -0.132641
C117  C     C_R   0.731959 0.525118 0.800463 -0.132642
C118  C     C_R   0.768040 0.025122 0.199547 -0.132642
C119  C     C_R   0.231959 0.025119 0.800460 -0.132642
C120  C     C_R   0.285950 0.499435 0.213322 0.120916
C121  C     C_R   0.714050 0.499440 0.786672 0.120914
C122  C     C_R   0.785949 0.999439 0.213326 0.120917
C123  C     C_R   0.432770 0.000001 0.567224 0.869279
C124  C     C_R   0.214051 0.999439 0.786673 0.120914
C125  C     C_R   0.158639 0.469170 0.335598 -0.162047
C126  C     C_R   0.841361 0.469175 0.664442 -0.162043
C127  C     C_R   0.658639 0.969177 0.335523 -0.162042
C128  C     C_R   0.341361 0.969176 0.664469 -0.162043
C129  C     C_R   0.998351 0.499894 0.620540 0.958640
C130  C     C_R   0.001649 0.499894 0.379460 0.958642
C131  C     C_R   0.498351 0.999894 0.620540 0.958634
C132  C     C_R   0.501649 0.999894 0.379460 0.958636
C133  C     C_R   0.122930 0.469108 0.370984 -0.182812
C134  C     C_R   0.341120 0.503683 0.212736 -0.205410
C135  C     C_R   0.877070 0.469111 0.629057 -0.182800
C136  C     C_R   0.622930 0.969113 0.370908 -0.182790
C137  C     C_R   0.377070 0.969113 0.629083 -0.182793
C138  C     C_R   0.104793 0.500044 0.395416 -0.032509
C139  C     C_R   0.895208 0.500045 0.604580 -0.032495
C140  C     C_R   0.604792 0.000045 0.395420 -0.032482
C141  C     C_R   0.395208 0.000044 0.604581 -0.032486
C142  C     C_R   0.122820 0.531034 0.384061 -0.160361
C143  C     C_R   0.877182 0.531032 0.615886 -0.160376
C144  C     C_R   0.622818 0.031029 0.384149 -0.160391
C145  C     C_R   0.658880 0.503652 0.787253 -0.205417
C146  C     C_R   0.377182 0.031030 0.615862 -0.160387
C147  C     C_R   0.158526 0.531062 0.348967 -0.171217
C148  C     C_R   0.841476 0.531060 0.650976 -0.171212
C149  C     C_R   0.658524 0.031057 0.349057 -0.171213
C150  C     C_R   0.341476 0.031058 0.650954 -0.171213
C151  C     C_R   0.176646 0.500137 0.324477 0.113168
C152  C     C_R   0.823354 0.500139 0.675514 0.113177
C153  C     C_R   0.676645 0.000138 0.324485 0.113171
C154  C     C_R   0.323355 0.000138 0.675517 0.113172
C155  C     C_R   1.000000 0.432763 1.000000 0.867722
C156  C     C_R   0.841119 0.003636 0.212750 -0.205418
C157  C     C_R   0.500000 0.932763 1.000000 0.867715
C158  C     C_R   0.000063 0.501419 0.880910 0.958319
C159  C     C_R   0.999937 0.501419 0.119090 0.958320
C160  C     C_R   0.500063 0.001419 0.880910 0.958317
C161  C     C_R   0.499937 0.001419 0.119090 0.958317
C162  C     C_R   1.000000 0.567231 0.000000 0.862206
C163  C     C_R   0.500000 0.067231 0.000000 0.862207
C164  C     C_R   0.500000 0.432602 0.000000 0.870997
C165  C     C_R   0.000000 0.932602 0.000000 0.870998
C166  C     C_R   0.432673 0.499916 0.067229 0.886056
C167  C     C_R   0.158880 0.003646 0.787252 -0.205417
C168  C     C_R   0.567327 0.499916 0.932771 0.886065
C169  C     C_R   0.932673 0.999916 0.067229 0.886059
C170  C     C_R   0.067327 0.999916 0.932771 0.886059
C171  C     C_2   0.973050 0.516223 0.810716 -0.173071
C172  C     C_2   0.026950 0.516223 0.189283 -0.173069
C173  C     C_2   0.473050 0.016223 0.810716 -0.173076
C174  C     C_2   0.526949 0.016223 0.189284 -0.173076
C175  C     C_R   0.500000 0.567230 0.000000 0.893730
C176  C     C_R   1.000000 0.067230 0.000000 0.893718
C177  C     C_R   0.506704 0.622720 0.047736 -0.215511
C178  C     C_R   0.376809 0.503945 0.177695 -0.180867
C179  C     C_R   0.493296 0.622720 0.952264 -0.215508
C180  C     C_R   0.006749 0.122719 0.047673 -0.215505
C181  C     C_R   0.993251 0.122719 0.952326 -0.215505
C182  C     C_R   0.507405 0.658561 0.047796 -0.019810
C183  C     C_R   0.492595 0.658561 0.952203 -0.019809
C184  C     C_R   0.007452 0.158560 0.047730 -0.019809
C185  C     C_R   0.992549 0.158560 0.952269 -0.019809
C186  C     C_R   0.500000 0.676662 0.999999 -0.092216
C187  C     C_R   0.000001 0.176661 0.999999 -0.092220
C188  C     C_R   0.500000 0.604795 1.000000 -0.095902
H1    H     H_    0.949280 0.522660 0.858027 0.190848
H2    H     H_    0.781160 0.544940 0.776586 0.142894
H3    H     H_    0.218111 0.954869 0.723644 0.141505
H4    H     H_    0.518377 0.673070 0.188640 0.352436
H5    H     H_    0.481625 0.673071 0.811359 0.352434
H6    H     H_    0.018558 0.173067 0.188408 0.352439
H7    H     H_    0.981443 0.173067 0.811591 0.352438
H8    H     H_    0.718838 0.044948 0.223437 0.142902
H9    H     H_    0.281162 0.044943 0.776577 0.142901
H10   H     H_    0.281744 0.544689 0.160255 0.153955
H11   H     H_    0.718257 0.544735 0.839632 0.153950
H12   H     H_    0.781742 0.044743 0.160388 0.153959
H13   H     H_    0.218257 0.044738 0.839624 0.153955
H14   H     H_    0.172183 0.445086 0.316156 0.138682
H15   H     H_    0.827817 0.445094 0.683923 0.138672
H16   H     H_    0.672183 0.945098 0.316016 0.138680
H17   H     H_    0.050720 0.522659 0.141973 0.190848
H18   H     H_    0.327817 0.945097 0.683968 0.138679
H19   H     H_    0.109576 0.444892 0.378787 0.161148
H20   H     H_    0.890424 0.444898 0.621294 0.161141
H21   H     H_    0.609576 0.944902 0.378645 0.161137
H22   H     H_    0.390424 0.944901 0.621339 0.161139
H23   H     H_    0.109380 0.555225 0.402686 0.165713
H24   H     H_    0.890623 0.555219 0.597222 0.165693
H25   H     H_    0.609377 0.055215 0.402840 0.165678
H26   H     H_    0.390623 0.055216 0.597178 0.165682
H27   H     H_    0.171972 0.555186 0.341643 0.134666
H28   H     H_    0.449280 0.022660 0.858027 0.190849
H29   H     H_    0.828031 0.555181 0.658259 0.134655
H30   H     H_    0.671969 0.055177 0.341799 0.134660
H31   H     H_    0.328030 0.055178 0.658220 0.134661
H32   H     H_    0.512400 0.608611 0.083837 0.200661
H33   H     H_    0.487600 0.608611 0.916162 0.200660
H34   H     H_    0.012480 0.108609 0.083723 0.200649
H35   H     H_    0.987520 0.108609 0.916277 0.200648
H36   H     H_    0.547194 0.718210 0.900885 0.126319
H37   H     H_    0.452806 0.718210 0.099113 0.126317
H38   H     H_    0.047149 0.218210 0.900799 0.126318
H39   H     H_    0.550720 0.022660 0.141973 0.190848
H40   H     H_    0.952851 0.218210 0.099199 0.126318
H41   H     H_    0.025568 0.502892 0.767194 0.160786
H42   H     H_    0.974432 0.502892 0.232806 0.160786
H43   H     H_    0.525568 0.002892 0.767194 0.160787
H44   H     H_    0.474432 0.002892 0.232806 0.160788
H45   H     H_    0.046990 0.281143 0.899884 0.131267
H46   H     H_    0.953010 0.281144 0.100113 0.131267
H47   H     H_    0.547036 0.781143 0.899967 0.131263
H48   H     H_    0.452965 0.781144 0.100030 0.131262
H49   H     H_    0.054511 0.327996 0.964634 0.139277
H50   H     H_    0.218962 0.455627 0.341681 0.134938
H51   H     H_    0.945489 0.327996 0.035364 0.139278
H52   H     H_    0.554498 0.827998 0.964771 0.139271
H53   H     H_    0.445502 0.827998 0.035226 0.139270
H54   H     H_    0.054646 0.390567 0.963663 0.160595
H55   H     H_    0.945354 0.390567 0.036336 0.160595
H56   H     H_    0.554633 0.890569 0.963797 0.160584
H57   H     H_    0.445367 0.890569 0.036202 0.160584
H58   H     H_    0.499660 0.390414 0.900738 0.160163
H59   H     H_    0.500340 0.390414 0.099262 0.160164
H60   H     H_    0.999674 0.890414 0.900724 0.160162
H61   H     H_    0.781037 0.455587 0.658415 0.134930
H62   H     H_    0.000326 0.890414 0.099276 0.160162
H63   H     H_    0.499380 0.327802 0.901184 0.136052
H64   H     H_    0.500619 0.327802 0.098817 0.136052
H65   H     H_    0.999394 0.827802 0.901169 0.136049
H66   H     H_    0.000605 0.827802 0.098831 0.136049
H67   H     H_    0.460449 0.281301 0.109304 0.136109
H68   H     H_    0.539550 0.281301 0.890697 0.136107
H69   H     H_    0.960441 0.781301 0.109297 0.136105
H70   H     H_    0.039559 0.781301 0.890703 0.136105
H71   H     H_    0.960840 0.718553 0.109617 0.136700
H72   H     H_    0.718962 0.955577 0.341563 0.134938
H73   H     H_    0.039160 0.718553 0.890383 0.136701
H74   H     H_    0.460848 0.218553 0.109623 0.136703
H75   H     H_    0.539151 0.218553 0.890378 0.136702
H76   H     H_    0.055504 0.672054 0.946179 0.136159
H77   H     H_    0.944495 0.672054 0.053821 0.136159
H78   H     H_    0.555504 0.172054 0.946163 0.136161
H79   H     H_    0.444495 0.172054 0.053837 0.136162
H80   H     H_    0.055608 0.609458 0.945582 0.161092
H81   H     H_    0.944392 0.609458 0.054418 0.161093
H82   H     H_    0.555608 0.109458 0.945566 0.161093
H83   H     H_    0.281038 0.955581 0.658427 0.134937
H84   H     H_    0.444391 0.109458 0.054434 0.161094
H85   H     H_    0.008259 0.477559 0.698933 0.140442
H86   H     H_    0.991741 0.477559 0.301067 0.140443
H87   H     H_    0.508259 0.977559 0.698933 0.140445
H88   H     H_    0.491741 0.977559 0.301067 0.140445
H89   H     H_    0.391146 0.490665 0.010191 0.181576
H90   H     H_    0.608857 0.490732 0.989824 0.181588
H91   H     H_    0.891143 0.990760 0.010166 0.181595
H92   H     H_    0.108856 0.990741 0.989828 0.181591
H93   H     H_    0.327250 0.507406 0.269334 0.149573
H94   H     H_    0.218839 0.544895 0.223304 0.142903
H95   H     H_    0.672748 0.507347 0.730647 0.149574
H96   H     H_    0.827250 0.007318 0.269360 0.149569
H97   H     H_    0.172749 0.007336 0.730645 0.149572
H98   H     H_    0.390019 0.507781 0.207860 0.165237
H99   H     H_    0.609980 0.507719 0.792123 0.165245
H100  H     H_    0.890019 0.007690 0.207886 0.165243
H101  H     H_    0.109981 0.007709 0.792119 0.165243
H102  H     H_    0.281889 0.454912 0.276466 0.141506
H103  H     H_    0.718110 0.454873 0.723634 0.141506
H104  H     H_    0.781889 0.954864 0.276344 0.141503
I1    I     I_    0.939740 0.555233 0.735828 -0.347333
I2    I     I_    0.060260 0.555232 0.264171 -0.347370
I3    I     I_    0.439741 0.055233 0.735828 -0.347316
I4    I     I_    0.560259 0.055233 0.264172 -0.347311
I5    I     I_    0.317061 0.483761 0.040599 -0.371950
I6    I     I_    0.682943 0.483860 0.959425 -0.371933
I7    I     I_    0.817059 0.983898 0.040556 -0.371937
I8    I     I_    0.182942 0.983873 0.959433 -0.371934
O1    O     O_R   0.050910 0.528740 0.449110 -0.613283
O2    O     O_R   0.550910 0.500000 0.000190 -0.621039
O3    O     O_R   0.949090 0.000000 0.999810 -0.621041
O4    O     O_R   0.050910 0.000000 0.000190 -0.621040
O5    O     O_R   0.500000 0.550840 0.051180 -0.619325
O6    O     O_R   0.500000 0.550840 0.948820 -0.619319
O7    O     O_R   0.000000 0.050840 0.051180 -0.619307
O8    O     O_R   0.000000 0.050840 0.948820 -0.619309
O9    O     O_R   0.050900 0.471250 0.449110 -0.629651
O10   O     O_R   0.949100 0.471250 0.550890 -0.629652
O11   O     O_R   0.550900 0.971250 0.449110 -0.629653
O12   O     O_R   0.949090 0.528740 0.550890 -0.613277
O13   O     O_R   0.449100 0.971250 0.550890 -0.629652
O14   O     O_R   0.999990 0.528740 0.590470 -0.585498
O15   O     O_R   0.000010 0.528740 0.409530 -0.585504
O16   O     O_R   0.499990 0.028740 0.590470 -0.585503
O17   O     O_R   0.500010 0.028740 0.409530 -0.585502
O18   O     O_R   0.999990 0.471250 0.590470 -0.624258
O19   O     O_R   0.000010 0.471250 0.409530 -0.624252
O20   O     O_R   0.499990 0.971250 0.590470 -0.624255
O21   O     O_R   0.500010 0.971250 0.409530 -0.624256
O22   O     O_R   0.971250 0.449080 0.028720 -0.623797
O23   O     O_R   0.550910 0.028740 0.449110 -0.613271
O24   O     O_R   0.028750 0.449080 0.971280 -0.623798
O25   O     O_R   0.471250 0.949080 0.028720 -0.623792
O26   O     O_R   0.528750 0.949080 0.971280 -0.623793
O27   O     O_R   0.971260 0.500000 0.938260 -0.615642
O28   O     O_R   0.028740 0.500000 0.061740 -0.615642
O29   O     O_R   0.471260 0.000000 0.938260 -0.615646
O30   O     O_R   0.528740 0.000000 0.061740 -0.615647
O31   O     O_R   0.028750 0.500000 0.880800 -0.621074
O32   O     O_R   0.971250 0.500000 0.119200 -0.621073
O33   O     O_R   0.528750 0.000000 0.880800 -0.621070
O34   O     O_R   0.449090 0.028740 0.550890 -0.613273
O35   O     O_R   0.471250 0.000000 0.119200 -0.621070
O36   O     O_R   0.971260 0.550910 0.028730 -0.627469
O37   O     O_R   0.028740 0.550910 0.971270 -0.627469
O38   O     O_R   0.471260 0.050910 0.028730 -0.627469
O39   O     O_R   0.528740 0.050910 0.971270 -0.627468
O40   O     O_R   0.499990 0.449020 0.050970 -0.624578
O41   O     O_R   0.500010 0.449020 0.949030 -0.624584
O42   O     O_R   0.999990 0.949020 0.050970 -0.624582
O43   O     O_R   0.000010 0.949020 0.949030 -0.624579
O44   O     O_2   0.529950 0.704319 0.084421 -0.622335
O45   O     O_R   0.449080 0.499930 0.101960 -0.623483
O46   O     O_R   0.510850 0.658976 0.159279 -0.806330
O47   O     O_2   0.470050 0.704319 0.915580 -0.622337
O48   O     O_R   0.489151 0.658977 0.840720 -0.806330
O49   O     O_2   0.030046 0.204319 0.084243 -0.622339
O50   O     O_R   0.010999 0.158974 0.159100 -0.806321
O51   O     O_2   0.969955 0.204319 0.915756 -0.622340
O52   O     O_R   0.989002 0.158974 0.840899 -0.806320
O53   O     O_R   0.550920 0.499930 0.898040 -0.623490
O54   O     O_R   0.949080 0.999930 0.101960 -0.623490
O55   O     O_R   0.050920 0.999930 0.898040 -0.623490
O56   O     O_R   0.449090 0.500000 0.999810 -0.621033
Zn1   Zn    Zn3+2 0.000000 0.538380 0.500000 1.020716
Zn2   Zn    Zn3+2 0.500010 0.499920 0.931800 0.975473
Zn3   Zn    Zn3+2 0.999990 0.999920 0.068200 0.975475
Zn4   Zn    Zn3+2 0.000010 0.999920 0.931800 0.975476
Zn5   Zn    Zn3+2 0.500000 0.038380 0.500000 1.020723
Zn6   Zn    Zn3+2 0.000000 0.461610 0.500000 0.967329
Zn7   Zn    Zn3+2 0.500000 0.961610 0.500000 0.967328
Zn8   Zn    Zn3+2 0.961620 0.500000 0.038360 0.965581
Zn9   Zn    Zn3+2 0.038380 0.500000 0.961640 0.965579
Zn10  Zn    Zn3+2 0.461620 0.000000 0.038360 0.965583
Zn11  Zn    Zn3+2 0.538380 0.000000 0.961640 0.965583
Zn12  Zn    Zn3+2 0.499990 0.499920 0.068200 0.975475

loop_
_geom_bond_atom_site_label_1
_geom_bond_atom_site_label_2
_ccdc_geom_bond_type
C95   C124  S    
C96   O44   D    
C136  C140  A    
C14   C33   S    
C43   C63   S    
C155  O22   A    
C170  O55   A    
C44   C64   S    
C135  C139  A    
C10   H47   S    
C114  H8    S    
C179  H33   S    
C37   C41   A    
O38   Zn10  S    
C78   C129  S    
C93   C121  S    
C47   C165  S    
C22   C159  S    
C42   H66   S    
O7    Zn3   S    
C177  C182  A    
C168  O53   A    
C89   C94   A    
O33   Zn11  S    
C149  C153  A    
C169  O54   A    
C1    O9    A    
C175  C188  S    
C146  C150  A    
C40   C43   A    
C123  O34   A    
C70   C74   A    
C50   C52   A    
C180  H34   S    
C148  H29   S    
C57   C169  S    
C24   H101  S    
C117  H11   S    
C128  C154  A    
C8    H45   S    
C35   C178  A    
O32   Zn8   S    
C131  O20   A    
C168  O2    A    
C73   C75   A    
C42   C44   A    
C59   C171  S    
C97   C183  S    
C20   H53   S    
C125  H14   S    
C134  H93   S    
O15   Zn1   S    
C127  C136  A    
C48   C63   A    
C179  C188  A    
C129  O14   A    
C73   H84   S    
O11   Zn7   S    
C60   C172  S    
C108  C113  A    
C174  H39   S    
C162  O37   A    
C22   H42   S    
C90   H103  S    
C71   H81   S    
C66   C76   A    
C79   C120  A    
C123  C141  S    
C102  H3    S    
C90   C104  A    
C31   C157  S    
O1    Zn1   S    
C46   C84   A    
C20   C33   A    
C94   C122  S    
O13   Zn7   S    
C163  O38   A    
O6    Zn2   S    
C19   C33   A    
C111  H94   S    
C65   H76   S    
C165  O42   A    
C99   C185  S    
C89   I7    S    
O20   Zn7   S    
O8    Zn4   S    
C51   C64   A    
C84   C88   A    
C83   H89   S    
C69   H79   S    
C70   H80   S    
C137  H22   S    
C97   O48   S    
C100  H104  S    
C91   I8    S    
C5    H37   S    
O24   Zn9   S    
C128  H18   S    
C5    C15   A    
O26   Zn11  S    
C6    C16   A    
C3    C176  S    
C130  O19   A    
C17   C32   A    
C103  C107  A    
C28   H56   S    
C23   H43   S    
C180  C184  A    
C2    H99   S    
C25   H44   S    
O2    Zn12  S    
C181  H35   S    
C112  C140  S    
C69   C77   A    
C67   C77   A    
C118  H12   S    
C101  C139  S    
C113  H2    S    
C159  O32   A    
C177  C188  A    
O34   Zn5   S    
C172  H17   S    
O12   Zn1   S    
C147  H27   S    
C81   C131  S    
C13   C57   A    
C65   C70   A    
C41   H65   S    
C176  O8    A    
C53   H73   S    
C75   C163  S    
C67   C72   A    
C118  C122  A    
C125  C151  A    
C58   C77   S    
C126  C152  A    
C25   C161  S    
C84   H90   S    
C150  H31   S    
C85   H91   S    
C86   H92   S    
C37   C47   A    
C127  H16   S    
C107  C151  S    
C129  O18   A    
C106  H83   S    
O27   Zn8   S    
C79   C103  A    
C142  H23   S    
C72   C75   A    
O42   Zn3   S    
C59   C78   D    
C143  C148  A    
O31   Zn9   S    
C34   C39   A    
C57   C85   A    
C24   C167  A    
C10   C14   A    
C183  C186  A    
C74   C162  S    
C99   O52   S    
C49   C55   A    
C116  C120  A    
C51   C53   A    
C147  C151  A    
C3    C180  A    
C13   C156  A    
C34   H58   S    
C62   I4    S    
C8    C12   A    
C131  O16   A    
O56   Zn2   S    
C48   H67   S    
C19   C28   A    
C66   H77   S    
C109  C114  A    
C113  C117  A    
C51   H70   S    
C26   C30   A    
C175  O6    A    
C115  C119  A    
C90   C121  A    
C88   I6    S    
C145  H95   S    
C109  C153  S    
C53   C56   A    
C163  O39   A    
C60   C80   D    
O3    Zn4   S    
C107  C111  A    
C142  C147  A    
C92   C134  A    
C148  C152  A    
C95   C167  A    
C143  H24   S    
O18   Zn6   S    
C126  H15   S    
C112  O11   A    
C184  C187  A    
C169  O3    A    
C61   C81   D    
C38   H62   S    
C103  H50   S    
O21   Zn7   S    
C98   C184  S    
C9    C12   A    
C79   H102  S    
C91   C95   A    
C98   O49   D    
C157  O26   A    
C36   H59   S    
O16   Zn5   S    
C83   C87   A    
C164  O41   A    
C21   C158  S    
O29   Zn10  S    
C178  H98   S    
C2    C145  A    
C158  O31   A    
C115  H9    S    
O40   Zn12  S    
C65   C76   A    
C46   C168  S    
C56   C76   S    
C5    C11   A    
C86   C91   A    
C54   C58   A    
C40   H64   S    
C35   C166  S    
C50   C64   A    
C105  H72   S    
C182  C186  A    
C105  C109  A    
C108  C152  S    
C68   C170  S    
O9    Zn6   S    
C101  O10   A    
C123  O13   A    
C69   C73   A    
C111  C116  A    
O17   Zn5   S    
H4    O46   S    
C62   C82   D    
C133  C138  A    
C87   C92   A    
C166  O45   A    
C102  C124  A    
C132  O21   A    
C15   C186  S    
C138  C142  A    
C156  H96   S    
C67   H78   S    
C35   C83   A    
O23   Zn5   S    
C6    C8    A    
C160  O33   A    
C21   C171  D    
O4    Zn3   S    
C27   H55   S    
C87   I5    S    
C97   O47   D    
C116  H10   S    
C66   C71   A    
C21   H41   S    
O14   Zn1   S    
C134  C178  A    
C3    C181  A    
C141  C146  A    
C30   C155  S    
C126  C135  A    
C41   C44   A    
C55   H75   S    
C18   C32   A    
C82   C132  S    
C104  C108  A    
C11   H48   S    
C49   H68   S    
C137  C141  A    
O28   Zn9   S    
C161  O35   A    
C85   C89   A    
C104  H61   S    
C9    H46   S    
C29   H57   S    
C28   C31   A    
C140  C144  A    
C96   C182  S    
C16   C187  S    
C71   C74   A    
C23   C173  D    
O36   Zn8   S    
C167  H97   S    
C130  O15   A    
C101  O12   A    
C6    H38   S    
C149  H30   S    
C92   C120  S    
C185  C187  A    
C24   C68   A    
C136  H21   S    
C39   H63   S    
C94   C156  A    
C55   C58   A    
C170  O4    A    
C110  C115  A    
C165  O43   A    
C49   C63   A    
C68   C86   A    
C119  H13   S    
C127  C153  A    
C119  C124  A    
C2    C46   A    
C48   C54   A    
O45   Zn12  S    
C100  C105  A    
C37   H60   S    
C164  O40   A    
C96   O46   S    
C17   C26   A    
C45   C164  S    
C38   C42   A    
C144  H25   S    
C11   C14   A    
C99   O51   D    
C7    H40   S    
O54   Zn3   S    
C62   C174  S    
C161  O30   A    
C171  H1    S    
C117  C121  A    
C25   C174  D    
C60   I2    S    
C61   I3    S    
H5    O48   S    
C93   C145  A    
O53   Zn2   S    
C158  O27   A    
C175  O5    A    
C12   C32   S    
C27   C30   A    
C72   H82   S    
C1    O1    A    
C139  C143  A    
C179  C183  A    
C20   C29   A    
C80   C130  S    
O10   Zn6   S    
C54   H74   S    
C36   C40   A    
C173  H28   S    
C61   C173  S    
O30   Zn11  S    
C181  C185  A    
C39   C43   A    
C155  O24   A    
C162  O36   A    
C4    H36   S    
C52   H71   S    
C176  O7    A    
C81   H87   S    
C82   H88   S    
C128  C137  A    
C144  C149  A    
C110  C154  S    
O25   Zn10  S    
C13   H100  S    
C59   I1    S    
H6    O50   S    
C23   C160  S    
C80   H86   S    
C36   C45   A    
C34   C45   A    
C146  H26   S    
O19   Zn6   S    
C38   C47   A    
C114  C118  A    
O5    Zn12  S    
C98   O50   S    
O37   Zn9   S    
C157  O25   A    
O39   Zn11  S    
C177  H32   S    
C4    C10   A    
C18   H51   S    
C166  O56   A    
C106  C110  A    
C125  C133  A    
C160  O29   A    
C7    C9    A    
C88   C93   A    
C7    C16   A    
O35   Zn10  S    
C132  O17   A    
C18   C27   A    
O22   Zn8   S    
C26   H54   S    
C112  O23   A    
C50   H69   S    
C133  H19   S    
C4    C15   A    
C29   C31   A    
C19   H52   S    
C159  O28   A    
O55   Zn4   S    
C100  C122  A    
H7    O52   S    
C1    C138  S    
O43   Zn4   S    
C150  C154  A    
C102  C106  A    
C78   H85   S    
C22   C172  D    
O41   Zn2   S    
C52   C56   A    
C135  H20   S    
C17   H49   S    
