data_mof_unit_49489.cif
_audit_creation_date              2012-12-11T17:05:38-0500
_audit_creation_method            fapswitch 2.2
_symmetry_space_group_name_H-M    P1
_symmetry_Int_Tables_number       1
_space_group_crystal_system       triclinic
_cell_length_a                    6.963118
_cell_length_b                    14.476743
_cell_length_c                    16.046182
_cell_angle_alpha                 90.206857
_cell_angle_beta                  89.977469
_cell_angle_gamma                 89.82439
_cell_volume                      1617.4893415

loop_
_atom_site_label
_atom_site_type_symbol
_atom_type_description
_atom_site_fract_x
_atom_site_fract_y
_atom_site_fract_z
_atom_type_partial_charge
O1    O     O_R   0.494380 0.415640 0.412830 -0.536166
O2    O     O_R   0.823960 0.405540 0.586560 -0.544996
O3    O     O_R   0.994270 0.584360 0.587170 -0.542809
C1    C     C_R   0.655418 0.383917 0.615533 0.693401
O4    O     O_R   0.824090 0.404620 0.413450 -0.542961
O5    O     O_R   0.994400 0.583430 0.412820 -0.536957
C2    C     C_R   0.655493 0.382667 0.384340 0.711756
O6    O     O_R   0.494250 0.416570 0.587180 -0.537672
O7    O     O_3   0.660800 0.558670 0.500000 -0.368525
V1    V     V_3+5 0.935650 0.489120 0.500000 1.390264
O8    O     O_R   0.324110 0.594460 0.413440 -0.537182
C3    C     C_R   0.154798 0.616057 0.384585 0.703426
O9    O     O_R   0.323980 0.595380 0.586550 -0.542690
C4    C     C_R   0.154515 0.617199 0.615686 0.689912
V2    V     V_3+5 0.435660 0.510880 0.500000 1.399515
O10   O     O_3   0.160640 0.441330 0.500000 -0.372458
C5    C     C_3   0.932971 0.688171 0.724965 -0.312398
H1    H     H_    0.833997 0.715320 0.676284 0.110555
H2    H     H_    0.882939 0.616884 0.738987 0.154668
C6    C     C_3   0.916127 0.750527 0.804051 0.302697
H3    H     H_    0.806056 0.804637 0.790703 0.041638
H4    H     H_    0.101326 0.806185 0.612533 0.145711
H5    H     H_    0.073109 0.903114 0.724564 0.149914
C7    C     C_3   0.197030 0.782002 0.663594 -0.372169
C8    C     C_3   0.284083 0.652360 0.758790 -0.383237
C9    C     C_3   0.142178 0.683293 0.689380 0.020827
H6    H     H_    0.433625 0.657678 0.734556 0.130426
H7    H     H_    0.267116 0.577696 0.770068 0.120341
C10   C     C_3   0.117233 0.796885 0.821016 -0.022619
C11   C     C_3   0.179395 0.847943 0.739360 -0.467585
C12   C     C_3   0.266515 0.716790 0.837590 0.363340
H8    H     H_    0.407350 0.752037 0.841666 0.078094
H9    H     H_    0.346644 0.783254 0.639147 0.153388
H10   H     H_    0.320154 0.882681 0.748897 0.155865
C13   C     C_R   0.214938 0.834767 0.257727 -0.041980
C14   C     C_R   0.119860 0.814503 0.182730 -0.058088
C15   C     C_R   0.016104 0.730967 0.179705 -0.084294
H11   H     H_    0.932621 0.713926 0.125113 0.125944
C16   C     C_R   0.024086 0.667138 0.246143 -0.144698
H12   H     H_    0.946487 0.602664 0.240693 0.121962
C17   C     C_R   0.139823 0.684315 0.316672 -0.059943
C18   C     C_R   0.224982 0.771290 0.322427 -0.027003
C19   C     C_3   0.418518 0.801176 0.351004 -0.443820
C20   C     C_3   0.412757 0.870347 0.279129 0.628575
H13   H     H_    0.528311 0.745751 0.343995 0.190496
H14   H     H_    0.413289 0.833556 0.413875 0.154174
C21   C     C_R   0.497713 0.319877 0.744031 0.093976
C22   C     C_R   0.648389 0.318452 0.686069 -0.109580
C23   C     C_R   0.798263 0.254632 0.699558 -0.179199
H15   H     H_    0.919359 0.251800 0.657431 0.129617
C24   C     C_R   0.786648 0.189133 0.763998 -0.176891
H16   H     H_    0.899719 0.138136 0.769734 0.122714
C25   C     C_R   0.624674 0.185450 0.816664 -0.104092
C26   C     C_R   0.485930 0.254929 0.807561 0.130399
C27   C     C_3   0.273228 0.247980 0.799504 -0.396595
C28   C     C_3   0.285984 0.319461 0.730509 -0.412193
H17   H     H_    0.197192 0.273694 0.855959 0.200337
H18   H     H_    0.227839 0.178749 0.777005 0.161460
H19   H     H_    0.218435 0.386666 0.747395 0.166743
H20   H     H_    0.246832 0.291998 0.668054 0.174765
C29   C     C_R   0.500441 0.320346 0.253743 0.064380
C30   C     C_R   0.648060 0.317005 0.313156 -0.112653
C31   C     C_R   0.795832 0.251797 0.299667 -0.169036
H21   H     H_    0.915694 0.247718 0.342349 0.119459
C32   C     C_R   0.783956 0.186867 0.234090 -0.092762
H22   H     H_    0.895382 0.134970 0.228362 0.122180
C33   C     C_R   0.624321 0.185342 0.179838 -0.130233
C34   C     C_R   0.488932 0.256455 0.188927 0.105918
C35   C     C_3   0.275097 0.253814 0.193169 0.119295
C36   C     C_3   0.287638 0.324322 0.263824 -0.427835
H23   H     H_    0.219931 0.185371 0.212705 0.102826
H24   H     H_    0.240380 0.296913 0.325019 0.148673
H25   H     H_    0.228641 0.393501 0.248009 0.202177
O11   O     O_R   0.771490 0.080820 0.910070 -0.539908
O12   O     O_R   0.441590 0.092730 0.083780 -0.528538
O13   O     O_R   0.271350 0.913900 0.084390 -0.517955
C37   C     C_R   0.610431 0.114837 0.112777 0.786232
O14   O     O_R   0.441780 0.091820 0.910670 -0.539234
O15   O     O_R   0.271540 0.912980 0.910040 -0.546115
C38   C     C_R   0.610733 0.114164 0.882255 0.689543
O16   O     O_R   0.771300 0.081740 0.084420 -0.527458
O17   O     O_3   0.604960 0.938700 0.997240 -0.372828
V3    V     V_3+5 0.330090 0.008230 0.997220 1.490660
O18   O     O_R   0.941820 0.901930 0.910640 -0.571532
C39   C     C_R   0.111141 0.871843 0.888826 0.642717
O19   O     O_R   0.941630 0.902840 0.083750 -0.527625
C40   C     C_R   0.110754 0.881445 0.113045 0.715411
V4    V     V_3+5 0.830090 0.986410 0.997190 1.455163
O20   O     O_3   0.105080 0.055990 0.997200 -0.352357
Br1   Br    Br    0.600572 0.840536 0.194612 -0.577196
O21   O     O_3   0.432543 0.963824 0.306120 -0.545046
C41   C     C_3   0.261040 0.004230 0.336657 0.099396
H26   H     H_    0.185194 0.958239 0.381203 0.120395
H27   H     H_    0.164388 0.021223 0.283678 0.112997
C42   C     C_3   0.310252 0.092921 0.382871 -0.737747
H28   H     H_    0.397351 0.138527 0.342481 0.230213
H29   H     H_    0.176419 0.129629 0.401193 0.167813
H30   H     H_    0.394302 0.076681 0.439800 0.220059
Br2   Br    Br    0.158593 0.302875 0.092693 -0.585748
O22   O     O_3   0.853724 0.691582 0.869365 -0.582076
C43   C     C_3   0.769231 0.736760 0.938055 0.109052
H31   H     H_    0.668225 0.791742 0.918139 0.142746
H32   H     H_    0.882324 0.763396 0.980069 0.155561
C44   C     C_3   0.658505 0.666904 0.988813 -0.706090
H33   H     H_    0.756696 0.623154 0.026209 0.188291
H34   H     H_    0.555922 0.702422 0.031277 0.235596
H35   H     H_    0.580925 0.621768 0.945373 0.266699
O23   O     O_3   0.243780 0.673157 0.917341 -0.570670
C45   C     C_3   0.154911 0.584465 0.919592 0.168533
H36   H     H_    0.062795 0.567643 0.865565 0.155426
H37   H     H_    0.058296 0.583641 0.974446 0.164730
C46   C     C_3   0.299001 0.506157 0.932334 -0.786591
H38   H     H_    0.368957 0.512799 0.994225 0.249873
H39   H     H_    0.222368 0.439023 0.930630 0.225676
H40   H     H_    0.409174 0.505303 0.882388 0.211444

loop_
_geom_bond_atom_site_label_1
_geom_bond_atom_site_label_2
_ccdc_geom_bond_type
C29   C36   S    
C8    C12   S    
C27   C28   S    
C31   C32   A    
C43   H31   S    
C12   O23   S    
C42   H28   S    
C33   C37   S    
O15   C39   A    
C1    O6    A    
C44   H34   S    
C42   H30   S    
C16   C17   A    
C25   C26   A    
C8    H7    S    
C10   C11   S    
C5    C9    S    
C41   H26   S    
C14   C15   A    
C15   H11   S    
C7    C9    S    
C45   H37   S    
O5    C3    A    
O19   V4    S    
V2    O10   S    
C5    C6    S    
O23   C45   S    
C17   C18   A    
C35   H23   S    
C13   C18   A    
C44   H33   S    
O8    V2    S    
O14   V3    S    
C12   H8    S    
C34   C35   S    
C32   C33   A    
O1    V2    S    
O7    V1    S    
C10   C39   S    
V4    O20   S    
C43   H32   S    
O11   C38   A    
O9    C4    A    
C35   C36   S    
O13   V3    S    
C46   H39   S    
C46   H38   S    
C6    C10   S    
C14   C40   S    
V3    O20   S    
C11   H10   S    
C24   H16   S    
H5    C11   S    
C46   H40   S    
C25   C38   S    
O18   C39   A    
C45   C46   S    
C16   H12   S    
O4    C2    A    
O19   C40   A    
C23   C24   A    
C8    C9    S    
C41   C42   S    
C33   C34   A    
C24   C25   A    
C13   C14   A    
O2    C1    A    
C19   C20   S    
C2    C30   S    
C30   C31   A    
C19   H13   S    
C21   C22   A    
C6    O22   S    
C37   O16   A    
C36   H25   S    
C41   H27   S    
C5    H1    S    
C4    C9    S    
C13   C20   S    
O12   C37   A    
O13   C40   A    
C20   O21   S    
C21   C26   A    
C35   Br2   S    
C22   C23   A    
O17   V3    S    
O6    V2    S    
C27   H17   S    
H4    C7    S    
C18   C19   S    
O2    V1    S    
O21   C41   S    
C20   Br1   S    
C3    C17   S    
C1    C22   S    
C26   C27   S    
O1    C2    A    
O18   V4    S    
O5    V1    S    
O8    C3    A    
C42   H29   S    
O3    C4    A    
C8    H6    S    
C7    H9    S    
C28   H19   S    
O9    V2    S    
O7    V2    S    
O4    V1    S    
C10   C12   S    
O3    V1    S    
V1    O10   S    
C45   H36   S    
O15   V3    S    
C29   C34   A    
O12   V3    S    
O17   V4    S    
O22   C43   S    
C5    H2    S    
O14   C38   A    
C32   H22   S    
C29   C30   A    
C19   H14   S    
C7    C11   S    
O16   V4    S    
C31   H21   S    
C28   H20   S    
C6    H3    S    
C15   C16   A    
C23   H15   S    
C27   H18   S    
C36   H24   S    
C43   C44   S    
O11   V4    S    
C44   H35   S    
C21   C28   S    
