data_mof_unit_63962.cif
_audit_creation_date              2012-12-10T18:24:50-0500
_audit_creation_method            fapswitch 2.2
_symmetry_space_group_name_H-M    P1
_symmetry_Int_Tables_number       1
_space_group_crystal_system       triclinic
_cell_length_a                    16.044768
_cell_length_b                    16.039326
_cell_length_c                    19.541925
_cell_angle_alpha                 95.232595
_cell_angle_beta                  90.568079
_cell_angle_gamma                 84.072649
_cell_volume                      4981.32744564

loop_
_atom_site_label
_atom_site_type_symbol
_atom_type_description
_atom_site_fract_x
_atom_site_fract_y
_atom_site_fract_z
_atom_type_partial_charge
C1    C     C_R   0.275805 0.510927 0.491020 0.503460
C2    C     C_2   0.456394 0.496905 0.979488 -0.109941
C3    C     C_2   0.525197 0.487869 0.018660 -0.140135
C4    C     C_R   0.724159 0.489226 0.508996 0.504869
C5    C     C_R   0.514552 0.486817 0.236471 0.036734
C6    C     C_1   0.186207 0.515572 0.487442 0.014169
C7    C     C_2   0.020904 0.523802 0.480996 -0.120697
C8    C     C_2   0.979024 0.477032 0.519094 -0.121942
C9    C     C_1   0.889045 0.481311 0.515575 -0.044330
C10   C     C_1   0.110891 0.519402 0.484462 -0.045016
C11   C     C_1   0.813741 0.484937 0.512568 0.015217
C12   C     C_R   0.462808 0.499175 0.904637 0.039377
C13   C     C_1   0.516577 0.184889 0.487196 0.016417
C14   C     C_2   0.525115 0.018842 0.480592 -0.119752
C15   C     C_2   0.474904 0.981230 0.519412 -0.120458
C16   C     C_R   0.511768 0.274902 0.490913 0.503703
C17   C     C_1   0.479471 0.890844 0.515873 -0.042230
C18   C     C_1   0.520544 0.109228 0.484129 -0.043160
C19   C     C_1   0.483431 0.815183 0.512805 0.017205
C20   C     C_R   0.488230 0.725171 0.509091 0.506523
C21   C     C_R   0.510199 0.489964 0.311439 0.506348
C22   C     C_R   0.489631 0.509546 0.688609 0.509544
C23   C     C_R   0.405347 0.552524 0.869486 0.290664
C24   C     C_R   0.481216 0.508048 0.763083 -0.012733
C25   C     C_R   0.535818 0.452519 0.797931 -0.144315
C26   C     C_R   0.526760 0.448149 0.867965 -0.164681
C27   C     C_3   0.269997 0.561502 0.907465 -0.021038
C28   C     C_3   0.209738 0.582915 0.849294 -0.381977
C29   C     C_R   0.416496 0.558502 0.799255 -0.098629
C30   C     C_R   0.456175 0.450194 0.124395 -0.109745
C31   C     C_R   0.453310 0.450268 0.195565 -0.124174
C32   C     C_R   0.579786 0.521447 0.205265 -0.121303
C33   C     C_R   0.583209 0.520380 0.134110 -0.112567
C34   C     C_R   0.520675 0.486303 0.093418 0.041383
H1    H     H_    0.585624 0.412122 0.771075 0.149407
H2    H     H_    0.408544 0.421232 0.093747 0.103633
H3    H     H_    0.373943 0.601889 0.773038 0.145986
H4    H     H_    0.394876 0.507446 0.003226 0.138586
H5    H     H_    0.569622 0.404209 0.893351 0.119566
H6    H     H_    0.237869 0.583397 0.956908 0.152956
H7    H     H_    0.283472 0.491719 0.907085 0.108455
H8    H     H_    0.236481 0.555442 0.799095 0.139649
H9    H     H_    0.149567 0.556463 0.856886 0.105102
H10   H     H_    0.197355 0.652260 0.848701 0.171719
H11   H     H_    0.633850 0.547582 0.110837 0.109045
H12   H     H_    0.012137 0.435090 0.553222 0.135302
H13   H     H_    0.987800 0.565736 0.446857 0.137845
H14   H     H_    0.429953 0.018170 0.554169 0.136875
H15   H     H_    0.570066 0.981901 0.445834 0.138711
H16   H     H_    0.402742 0.422718 0.218571 0.133651
H17   H     H_    0.628210 0.549276 0.235821 0.134706
H18   H     H_    0.586831 0.486807 0.995812 0.121348
O1    O     O_3   0.500000 0.500000 0.500000 -0.437900
O2    O     O_R   0.462330 0.445560 0.340470 -0.544542
O3    O     O_R   0.440930 0.559110 0.655640 -0.547192
O4    O     O_R   0.554010 0.538050 0.348260 -0.545957
O5    O     O_R   0.542730 0.457290 0.655630 -0.542954
O6    O     O_3   0.342525 0.604431 0.904461 -0.557587
O7    O     O_R   0.555880 0.314540 0.535300 -0.537044
O8    O     O_R   0.439840 0.689760 0.546310 -0.535061
O9    O     O_R   0.320170 0.458170 0.449830 -0.536297
O10   O     O_R   0.684110 0.537530 0.468570 -0.538042
O11   O     O_R   0.310830 0.559620 0.535340 -0.538209
O12   O     O_R   0.684890 0.444680 0.546270 -0.536248
O13   O     O_R   0.463420 0.314900 0.449800 -0.535678
O14   O     O_R   0.540870 0.680800 0.468590 -0.535976
Zn1   Zn    Zn3+2 0.569660 0.430340 0.558290 0.944386
Zn2   Zn    Zn3+2 0.437560 0.430860 0.436130 0.945100
Zn3   Zn    Zn3+2 0.568560 0.563000 0.447270 0.945143
Zn4   Zn    Zn3+2 0.424220 0.575810 0.558310 0.944725

loop_
_geom_bond_atom_site_label_1
_geom_bond_atom_site_label_2
_ccdc_geom_bond_type
C6    C10   T    
C21   O4    A    
C3    H18   S    
C32   H17   S    
C22   O3    A    
C30   H2    S    
C20   O8    A    
C33   H11   S    
C14   C18   S    
C28   H9    S    
C19   C20   S    
O9    Zn2   S    
O11   Zn4   S    
O8    Zn4   S    
C27   H6    S    
C5    C32   A    
C2    C12   S    
C32   C33   A    
O13   Zn2   S    
C22   O5    A    
C33   C34   A    
O1    Zn3   S    
C7    C8    D    
O3    Zn4   S    
C2    H4    S    
C4    C11   S    
C9    C11   T    
C12   C23   A    
C4    O10   A    
C21   O2    A    
C15   H14   S    
C25   H1    S    
O1    Zn4   S    
C23   C29   A    
C28   H8    S    
C17   C19   T    
O5    Zn1   S    
C2    C3    D    
C23   O6    S    
C8    H12   S    
C30   C31   A    
O1    Zn1   S    
C22   C24   S    
C26   H5    S    
C13   C16   S    
C14   H15   S    
O2    Zn2   S    
C30   C34   A    
C31   H16   S    
C29   H3    S    
C1    C6    S    
O14   Zn3   S    
O12   Zn1   S    
C1    O11   A    
C5    C21   S    
C24   C25   A    
C13   C18   T    
O4    Zn3   S    
C7    C10   S    
C20   O14   A    
C27   C28   S    
C15   C17   S    
O1    Zn2   S    
C4    O12   A    
C14   C15   D    
C27   O6    S    
C16   O13   A    
C1    O9    A    
C3    C34   S    
O7    Zn1   S    
C25   C26   A    
C24   C29   A    
C28   H10   S    
C27   H7    S    
O10   Zn3   S    
C12   C26   A    
C8    C9    S    
C5    C31   A    
C16   O7    A    
C7    H13   S    
