data_mof_unit_34601.cif
_audit_creation_date              2012-12-10T17:33:53-0500
_audit_creation_method            fapswitch 2.2
_symmetry_space_group_name_H-M    P1
_symmetry_Int_Tables_number       1
_space_group_crystal_system       triclinic
_cell_length_a                    10.653404
_cell_length_b                    12.07992
_cell_length_c                    12.856085
_cell_angle_alpha                 94.122804
_cell_angle_beta                  90.654831
_cell_angle_gamma                 88.151199
_cell_volume                      1649.2694772

loop_
_atom_site_label
_atom_site_type_symbol
_atom_type_description
_atom_site_fract_x
_atom_site_fract_y
_atom_site_fract_z
_atom_type_partial_charge
C1    C     C_R   0.496962 0.522918 0.700513 0.884650
C2    C     C_3   0.121492 0.500293 0.503396 0.052588
C3    C     C_3   0.073405 0.445871 0.396140 -0.029533
C4    C     C_3   0.066546 0.623071 0.521932 0.015071
C5    C     C_R   0.500223 0.462258 0.188432 -0.109708
C6    C     C_R   0.492344 0.537863 0.812761 -0.152717
C7    C     C_R   0.426493 0.636268 0.973302 -0.200500
C8    C     C_R   0.438822 0.633922 0.866249 0.261979
C9    C     C_R   0.536789 0.448288 0.867398 -0.265473
C10   C     C_R   0.523319 0.449788 0.974086 0.104634
C11   C     C_R   0.466999 0.545114 0.026760 0.081264
C12   C     C_R   0.742040 0.501302 0.500746 0.839488
C13   C     C_R   0.453953 0.549649 0.133091 -0.248781
C14   C     C_R   0.552574 0.365890 0.137428 -0.219468
C15   C     C_R   0.564306 0.358745 0.029804 0.270506
C16   C     C_R   0.365471 0.950557 0.414788 0.164221
C17   C     C_R   0.380342 0.835142 0.423799 -0.079094
C18   C     C_R   0.558842 0.863737 0.533892 0.278653
C19   C     C_R   0.536925 0.980251 0.537856 0.015599
C20   C     C_R   0.446047 0.024365 0.471283 -0.011383
C21   C     C_R   0.442359 0.140783 0.462573 0.011871
C22   C     C_R   0.602113 0.167062 0.591320 0.040857
C23   C     C_R   0.500390 0.477280 0.299880 0.891502
C24   C     C_R   0.608908 0.053869 0.603234 -0.260034
C25   C     C_R   0.258260 0.499440 0.503547 0.811486
C26   C     C_3   0.931051 0.440259 0.595874 -0.402896
C27   C     C_3   0.075013 0.431209 0.591662 -0.435442
C28   C     C_3   0.928322 0.441514 0.398850 -0.392377
C29   C     C_3   0.924140 0.621721 0.509431 -0.443040
C30   C     C_3   0.878739 0.501558 0.501306 0.107019
H1    H     H_    0.894047 0.355121 0.595656 0.194918
H2    H     H_    0.102219 0.673568 0.460013 0.173938
H3    H     H_    0.883642 0.480473 0.331184 0.170624
H4    H     H_    0.410636 0.623078 0.173220 0.170800
H5    H     H_    0.587802 0.297917 0.181232 0.195140
H6    H     H_    0.384457 0.709317 0.014831 0.184884
H7    H     H_    0.580869 0.376561 0.825790 0.209986
H8    H     H_    0.376225 0.178756 0.410436 0.168653
H9    H     H_    0.901139 0.486193 0.670091 0.167158
H10   H     H_    0.659346 0.222874 0.639714 0.139926
H11   H     H_    0.671421 0.025022 0.663152 0.179879
H12   H     H_    0.316306 0.779204 0.382763 0.164292
H13   H     H_    0.115868 0.460156 0.668482 0.176519
H14   H     H_    0.105236 0.342452 0.576659 0.200459
H15   H     H_    0.900502 0.353202 0.393441 0.182360
H16   H     H_    0.111881 0.358740 0.388207 0.185472
H17   H     H_    0.895938 0.663850 0.438117 0.163744
H18   H     H_    0.879265 0.667178 0.577493 0.199051
N1    N     N_R   0.523380 0.207800 0.519350 -0.117916
N2    N     N_R   0.476620 0.792180 0.480650 -0.119320
O1    O     O_R   0.506240 0.421700 0.658830 -0.623003
O2    O     O_R   0.491240 0.609310 0.646410 -0.571521
O3    O     O_R   0.692710 0.406190 0.506230 -0.630035
O4    O     O_R   0.677700 0.593810 0.493810 -0.635653
O5    O     O_R   0.508760 0.390690 0.353590 -0.617413
O6    O     O_R   0.493760 0.578300 0.341170 -0.622944
O7    O     O_R   0.322300 0.406190 0.506190 -0.618386
O8    O     O_R   0.307290 0.593810 0.493770 -0.635991
Zn1   Zn    Zn3+2 0.510020 0.374730 0.508290 0.953273
Zn2   Zn    Zn3+2 0.489980 0.625270 0.491710 0.957187
C31   C     C_3   0.117804 0.504618 0.299762 -0.442678
C32   C     C_3   0.103403 0.431851 0.198264 -0.806233
H19   H     H_    0.160626 0.353671 0.201839 0.271843
H20   H     H_    0.003655 0.411454 0.183481 0.266452
H21   H     H_    0.136963 0.476875 0.132082 0.256144
H22   H     H_    0.064165 0.584210 0.292762 0.221507
H23   H     H_    0.218540 0.524458 0.307441 0.211564
Br1   Br    Br    0.639232 0.224434 0.965000 -0.523053
Br2   Br    Br    0.376045 0.763412 0.801446 -0.543484
Br3   Br    Br    0.232338 0.002014 0.326966 -0.551286
C33   C     C_3   0.688742 0.825091 0.566232 -0.399044
C34   C     C_3   0.696560 0.787180 0.677252 -0.759423
H24   H     H_    0.624859 0.831514 0.727995 0.292954
H25   H     H_    0.686421 0.696652 0.677719 0.268966
H26   H     H_    0.790320 0.805816 0.711620 0.220301
H27   H     H_    0.727482 0.768080 0.504868 0.218659
H28   H     H_    0.757475 0.891574 0.561095 0.166124
C35   C     C_3   0.103417 0.681671 0.629751 -0.371949
C36   C     C_3   0.092384 0.808170 0.628897 -0.789446
H29   H     H_    0.160431 0.837983 0.573219 0.272596
H30   H     H_    0.996037 0.835339 0.606232 0.241290
H31   H     H_    0.113542 0.846588 0.707924 0.284423
H32   H     H_    0.043230 0.654713 0.692731 0.210544
H33   H     H_    0.200981 0.659257 0.652215 0.256210

loop_
_geom_bond_atom_site_label_1
_geom_bond_atom_site_label_2
_ccdc_geom_bond_type
O5    Zn1   S    
C7    H6    S    
C19   C20   A    
C6    C9    A    
C21   N1    A    
O3    Zn1   S    
C23   O6    A    
O4    Zn2   S    
C7    C11   A    
C26   C27   S    
C32   H19   S    
C29   H17   S    
C3    C28   S    
C10   C15   A    
C33   H27   S    
C26   H9    S    
O7    Zn1   S    
O8    Zn2   S    
C18   C19   A    
C17   H12   S    
C32   H20   S    
O2    Zn2   S    
C31   H22   S    
C21   H8    S    
C16   C17   A    
C2    C27   S    
C9    C10   A    
C5    C13   A    
C4    C29   S    
C26   H1    S    
C24   H11   S    
C25   O7    A    
C34   H26   S    
C35   H32   S    
C3    C31   S    
C28   H15   S    
C29   H18   S    
C1    C6    S    
C7    C8    A    
C16   Br3   S    
C34   H25   S    
C14   H5    S    
C36   H30   S    
C35   C36   S    
C6    C8    A    
O6    Zn2   S    
C2    C4    S    
C4    C35   S    
C29   C30   S    
C27   H13   S    
C31   H23   S    
C5    C23   S    
C16   C20   A    
C22   H10   S    
C9    H7    S    
C8    Br2   S    
C1    O1    A    
C5    C14   A    
C4    H2    S    
C22   N1    A    
C28   H3    S    
C26   C30   S    
C22   C24   A    
O1    Zn1   S    
C25   O8    A    
C33   H28   S    
C18   N2    A    
C18   C33   S    
C32   H21   S    
C12   C30   S    
C12   O3    A    
C34   H24   S    
C17   N2    A    
C36   H31   S    
C23   O5    A    
C3    H16   S    
N1    Zn1   S    
N2    Zn2   S    
C28   C30   S    
C2    C3    S    
C13   H4    S    
C11   C13   A    
C15   Br1   S    
C19   C24   A    
C2    C25   S    
C31   C32   S    
C1    O2    A    
C10   C11   A    
C36   H29   S    
C35   H33   S    
C33   C34   S    
C20   C21   A    
C14   C15   A    
C27   H14   S    
C12   O4    A    
