data_mof_unit_10017.cif
_audit_creation_date              2012-12-10T17:55:52-0500
_audit_creation_method            fapswitch 2.2
_symmetry_space_group_name_H-M    P1
_symmetry_Int_Tables_number       1
_space_group_crystal_system       triclinic
_cell_length_a                    11.013621
_cell_length_b                    10.723671
_cell_length_c                    9.68361
_cell_angle_alpha                 89.278929
_cell_angle_beta                  102.337997
_cell_angle_gamma                 93.687071
_cell_volume                      1114.96867172

loop_
_atom_site_label
_atom_site_type_symbol
_atom_type_description
_atom_site_fract_x
_atom_site_fract_y
_atom_site_fract_z
_atom_type_partial_charge
C1    C     C_R   0.501205 0.263080 0.500973 0.792921
C2    C     C_R   0.498886 0.737035 0.499063 0.798866
C3    C     C_R   0.263299 0.500945 0.442248 0.864715
C4    C     C_R   0.736968 0.502813 0.557394 0.844508
C5    C     C_R   0.427127 0.413490 0.058495 0.065046
C6    C     C_R   0.580491 0.579346 0.943297 0.064013
C7    C     C_R   0.420676 0.417772 0.908961 0.175349
C8    C     C_R   0.575454 0.585456 0.089906 0.169433
C9    C     C_2   0.128214 0.502298 0.409237 -0.322052
C10   C     C_2   0.872592 0.511450 0.588095 -0.342548
C11   C     C_2   0.067933 0.525946 0.510665 -0.189048
C12   C     C_2   0.932841 0.515716 0.481916 -0.172217
C13   C     C_R   0.613783 0.070402 0.500762 0.167525
C14   C     C_R   0.387097 0.930129 0.500772 0.160473
C15   C     C_R   0.608940 0.940362 0.497735 -0.217888
C16   C     C_R   0.391983 0.060095 0.503881 -0.252194
C17   C     C_R   0.497085 0.871039 0.497466 -0.030969
C18   C     C_R   0.503534 0.129299 0.503096 -0.043952
Cu1   Cu    Cu3+1 0.500000 0.500020 0.640660 0.961030
Cu2   Cu    Cu3+1 0.500000 0.499980 0.359340 0.953519
H1    H     H_    0.882541 0.508770 0.372362 0.190581
H2    H     H_    0.118478 0.550294 0.616738 0.190765
H3    H     H_    0.923510 0.515728 0.697424 0.173069
H4    H     H_    0.077612 0.481823 0.301863 0.178632
H5    H     H_    0.692776 0.892687 0.497087 0.133357
H6    H     H_    0.308210 0.107958 0.504335 0.135099
N1    N     N_R   0.500030 0.500030 0.852080 -0.234883
N2    N     N_R   0.499970 0.499970 0.147920 -0.234467
O1    O     O_R   0.499990 0.319660 0.618740 -0.609106
O2    O     O_R   0.500010 0.680340 0.381260 -0.600995
O3    O     O_R   0.499990 0.319630 0.381170 -0.558712
O4    O     O_R   0.500010 0.680370 0.618830 -0.548898
O5    O     O_R   0.320690 0.500020 0.575130 -0.600634
O6    O     O_R   0.679310 0.499980 0.424870 -0.607410
O7    O     O_R   0.320680 0.499990 0.337560 -0.540067
O8    O     O_R   0.679320 0.500010 0.662440 -0.553548
C19   C     C_2   0.360613 0.308526 0.117371 0.896706
O9    O     O_2   0.262920 0.323548 0.153494 -0.607988
O10   O     O_R   0.407891 0.190077 0.125383 -0.783286
H7    H     H_    0.354385 0.125021 0.166026 0.327985
C20   C     C_2   0.681066 0.652342 0.892980 0.889268
O11   O     O_2   0.663260 0.755029 0.839269 -0.609625
O12   O     O_R   0.799950 0.606909 0.918134 -0.782972
H8    H     H_    0.862552 0.666090 0.883486 0.317825
C21   C     C_3   0.324763 0.327154 0.817064 -0.359637
C22   C     C_3   0.190209 0.355698 0.817822 -0.850654
H9    H     H_    0.155053 0.301126 0.900542 0.273197
H10   H     H_    0.128163 0.327728 0.715278 0.245324
H11   H     H_    0.182716 0.456715 0.835723 0.253822
H12   H     H_    0.331242 0.325447 0.707250 0.262061
H13   H     H_    0.340756 0.229626 0.852776 0.196099
C23   C     C_3   0.653693 0.691004 0.176988 -0.374316
C24   C     C_3   0.592260 0.815548 0.147343 -0.778528
H14   H     H_    0.494926 0.807362 0.162238 0.268963
H15   H     H_    0.645817 0.888075 0.220228 0.235477
H16   H     H_    0.590474 0.847535 0.037917 0.271741
H17   H     H_    0.673438 0.673916 0.290376 0.251785
H18   H     H_    0.748517 0.700943 0.154572 0.177795
C25   C     C_3   0.737416 0.143009 0.506927 -0.418046
C26   C     C_3   0.760512 0.169422 0.359199 -0.766052
H19   H     H_    0.767027 0.080563 0.304505 0.241551
H20   H     H_    0.684416 0.221936 0.295434 0.285981
H21   H     H_    0.849641 0.226365 0.367507 0.239741
H22   H     H_    0.741517 0.232509 0.564531 0.196680
H23   H     H_    0.814484 0.089320 0.567356 0.204289
C27   C     C_3   0.263506 0.857955 0.495636 -0.422438
C28   C     C_3   0.199884 0.824399 0.343586 -0.823357
H24   H     H_    0.184648 0.910499 0.278813 0.254971
H25   H     H_    0.257572 0.763003 0.296326 0.259265
H26   H     H_    0.108111 0.774399 0.341802 0.250604
H27   H     H_    0.276061 0.771895 0.560673 0.210286
H28   H     H_    0.200679 0.914792 0.541218 0.206170

loop_
_geom_bond_atom_site_label_1
_geom_bond_atom_site_label_2
_ccdc_geom_bond_type
O12   H8    S    
C4    O8    A    
C9    H4    S    
C19   O9    D    
C13   C25   S    
C5    C19   S    
C10   H3    S    
C5    N2    A    
Cu1   N1    S    
C20   O11   D    
C8    C23   S    
C11   H2    S    
C6    N1    A    
C14   C17   A    
C3    O7    A    
C11   C12   S    
C28   H26   S    
Cu2   O6    S    
C1    O1    A    
C27   C28   S    
C1    C18   S    
C5    C7    A    
C25   C26   S    
C19   O10   S    
C16   C18   A    
Cu2   O2    S    
C21   C22   S    
C25   H23   S    
C2    C17   S    
C9    C11   D    
C22   H11   S    
C25   H22   S    
C10   C12   D    
C13   C18   A    
C26   H21   S    
C3    C9    S    
Cu1   O4    S    
C21   H12   S    
C26   H20   S    
C4    O6    A    
Cu1   O8    S    
C13   C15   A    
C16   H6    S    
C23   H18   S    
C14   C16   A    
C15   H5    S    
C23   H17   S    
C3    O5    A    
C24   H15   S    
C4    C10   S    
C28   H24   S    
Cu1   O1    S    
C22   H10   S    
C7    C21   S    
C1    O3    A    
C7    N1    A    
C23   C24   S    
C14   C27   S    
C8    N2    A    
C2    O4    A    
Cu1   O5    S    
C24   H16   S    
O10   H7    S    
C15   C17   A    
C27   H27   S    
C21   H13   S    
C22   H9    S    
C2    O2    A    
C6    C8    A    
Cu2   N2    S    
C24   H14   S    
Cu2   O7    S    
C12   H1    S    
Cu2   O3    S    
C27   H28   S    
C20   O12   S    
Cu1   Cu2   S    
C26   H19   S    
C28   H25   S    
C6    C20   S    
