data_mof_unit_31962.cif
_audit_creation_date              2012-12-11T14:17:48-0500
_audit_creation_method            fapswitch 2.2
_symmetry_space_group_name_H-M    P1
_symmetry_Int_Tables_number       1
_space_group_crystal_system       triclinic
_cell_length_a                    6.938071
_cell_length_b                    13.729071
_cell_length_c                    20.292375
_cell_angle_alpha                 101.933296
_cell_angle_beta                  90.175112
_cell_angle_gamma                 90.686476
_cell_volume                      1890.97682844

loop_
_atom_site_label
_atom_site_type_symbol
_atom_type_description
_atom_site_fract_x
_atom_site_fract_y
_atom_site_fract_z
_atom_type_partial_charge
O1    O     O_R   0.506860 0.599390 0.449240 -0.521548
O2    O     O_R   0.180220 0.594600 0.586780 -0.553086
O3    O     O_R   0.004500 0.400610 0.550760 -0.545459
C1    C     C_R   0.349351 0.616471 0.613232 0.800420
O4    O     O_R   0.177490 0.611290 0.451970 -0.545465
O5    O     O_R   0.001750 0.417420 0.414990 -0.547225
C2    C     C_R   0.347930 0.639365 0.436188 0.737853
O6    O     O_R   0.509610 0.582580 0.585010 -0.517667
O7    O     O_3   0.337420 0.436370 0.488020 -0.379593
V1    V     V_3+5 0.064680 0.511800 0.502220 1.513214
O8    O     O_R   0.671710 0.405400 0.413220 -0.553845
C3    C     C_R   0.839194 0.384958 0.386275 0.737697
O9    O     O_R   0.674440 0.388710 0.548030 -0.519900
C4    C     C_R   0.843360 0.362260 0.565003 0.750170
V2    V     V_3+5 0.564010 0.488200 0.497780 1.555364
O10   O     O_3   0.841140 0.563630 0.511980 -0.360100
C5    C     C_R   0.021285 0.133436 0.615837 -0.067543
H1    H     H_    0.031449 0.192412 0.526454 0.157086
H2    H     H_    0.107824 0.070805 0.592571 0.183370
C6    C     C_R   0.859482 0.283259 0.603296 -0.080368
C7    C     C_R   0.802792 0.309462 0.925856 -0.108506
C8    C     C_R   0.786465 0.383728 0.888976 -0.043033
C9    C     C_R   0.812894 0.361526 0.819471 -0.087001
C10   C     C_R   0.850948 0.263356 0.784830 0.098373
C11   C     C_R   0.892241 0.191236 0.823785 0.044559
C12   C     C_R   0.866707 0.237336 0.713303 0.031421
C13   C     C_R   0.966955 0.148951 0.683958 0.022160
C14   C     C_R   0.016704 0.079932 0.723814 0.010218
C15   C     C_R   0.971011 0.099675 0.792191 -0.217722
C16   C     C_R   0.790856 0.296602 0.669617 0.179443
C17   C     C_R   0.976076 0.202435 0.577281 -0.144470
C18   C     C_R   0.858907 0.213784 0.894147 -0.082052
H3    H     H_    0.777026 0.327253 0.979637 0.152376
H4    H     H_    0.812833 0.423115 0.793998 0.158718
H5    H     H_    0.753717 0.459050 0.914360 0.171777
H6    H     H_    0.005949 0.044130 0.821110 0.123728
C19   C     C_2   0.003705 0.300613 0.282703 -0.110472
C20   C     C_2   0.841193 0.318427 0.318988 -0.250773
H7    H     H_    0.137172 0.335250 0.304665 0.122382
H8    H     H_    0.704929 0.284732 0.299727 0.143885
C21   C     C_2   0.018927 0.233636 0.214923 0.066623
C22   C     C_2   0.863921 0.193505 0.177244 -0.290465
H9    H     H_    0.721260 0.216348 0.194288 0.141327
C23   C     C_2   0.212566 0.788290 0.782668 -0.093762
C24   C     C_2   0.357720 0.796541 0.828215 -0.151960
H10   H     H_    0.093223 0.839657 0.792705 0.149842
C25   C     C_2   0.204726 0.715311 0.717141 -0.087500
C26   C     C_2   0.361412 0.687073 0.678844 -0.247571
H11   H     H_    0.062474 0.689868 0.698093 0.152652
H12   H     H_    0.502833 0.717060 0.695499 0.148116
C27   C     C_R   0.529245 0.875963 0.388496 0.251327
C28   C     C_R   0.369545 0.720942 0.399510 -0.156824
C29   C     C_R   0.300624 0.688267 0.075794 0.203904
C30   C     C_R   0.309341 0.611104 0.111594 0.264995
C31   C     C_R   0.361635 0.632092 0.180485 -0.123661
C32   C     C_R   0.385852 0.732979 0.215755 -0.002525
C33   C     C_R   0.403951 0.807512 0.176975 0.003833
C34   C     C_R   0.400755 0.761869 0.287882 0.083330
C35   C     C_R   0.480925 0.856694 0.318416 -0.004416
C36   C     C_R   0.509785 0.927944 0.277548 -0.002069
C37   C     C_R   0.468159 0.903019 0.208636 -0.179950
C38   C     C_R   0.332028 0.699760 0.330412 -0.175760
C39   C     C_R   0.466775 0.810041 0.429185 -0.061522
C40   C     C_R   0.356929 0.785525 0.107175 -0.180154
H13   H     H_    0.248889 0.633148 0.310488 0.130162
H14   H     H_    0.485942 0.960095 0.179553 0.115230
O11   O     O_R   0.203230 0.917310 0.915020 -0.542113
O12   O     O_R   0.535500 0.888690 0.048040 -0.542398
O13   O     O_R   0.711080 0.082610 0.085000 -0.550458
C41   C     C_R   0.366586 0.863456 0.066459 0.758510
O14   O     O_R   0.532630 0.905370 0.913230 -0.525577
O15   O     O_R   0.708190 0.099410 0.949230 -0.540939
C42   C     C_R   0.363452 0.879702 0.888274 0.725651
O16   O     O_R   0.206120 0.900510 0.050790 -0.532277
O17   O     O_3   0.375360 0.063570 0.011990 -0.366016
V3    V     V_3+5 0.648170 0.988200 0.997780 1.552617
O18   O     O_R   0.038240 0.111390 0.951940 -0.538581
C43   C     C_R   0.869595 0.137323 0.934714 0.691655
O19   O     O_R   0.041120 0.094710 0.086750 -0.531584
C44   C     C_R   0.873266 0.119015 0.112493 0.738623
V4    V     V_3+5 0.148810 0.011930 0.002180 1.566589
O20   O     O_3   0.871750 0.936430 0.988010 -0.361041
C45   C     C_2   0.217038 0.211563 0.191310 0.769467
O21   O     O_2   0.283309 0.248646 0.146262 -0.520528
O22   O     O_R   0.325611 0.146264 0.219832 -0.670581
H15   H     H_    0.451477 0.129834 0.195487 0.278092
C46   C     C_2   0.506419 0.717887 0.823728 0.804642
O23   O     O_2   0.674949 0.740632 0.837474 -0.551197
O24   O     O_R   0.452003 0.617486 0.805467 -0.618799
H16   H     H_    0.564771 0.571302 0.805688 0.324908
C47   C     C_2   0.498412 0.837224 0.503347 0.808515
O25   O     O_2   0.575008 0.779170 0.533219 -0.556966
O26   O     O_R   0.441942 0.930854 0.538848 -0.629552
H17   H     H_    0.472109 0.941608 0.588768 0.322843
C48   C     C_2   0.556663 0.033704 0.305227 0.869923
O27   O     O_2   0.696019 0.072730 0.283945 -0.567701
O28   O     O_R   0.438574 0.089362 0.354424 -0.620542
H18   H     H_    0.484144 0.161095 0.368814 0.304535
Br1   Br    Br    0.723124 0.974583 0.427755 -0.477456
C49   C     C_2   0.117307 0.986211 0.695650 0.722062
O29   O     O_2   0.269020 0.967682 0.720972 -0.569850
O30   O     O_R   0.038783 0.919281 0.640427 -0.644636
H19   H     H_    0.121817 0.858511 0.625509 0.301935
Br2   Br    Br    0.228572 0.659220 0.981597 -0.463815
C50   C     C_2   0.426624 0.548510 0.210812 0.826774
O31   O     O_2   0.588107 0.551305 0.235561 -0.550413
O32   O     O_R   0.302370 0.468475 0.213022 -0.626969
H20   H     H_    0.362754 0.418568 0.237068 0.291475
Br3   Br    Br    0.264519 0.475421 0.064021 -0.405185
Br4   Br    Br    0.566734 0.379343 0.692659 -0.565234

loop_
_geom_bond_atom_site_label_1
_geom_bond_atom_site_label_2
_ccdc_geom_bond_type
C34   C38   A    
C46   O23   D    
C22   C44   S    
O26   H17   S    
C21   C22   D    
C48   O27   D    
O15   V3    S    
V4    O20   S    
C25   H11   S    
C6    C16   A    
O18   C43   A    
C8    H5    S    
C50   O32   S    
C15   H6    S    
C12   C13   A    
C16   Br4   S    
C14   C15   A    
C24   C46   S    
C10   C12   A    
C2    C28   S    
O5    C3    A    
O14   V3    S    
C29   C40   A    
C7    H3    S    
C29   Br2   S    
V2    O10   S    
C21   C45   S    
C32   C33   A    
O13   V3    S    
C24   C42   S    
O15   C43   A    
O8    V2    S    
C37   H14   S    
C25   C26   D    
C41   O16   A    
O32   H20   S    
O11   C42   A    
C40   C41   S    
O7    V1    S    
C23   C25   S    
C1    O6    A    
C14   C49   S    
C11   C18   A    
C26   H12   S    
C35   C36   A    
O9    C4    A    
C11   C15   A    
C23   H10   S    
O28   H18   S    
C27   Br1   S    
C7    C18   A    
C5    C13   A    
C4    C6    S    
C27   C39   A    
C10   C11   A    
V3    O20   S    
C47   O25   D    
O14   C42   A    
O17   V4    S    
C34   C35   A    
C29   C30   A    
C30   Br3   S    
C36   C37   A    
O2    C1    A    
O17   V3    S    
C19   C20   D    
C47   O26   S    
C45   O21   D    
O18   V4    S    
C9    C10   A    
C9    H4    S    
C31   C32   A    
C49   O30   S    
C33   C37   A    
O22   H15   S    
O3    C4    A    
O1    V2    S    
C45   O22   S    
C31   C50   S    
O11   V4    S    
O6    V2    S    
O9    V2    S    
C5    C17   A    
C27   C35   A    
C22   H9    S    
O16   V4    S    
O2    V1    S    
C3    C20   S    
C23   C24   D    
C33   C40   A    
O4    C2    A    
C1    C26   S    
C30   C31   A    
C38   H13   S    
O1    C2    A    
C28   C39   A    
O5    V1    S    
O8    C3    A    
C48   O28   S    
C12   C16   A    
O12   V3    S    
C50   O31   D    
O19   V4    S    
C46   O24   S    
O7    V2    S    
O4    V1    S    
C19   H7    S    
O3    V1    S    
V1    O10   S    
C20   H8    S    
C49   O29   D    
C5    H2    S    
C32   C34   A    
C19   C21   S    
O30   H19   S    
C18   C43   S    
O19   C44   A    
C36   C48   S    
O12   C41   A    
C39   C47   S    
C13   C14   A    
C8    C9    A    
O13   C44   A    
C28   C38   A    
H1    C17   S    
O24   H16   S    
C7    C8    A    
C6    C17   A    
