data_mof_unit_50879.cif
_audit_creation_date              2012-12-11T17:34:21-0500
_audit_creation_method            fapswitch 2.2
_symmetry_space_group_name_H-M    P1
_symmetry_Int_Tables_number       1
_space_group_crystal_system       triclinic
_cell_length_a                    23.777972
_cell_length_b                    7.223042
_cell_length_c                    20.644437
_cell_angle_alpha                 90.00022
_cell_angle_beta                  105.410288
_cell_angle_gamma                 90.000144
_cell_volume                      3418.19252753

loop_
_atom_site_label
_atom_site_type_symbol
_atom_type_description
_atom_site_fract_x
_atom_site_fract_y
_atom_site_fract_z
_atom_type_partial_charge
O1    O     O_R   0.449110 0.494310 0.552140 -0.537972
O2    O     O_R   0.550890 0.994310 0.447860 -0.537972
O3    O     O_R   0.440010 0.824420 0.415850 -0.533096
O4    O     O_R   0.559990 0.324420 0.584150 -0.533096
C1    C     C_R   0.425318 0.655738 0.390988 0.709707
C2    C     C_R   0.574682 0.155739 0.609012 0.709705
O5    O     O_R   0.442260 0.824040 0.549660 -0.540792
O6    O     O_R   0.557740 0.324040 0.450340 -0.540792
O7    O     O_R   0.553160 0.993960 0.582620 -0.531850
O8    O     O_R   0.446840 0.493960 0.417380 -0.531851
C3    C     C_R   0.428664 0.655397 0.567664 0.677717
C4    C     C_R   0.571336 0.155397 0.432336 0.677719
O9    O     O_3   0.536380 0.660670 0.510660 -0.373640
O10   O     O_3   0.463620 0.160670 0.489340 -0.373640
V1    V     V_3+5 0.493250 0.935680 0.498020 1.407662
V2    V     V_3+5 0.506750 0.435680 0.501980 1.407662
C5    C     C_R   0.823131 0.910462 0.170372 -0.135916
C6    C     C_R   0.176869 0.410462 0.829627 -0.135917
H1    H     H_    0.806142 0.784442 0.186491 0.106398
H2    H     H_    0.193857 0.284442 0.813508 0.106398
C7    C     C_R   0.862483 0.898533 0.130430 -0.165982
C8    C     C_R   0.137516 0.398533 0.869569 -0.165983
H3    H     H_    0.874918 0.762775 0.116794 0.122505
H4    H     H_    0.125081 0.262774 0.883204 0.122505
C9    C     C_R   0.885668 0.059859 0.108912 -0.052901
C10   C     C_R   0.114332 0.559859 0.891088 -0.052902
C11   C     C_R   0.867917 0.233082 0.128256 -0.168291
C12   C     C_R   0.132084 0.733082 0.871745 -0.168290
H5    H     H_    0.884487 0.360712 0.112878 0.125760
H6    H     H_    0.115514 0.860712 0.887124 0.125760
C13   C     C_R   0.828621 0.244504 0.168092 -0.137819
C14   C     C_R   0.171379 0.744504 0.831909 -0.137819
H7    H     H_    0.815949 0.379422 0.182353 0.106343
H8    H     H_    0.184052 0.879422 0.817649 0.106343
C15   C     C_R   0.806115 0.083503 0.189550 0.131497
C16   C     C_R   0.193885 0.583503 0.810450 0.131497
C17   C     C_1   0.765967 0.096528 0.231468 -0.059333
C18   C     C_1   0.234033 0.596528 0.768532 -0.059334
C19   C     C_1   0.732527 0.108242 0.266605 -0.059723
C20   C     C_1   0.267473 0.608242 0.733395 -0.059725
C21   C     C_R   0.669796 0.960168 0.329859 -0.138781
C22   C     C_R   0.330205 0.460168 0.670141 -0.138783
H9    H     H_    0.682075 0.825313 0.315091 0.105990
H10   H     H_    0.317925 0.325313 0.684909 0.105989
C23   C     C_R   0.630871 0.971481 0.370156 -0.166687
C24   C     C_R   0.369129 0.471481 0.629844 -0.166689
H11   H     H_    0.614140 0.843835 0.385313 0.124884
H12   H     H_    0.385860 0.343835 0.614688 0.124884
C25   C     C_R   0.613722 0.144617 0.390282 -0.051354
C26   C     C_R   0.386278 0.644617 0.609718 -0.051352
C27   C     C_R   0.636987 0.305973 0.368883 -0.169534
C28   C     C_R   0.363013 0.805973 0.631116 -0.169536
H13   H     H_    0.624949 0.441675 0.383033 0.122012
H14   H     H_    0.375050 0.941675 0.616967 0.122012
C29   C     C_R   0.675970 0.294150 0.328480 -0.136760
C30   C     C_R   0.324030 0.794150 0.671520 -0.136761
H15   H     H_    0.693103 0.420187 0.312561 0.106217
H16   H     H_    0.306897 0.920187 0.687439 0.106217
C31   C     C_R   0.692501 0.121190 0.308675 0.131897
C32   C     C_R   0.307499 0.621190 0.691325 0.131897
C33   C     C_R   0.641367 0.191817 0.795929 0.466987
C34   C     C_R   0.358635 0.691770 0.204070 0.466987
H17   H     H_    0.555813 0.225980 0.728671 0.123636
H18   H     H_    0.444190 0.725925 0.271326 0.123642
H19   H     H_    0.727684 0.194001 0.909700 0.170198
H20   H     H_    0.272319 0.693943 0.090298 0.170194
C35   C     C_R   0.618347 0.149627 0.675002 -0.098786
C36   C     C_R   0.381653 0.649622 0.324997 -0.098789
C37   C     C_R   0.901587 0.013569 0.768216 -0.160911
C38   C     C_R   0.098411 0.513599 0.231785 -0.160913
C39   C     C_R   0.863032 0.009051 0.704495 -0.122663
C40   C     C_R   0.136965 0.509094 0.295506 -0.122662
C41   C     C_R   0.803756 0.042731 0.695618 -0.155990
C42   C     C_R   0.196242 0.542763 0.304383 -0.155990
C43   C     C_R   0.781144 0.082808 0.750927 0.104953
C44   C     C_R   0.218855 0.582816 0.249074 0.104952
C45   C     C_R   0.821334 0.089577 0.816396 0.074315
C46   C     C_R   0.178666 0.589571 0.183603 0.074314
C47   C     C_R   0.720120 0.116015 0.743383 0.018700
C48   C     C_R   0.279880 0.616013 0.256617 0.018704
C49   C     C_R   0.701003 0.157328 0.801557 0.037192
C50   C     C_R   0.298998 0.657298 0.198441 0.037185
C51   C     C_R   0.741474 0.163319 0.864895 -0.164951
C52   C     C_R   0.258528 0.663279 0.135104 -0.164966
C53   C     C_R   0.800351 0.129607 0.872238 -0.210760
C54   C     C_R   0.199650 0.629579 0.127761 -0.210753
C55   C     C_R   0.677302 0.110634 0.680216 -0.221914
C56   C     C_R   0.322697 0.610645 0.319785 -0.221914
C57   C     C_R   0.601033 0.192292 0.732675 -0.243044
C58   C     C_R   0.398969 0.692256 0.267324 -0.243039
C59   C     C_R   0.881773 0.054052 0.824580 -0.081136
C60   C     C_R   0.118226 0.554058 0.175420 -0.081135
H21   H     H_    0.688288 0.079888 0.633998 0.107890
H22   H     H_    0.311710 0.579921 0.366004 0.107888
H23   H     H_    0.947351 0.984827 0.773668 0.106216
H24   H     H_    0.052647 0.484868 0.226333 0.106215
H25   H     H_    0.776856 0.036121 0.644705 0.108639
H26   H     H_    0.223141 0.536164 0.355297 0.108639
H27   H     H_    0.879224 0.978029 0.661393 0.121600
H28   H     H_    0.120772 0.478090 0.338609 0.121599
H29   H     H_    0.829468 0.135489 0.922406 0.114043
H30   H     H_    0.170534 0.635451 0.077593 0.114038
O11   O     O_R   0.053190 0.709680 0.082610 -0.531493
O12   O     O_R   0.946810 0.209680 0.917390 -0.531493
O13   O     O_R   0.057740 0.380240 0.950340 -0.539594
O14   O     O_R   0.942260 0.880240 0.049660 -0.539594
C61   C     C_R   0.071498 0.548983 0.932560 0.674131
C62   C     C_R   0.928502 0.048983 0.067440 0.674130
O15   O     O_R   0.060000 0.379940 0.084150 -0.532299
O16   O     O_R   0.940000 0.879940 0.915850 -0.532299
O17   O     O_R   0.949110 0.210100 0.052140 -0.538096
O18   O     O_R   0.050890 0.710100 0.947860 -0.538096
C63   C     C_R   0.074764 0.548252 0.108999 0.677999
C64   C     C_R   0.925235 0.048251 0.891001 0.677999
O19   O     O_3   0.963630 0.543720 0.989330 -0.371867
O20   O     O_3   0.036370 0.043720 0.010670 -0.371867
V3    V     V_3+5 0.006750 0.268680 0.001980 1.412977
V4    V     V_3+5 0.993250 0.768680 0.998020 1.412978
O21   O     O_3   0.622980 0.238366 0.852010 -0.556791
C65   C     C_3   0.595704 0.082669 0.871594 -0.260880
H31   H     H_    0.583717 0.116867 0.918588 0.171593
H32   H     H_    0.625718 0.961449 0.882348 0.141432
H33   H     H_    0.554829 0.046194 0.832967 0.140533
O22   O     O_3   0.377026 0.738287 0.147988 -0.556790
C66   C     C_3   0.404279 0.582548 0.128398 -0.260889
H34   H     H_    0.416277 0.616730 0.081410 0.171595
H35   H     H_    0.374244 0.461381 0.117632 0.141433
H36   H     H_    0.445144 0.546000 0.167026 0.140537

loop_
_geom_bond_atom_site_label_1
_geom_bond_atom_site_label_2
_ccdc_geom_bond_type
C18   C20   T    
C20   C32   S    
C29   C31   A    
C11   H5    S    
C21   H9    S    
C61   O18   A    
C38   H24   S    
O1    C3    A    
H18   C58   S    
O2    C4    A    
O16   V4    S    
C2    O7    A    
C34   O22   S    
C4    C25   S    
O15   V3    S    
C42   H26   S    
C41   H25   S    
O13   C61   A    
C42   C44   A    
C14   C16   A    
C8    H4    S    
O11   C63   A    
C44   C46   A    
H19   C51   S    
C33   O21   S    
C34   C58   A    
C35   C57   A    
O20   V3    S    
C22   C24   A    
C37   C39   A    
C53   H29   S    
C28   H14   S    
C12   H6    S    
C25   C27   A    
C66   H36   S    
C36   C58   A    
C13   H7    S    
C60   C63   S    
O16   C64   A    
C27   C29   A    
C65   H33   S    
O15   C63   A    
C46   C54   A    
O5    V1    S    
C34   C50   A    
C45   C53   A    
O6    V2    S    
O14   V4    S    
C41   C43   A    
O13   V3    S    
C22   H10   S    
C1    C36   S    
C47   C55   A    
C49   C51   A    
C65   H32   S    
C24   H12   S    
C23   H11   S    
C56   H22   S    
C11   C13   A    
C12   C14   A    
C21   C31   A    
C40   C42   A    
C22   C32   A    
C39   C41   A    
C37   H23   S    
C39   H27   S    
C5    C7    A    
C30   C32   A    
C27   H13   S    
C14   H8    S    
O4    V2    S    
O5    C3    A    
C26   C28   A    
C23   C25   A    
O6    C4    A    
O19   V4    S    
C19   C31   S    
H17   C57   S    
O1    V2    S    
O2    V1    S    
C43   C45   A    
O12   C64   A    
C48   C50   A    
C2    C35   S    
C51   C53   A    
C50   C52   A    
C7    H3    S    
C66   H34   S    
C36   C56   A    
C13   C15   A    
O4    C2    A    
C54   H30   S    
O3    V1    S    
C65   H31   S    
C47   C49   A    
O12   V3    S    
C40   H28   S    
C7    C9    A    
C45   C59   A    
C15   C17   S    
C6    C8    A    
C10   C12   A    
C38   C60   A    
C44   C48   A    
C52   C54   A    
O3    C1    A    
C10   C61   S    
C38   C40   A    
O21   C65   S    
C59   C64   S    
C9    C11   A    
C24   C26   A    
C35   C55   A    
C62   O17   A    
O17   V3    S    
C46   C60   A    
C29   H15   S    
O7    V1    S    
C1    O8    A    
C17   C19   T    
C3    C26   S    
C33   C49   A    
O18   V4    S    
C6    C16   A    
O14   C62   A    
C55   H21   S    
C16   C18   S    
C5    H1    S    
C30   H16   S    
C6    H2    S    
C33   C57   A    
H20   C52   S    
O11   V4    S    
C48   C56   A    
C8    C10   A    
O9    V2    S    
C66   H35   S    
C21   C23   A    
O10   V1    S    
O8    V2    S    
C5    C15   A    
C37   C59   A    
C43   C47   A    
C28   C30   A    
C9    C62   S    
O22   C66   S    
