data_mof_unit_21213.cif
_audit_creation_date              2012-12-11T15:34:53-0500
_audit_creation_method            fapswitch 2.2
_symmetry_space_group_name_H-M    P1
_symmetry_Int_Tables_number       1
_space_group_crystal_system       triclinic
_cell_length_a                    30.326971
_cell_length_b                    7.243886
_cell_length_c                    26.042403
_cell_angle_alpha                 90.009137
_cell_angle_beta                  112.430288
_cell_angle_gamma                 89.991488
_cell_volume                      5288.29329775

loop_
_atom_site_label
_atom_site_type_symbol
_atom_type_description
_atom_site_fract_x
_atom_site_fract_y
_atom_site_fract_z
_atom_type_partial_charge
O1    O     O_R   0.295360 0.592990 0.320420 -0.532143
O2    O     O_R   0.704640 0.407010 0.679580 -0.530613
O3    O     O_R   0.204640 0.092990 0.179580 -0.532116
O4    O     O_R   0.795360 0.907010 0.820420 -0.530630
O5    O     O_R   0.294060 0.265620 0.213230 -0.520761
O6    O     O_R   0.705940 0.734380 0.786770 -0.525597
O7    O     O_R   0.205940 0.765620 0.286770 -0.520894
O8    O     O_R   0.794060 0.234380 0.713230 -0.525572
C1    C     C_R   0.304335 0.431895 0.199701 0.768904
C2    C     C_R   0.695971 0.567900 0.800504 0.796533
C3    C     C_R   0.195664 0.931926 0.300297 0.768775
C4    C     C_R   0.804031 0.067868 0.699501 0.796582
O9    O     O_R   0.300850 0.263360 0.322080 -0.520974
O10   O     O_R   0.699150 0.736640 0.677920 -0.528996
O11   O     O_R   0.199150 0.763360 0.177920 -0.521007
O12   O     O_R   0.800850 0.236640 0.822080 -0.528994
O13   O     O_R   0.211480 0.091820 0.289210 -0.544419
O14   O     O_R   0.788520 0.908180 0.710790 -0.537296
O15   O     O_R   0.288520 0.591820 0.210790 -0.544508
O16   O     O_R   0.711480 0.408180 0.789210 -0.537282
C5    C     C_R   0.314021 0.432533 0.343174 0.728449
C6    C     C_R   0.686545 0.567291 0.656487 0.740747
C7    C     C_R   0.185982 0.932528 0.156825 0.728453
C8    C     C_R   0.813457 0.067296 0.843511 0.740655
O17   O     O_3   0.220670 0.426670 0.239090 -0.374415
O18   O     O_3   0.779330 0.573330 0.760910 -0.373431
O19   O     O_3   0.279330 0.926670 0.260910 -0.374396
O20   O     O_3   0.720670 0.073330 0.739090 -0.373432
V1    V     V_3+5 0.255440 0.152290 0.252020 1.575690
V2    V     V_3+5 0.744560 0.847710 0.747980 1.578812
V3    V     V_3+5 0.244560 0.652290 0.247980 1.575411
V4    V     V_3+5 0.755440 0.347710 0.752020 1.578823
C9    C     C_R   0.849338 0.046445 0.900939 -0.092865
C10   C     C_R   0.149383 0.944429 0.099474 -0.082898
C11   C     C_R   0.650670 0.546428 0.599056 -0.092907
C12   C     C_R   0.350625 0.444442 0.400521 -0.082814
C13   C     C_R   0.866262 0.890410 0.989205 -0.104109
C14   C     C_R   0.131633 0.979162 0.000815 -0.011950
C15   C     C_R   0.633756 0.390446 0.510772 -0.103283
C16   C     C_R   0.368384 0.479046 0.499187 -0.011970
C17   C     C_R   0.834078 0.965848 0.939721 -0.139659
C18   C     C_R   0.164065 0.977338 0.056005 -0.206443
C19   C     C_R   0.665936 0.465835 0.560269 -0.140026
C20   C     C_R   0.335946 0.477266 0.444000 -0.206570
C21   C     C_R   0.898364 0.051589 0.912223 -0.129136
C22   C     C_R   0.100579 0.924038 0.087810 -0.096320
C23   C     C_R   0.601643 0.551581 0.587766 -0.129108
C24   C     C_R   0.399429 0.424096 0.412172 -0.096377
C25   C     C_R   0.932291 0.961177 0.959622 0.112758
C26   C     C_R   0.065903 0.922240 0.032202 0.102006
C27   C     C_R   0.567722 0.461194 0.540356 0.112443
C28   C     C_R   0.434111 0.422252 0.467777 0.102056
C29   C     C_R   0.916517 0.895058 0.001345 -0.007059
C30   C     C_R   0.081373 0.964198 0.988141 0.015023
C31   C     C_R   0.583500 0.395123 0.498625 -0.007397
C32   C     C_R   0.418643 0.464127 0.511850 0.015022
C33   C     C_R   0.981601 0.939983 0.966986 0.037055
C34   C     C_R   0.015985 0.891511 0.020112 0.048598
C35   C     C_R   0.518415 0.439977 0.532989 0.037051
C36   C     C_R   0.484031 0.391556 0.479856 0.048308
C37   C     C_R   0.999223 0.808960 0.058832 -0.105608
C38   C     C_R   0.997554 0.957029 0.922422 -0.114970
C39   C     C_R   0.500798 0.309088 0.441117 -0.105785
C40   C     C_R   0.502464 0.456948 0.577560 -0.114908
C41   C     C_R   0.951043 0.828695 0.052323 -0.120189
C42   C     C_R   0.046327 0.987976 0.933399 -0.071654
C43   C     C_R   0.548978 0.328832 0.447632 -0.118702
C44   C     C_R   0.453691 0.487868 0.566594 -0.071697
H1    H     H_    0.090132 0.917892 0.122972 0.133449
H2    H     H_    0.909266 0.121826 0.882524 0.144900
H3    H     H_    0.409871 0.418012 0.377005 0.133270
H4    H     H_    0.590735 0.621800 0.617472 0.144892
H5    H     H_    0.201740 0.994226 0.065128 0.188203
H6    H     H_    0.796094 0.948194 0.929153 0.174881
H7    H     H_    0.298271 0.494107 0.434886 0.188193
H8    H     H_    0.703920 0.448155 0.570842 0.174981
C45   C     C_R   0.071869 0.828446 0.457349 0.609498
C46   C     C_R   0.917499 0.144131 0.530743 0.693942
C47   C     C_R   0.428275 0.327968 0.042777 0.619173
C48   C     C_R   0.582473 0.644543 0.969283 0.695150
N1    N     N_R   0.070338 0.965434 0.420647 -0.574580
N2    N     N_R   0.922508 0.017612 0.571494 -0.549454
N3    N     N_R   0.429649 0.465295 0.079335 -0.572601
N4    N     N_R   0.577529 0.517942 0.928560 -0.549601
C49   C     C_R   0.039334 0.110766 0.411389 0.590800
C50   C     C_R   0.955965 0.880196 0.583499 0.671095
C51   C     C_R   0.460514 0.611015 0.088458 0.597151
C52   C     C_R   0.544114 0.380391 0.916555 0.671610
C53   C     C_R   0.006476 0.119750 0.438371 -0.095768
C54   C     C_R   0.983442 0.854694 0.550311 -0.087368
C55   C     C_R   0.493347 0.620157 0.061461 -0.086116
C56   C     C_R   0.516649 0.354738 0.949747 -0.087898
C57   C     C_R   0.009385 0.981875 0.478350 0.002895
C58   C     C_R   0.979816 0.990386 0.509494 -0.013390
C59   C     C_R   0.490611 0.481928 0.021640 0.009270
C60   C     C_R   0.520184 0.490575 0.990506 -0.016034
C61   C     C_R   0.042150 0.835734 0.487594 -0.016116
C62   C     C_R   0.946926 0.136160 0.500134 -0.035998
C63   C     C_R   0.458008 0.335321 0.012544 -0.011717
C64   C     C_R   0.552996 0.636593 0.999832 -0.036558
C65   C     C_R   0.971946 0.262956 0.428538 -0.054025
C66   C     C_R   0.015144 0.702974 0.556925 -0.026319
C67   C     C_R   0.527677 0.763871 0.071179 -0.049129
C68   C     C_R   0.485048 0.202728 0.943201 -0.027450
C69   C     C_R   0.943527 0.270407 0.460079 -0.160808
C70   C     C_R   0.044345 0.697965 0.526255 -0.153999
C71   C     C_R   0.556262 0.771086 0.039794 -0.158830
C72   C     C_R   0.455913 0.197402 0.973952 -0.160227
O21   O     O_2   0.102584 0.686532 0.465062 -0.497615
O22   O     O_2   0.884421 0.278675 0.520314 -0.476400
O23   O     O_2   0.397695 0.185680 0.035182 -0.498636
O24   O     O_2   0.615520 0.779180 0.979728 -0.476014
O25   O     O_2   0.041612 0.247746 0.377492 -0.482020
O26   O     O_2   0.963048 0.772554 0.628130 -0.479404
O27   O     O_2   0.458134 0.748245 0.122243 -0.488549
O28   O     O_2   0.537065 0.272754 0.871924 -0.479337
H9    H     H_    0.917707 0.381144 0.452290 0.202485
H10   H     H_    0.068361 0.582008 0.531852 0.183404
H11   H     H_    0.582050 0.881922 0.047608 0.201837
H12   H     H_    0.431993 0.081188 0.968431 0.183506
C73   C     C_R   0.908342 0.123613 0.653095 -0.098413
C74   C     C_R   0.090426 0.850089 0.343903 -0.071805
C75   C     C_R   0.591689 0.623909 0.846960 -0.098260
C76   C     C_R   0.409567 0.349973 0.156077 -0.070319
H13   H     H_    0.943814 0.182899 0.667545 0.179442
H14   H     H_    0.056816 0.776115 0.329723 0.169496
H15   H     H_    0.556213 0.683185 0.832512 0.179413
H16   H     H_    0.443189 0.276051 0.170265 0.170343
C77   C     C_R   0.880579 0.139659 0.685403 -0.064124
C78   C     C_R   0.120076 0.838398 0.313835 -0.052826
C79   C     C_R   0.619436 0.639829 0.814632 -0.064056
C80   C     C_R   0.379921 0.338303 0.186148 -0.054330
C81   C     C_R   0.834344 0.058766 0.666023 -0.160719
C82   C     C_R   0.163594 0.939209 0.331966 -0.198258
C83   C     C_R   0.665671 0.558900 0.834000 -0.160641
C84   C     C_R   0.336395 0.439096 0.168019 -0.197903
C85   C     C_R   0.816867 0.965784 0.613886 -0.121270
C86   C     C_R   0.176928 0.044845 0.381710 -0.059543
C87   C     C_R   0.683165 0.466030 0.886148 -0.121346
C88   C     C_R   0.323041 0.544626 0.118261 -0.059116
C89   C     C_R   0.845805 0.950169 0.582080 -0.067474
C90   C     C_R   0.146534 0.053035 0.412016 -0.059111
C91   C     C_R   0.654244 0.450556 0.917979 -0.068228
C92   C     C_R   0.353423 0.552738 0.087940 -0.060612
C93   C     C_R   0.891947 0.029007 0.602527 0.329861
C94   C     C_R   0.102616 0.958163 0.391711 0.268952
C95   C     C_R   0.608099 0.529401 0.897539 0.329674
C96   C     C_R   0.397361 0.457964 0.108257 0.267817
C97   C     C_2   0.938737 0.797452 0.101669 0.767494
O29   O     O_2   0.925536 0.927453 0.122177 -0.502352
O30   O     O_R   0.941889 0.620537 0.124308 -0.642433
H17   H     H_    0.932486 0.617913 0.157711 0.342623
C98   C     C_2   0.058748 0.066748 0.887999 0.762772
O31   O     O_2   0.073458 0.225350 0.891742 -0.514576
O32   O     O_R   0.053537 0.960419 0.841204 -0.635691
H18   H     H_    0.063066 0.030103 0.813279 0.324326
C99   C     C_2   0.561287 0.297700 0.398279 0.765097
O33   O     O_2   0.574498 0.427747 0.377812 -0.505400
O34   O     O_R   0.558128 0.120844 0.375583 -0.644451
H19   H     H_    0.567526 0.118303 0.342176 0.334611
C100  C     C_2   0.441268 0.566581 0.612008 0.762755
O35   O     O_2   0.426543 0.725169 0.608286 -0.514579
O36   O     O_R   0.446496 0.460213 0.658792 -0.635706
H20   H     H_    0.436963 0.529859 0.686728 0.324315
C101  C     C_2   0.768031 0.885268 0.592666 0.747487
O37   O     O_2   0.761910 0.724692 0.577108 -0.558615
O38   O     O_R   0.729269 0.992730 0.591237 -0.663040
H21   H     H_    0.698102 0.921811 0.576762 0.301505
C102  C     C_2   0.223087 0.143773 0.402289 0.848974
O39   O     O_2   0.223969 0.310377 0.409937 -0.547332
O40   O     O_R   0.265333 0.045768 0.412583 -0.646664
H22   H     H_    0.294692 0.126880 0.427339 0.302580
C103  C     C_2   0.732000 0.385466 0.907353 0.747685
O41   O     O_2   0.738125 0.224919 0.922929 -0.558487
O42   O     O_R   0.770757 0.492846 0.908744 -0.663051
H23   H     H_    0.801921 0.421891 0.923205 0.301549
C104  C     C_2   0.276877 0.643554 0.097687 0.849029
O43   O     O_2   0.275984 0.810132 0.090004 -0.547356
O44   O     O_R   0.234637 0.545585 0.087434 -0.646697
H24   H     H_    0.205275 0.626699 0.072675 0.302624
C105  C     C_2   0.826814 0.858914 0.526521 0.532414
H25   H     H_    0.788718 0.854955 0.502447 0.095611
O45   O     O_2   0.853203 0.784956 0.507146 -0.493747
C106  C     C_2   0.160265 0.152390 0.466081 0.541912
H26   H     H_    0.132990 0.202935 0.479933 0.058502
O46   O     O_2   0.201950 0.172283 0.496974 -0.480629
C107  C     C_2   0.673259 0.359435 0.973551 0.534131
H27   H     H_    0.711358 0.355457 0.997604 0.096161
O47   O     O_2   0.646885 0.285614 0.992963 -0.492978
C108  C     C_2   0.339653 0.651868 0.033841 0.541163
H28   H     H_    0.366903 0.702348 0.019947 0.057121
O48   O     O_2   0.297958 0.671633 0.002963 -0.480549
C109  C     C_2   0.844172 0.780708 0.021258 0.894921
O49   O     O_2   0.816317 0.854880 0.038438 -0.472029
O50   O     O_R   0.852777 0.591325 0.029756 -0.615818
H29   H     H_    0.874425 0.541914 0.011394 0.271382
C110  C     C_2   0.153311 0.971780 0.958665 0.859801
O51   O     O_2   0.182692 0.087815 0.958925 -0.494838
O52   O     O_R   0.142084 0.825960 0.920659 -0.622934
H30   H     H_    0.159695 0.834068 0.894559 0.338461
C111  C     C_2   0.655849 0.280753 0.478706 0.893532
O53   O     O_2   0.683714 0.354913 0.461549 -0.473374
O54   O     O_R   0.647235 0.091388 0.470170 -0.616658
H31   H     H_    0.625580 0.041978 0.488518 0.271381
C112  C     C_2   0.346713 0.471554 0.541343 0.859782
O55   O     O_2   0.317319 0.587533 0.541106 -0.494759
O56   O     O_R   0.357963 0.325693 0.579326 -0.622953
H32   H     H_    0.340355 0.333726 0.605432 0.338486
C113  C     C_2   0.029220 0.674510 0.100933 0.433945
H33   H     H_    0.027511 0.666934 0.141620 0.092256
O57   O     O_2   0.055422 0.567568 0.089766 -0.506599
C114  C     C_2   0.965377 0.911780 0.864303 0.439719
H34   H     H_    0.967875 0.986123 0.829426 0.092116
O58   O     O_2   0.936382 0.786536 0.854922 -0.513799
C115  C     C_2   0.470807 0.174698 0.398988 0.433667
H35   H     H_    0.472514 0.167218 0.358298 0.091293
O59   O     O_2   0.444614 0.067698 0.410134 -0.506644
C116  C     C_2   0.534648 0.411653 0.635671 0.439731
H36   H     H_    0.532151 0.485963 0.670561 0.092136
O60   O     O_2   0.563649 0.286411 0.645030 -0.513779
C117  C     C_2   0.961972 0.403878 0.384344 0.888997
O61   O     O_2   0.952480 0.356786 0.336203 -0.496013
O62   O     O_R   0.960521 0.590369 0.397407 -0.665869
H37   H     H_    0.952986 0.673852 0.363889 0.311851
C118  C     C_2   0.017701 0.540040 0.592454 0.844600
O63   O     O_2   0.981210 0.464673 0.591020 -0.521545
O64   O     O_R   0.062142 0.465634 0.625076 -0.649825
H38   H     H_    0.059341 0.351955 0.646345 0.310863
C119  C     C_2   0.537390 0.904084 0.115551 0.883641
O65   O     O_2   0.537824 0.067931 0.104443 -0.556324
O66   O     O_R   0.548629 0.848426 0.170514 -0.609219
H39   H     H_    0.555119 0.956732 0.197053 0.325920
C120  C     C_2   0.482514 0.039856 0.907641 0.844387
O67   O     O_2   0.519014 0.964838 0.908955 -0.521740
O68   O     O_R   0.438089 0.965100 0.875127 -0.649905
H40   H     H_    0.440907 0.851495 0.853828 0.310636
C121  C     C_2   0.902185 0.237265 0.739742 0.756233
O69   O     O_2   0.888625 0.205849 0.777429 -0.588517
O70   O     O_R   0.939375 0.362927 0.748364 -0.632784
H41   H     H_    0.951558 0.418806 0.786989 0.333834
C122  C     C_2   0.103477 0.721283 0.263213 0.760580
O71   O     O_2   0.111536 0.765797 0.222383 -0.589372
O72   O     O_R   0.077503 0.560615 0.261988 -0.635490
H42   H     H_    0.068915 0.489634 0.225930 0.312544
C123  C     C_2   0.597813 0.737326 0.760282 0.756225
O73   O     O_2   0.611361 0.705795 0.722588 -0.588541
O74   O     O_R   0.560621 0.863016 0.751660 -0.632758
H43   H     H_    0.548426 0.918815 0.713028 0.333820
C124  C     C_2   0.396535 0.221222 0.236771 0.758743
O75   O     O_2   0.388457 0.265708 0.277594 -0.588975
O76   O     O_R   0.422545 0.060617 0.238002 -0.639131
H44   H     H_    0.431139 0.989643 0.274056 0.311053

loop_
_geom_bond_atom_site_label_1
_geom_bond_atom_site_label_2
_ccdc_geom_bond_type
C67   C119  S    
C90   C106  S    
O54   H31   S    
O1    C5    A    
C108  H28   S    
C54   C58   A    
C51   C55   A    
O19   V1    S    
C9    C21   A    
C111  O53   D    
C90   C94   A    
O3    C7    A    
C59   C60   A    
C10   C18   A    
C56   C60   A    
C48   N4    A    
C11   C23   A    
C85   C101  S    
C100  O35   D    
C116  H36   S    
O68   H40   S    
C25   C33   A    
O76   H44   S    
C5    C12   S    
C103  O41   D    
C81   C85   A    
C6    C11   S    
C76   C96   A    
C124  O75   D    
C26   C30   A    
C62   C69   A    
C36   C39   A    
C40   C44   A    
C47   C63   A    
C53   C65   A    
C14   C18   A    
C79   C83   A    
C115  O59   D    
O34   H19   S    
O4    C8    A    
C78   C122  S    
C59   C63   A    
C114  O58   D    
C58   C62   A    
C65   C117  S    
O72   H42   S    
O1    V3    S    
O13   V1    S    
C106  H26   S    
C76   C80   A    
O2    V4    S    
C122  O71   D    
C102  O39   D    
C110  O52   S    
C72   H12   S    
C54   C66   A    
C22   H1    S    
C79   C123  S    
C118  O64   S    
C17   H6    S    
C87   C91   A    
C84   C88   A    
C1    O15   A    
C99   O33   D    
C15   C31   A    
O70   H41   S    
C2    O16   A    
O20   V2    S    
C16   C32   A    
O12   C8    A    
C46   C62   A    
O30   H17   S    
C45   C61   A    
C10   C22   A    
C45   N1    A    
C98   O32   S    
C11   C19   A    
C120  O67   D    
C16   C20   A    
C51   O27   S    
C109  O49   D    
C12   C20   A    
C80   C84   A    
C76   H16   S    
C13   C29   A    
C74   H14   S    
C34   C37   A    
O11   C7    A    
O15   V3    S    
C35   C36   A    
C101  O38   S    
C117  O62   S    
C121  O69   D    
C70   H10   S    
C86   C102  S    
C53   C57   A    
C111  O54   S    
C97   O30   S    
C69   H9    S    
C78   C82   A    
O10   V2    S    
C71   H11   S    
C100  O36   S    
C80   C124  S    
C88   C104  S    
O32   H18   S    
O5    V1    S    
C103  O42   S    
C65   C69   A    
C39   C43   A    
C124  O76   S    
O7    V3    S    
C38   C42   A    
O56   H32   S    
C26   C34   A    
C52   C56   A    
C33   C38   A    
C43   C99   S    
C2    C83   S    
O62   H37   S    
C113  H33   S    
C86   C90   A    
C105  O45   D    
C73   C77   A    
O38   H21   S    
C123  O73   D    
C49   C53   A    
O18   V4    S    
C15   C19   A    
O50   H29   S    
C89   C105  S    
C109  O50   S    
C105  H25   S    
C75   C79   A    
C47   O23   S    
C66   C118  S    
O4    V2    S    
N3    C96   S    
C122  O72   S    
O8    V4    S    
C52   O28   S    
C20   H7    S    
O7    C3    A    
C115  H35   S    
C73   H13   S    
C119  O65   D    
C63   C72   A    
C23   C27   A    
C18   H5    S    
C102  O40   S    
C117  O61   D    
C46   N2    A    
C116  O60   D    
O64   H38   S    
C14   C30   A    
C21   C25   A    
O8    C4    A    
C7    C10   S    
C48   O24   S    
C118  O63   D    
C35   C40   A    
C14   C110  S    
O9    C5    A    
C46   O22   S    
C57   C58   A    
C37   C113  S    
C45   O21   S    
C120  O68   S    
O40   H22   S    
C104  O43   D    
C44   C100  S    
C77   C81   A    
C61   C70   A    
C112  O55   D    
C68   C120  S    
O6    V2    S    
C75   C95   A    
C91   C95   A    
C4    C81   S    
C123  O74   S    
C50   C54   A    
O14   V2    S    
C73   C93   A    
C3    C82   S    
C27   C35   A    
C24   H3    S    
C99   O34   S    
C57   C61   A    
C75   H15   S    
C68   C72   A    
N2    C93   S    
C29   C41   A    
O16   V4    S    
N4    C95   S    
O9    V1    S    
C19   H8    S    
C85   C89   A    
C16   C112  S    
C3    O13   A    
C64   C71   A    
C108  O48   D    
C77   C121  S    
C21   H2    S    
C91   C107  S    
O17   V3    S    
N4    C52   A    
C55   C67   A    
N3    C51   A    
C82   C86   A    
C42   C98   S    
C31   C43   A    
O74   H43   S    
O11   V3    S    
C30   C42   A    
C89   C93   A    
O12   V4    S    
C22   C26   A    
C8    C9    S    
C40   C116  S    
C50   O26   S    
C83   C87   A    
C9    C17   A    
O10   C6    A    
C121  O70   S    
C98   O31   D    
C107  H27   S    
C119  O66   S    
O42   H23   S    
C32   C44   A    
O2    C6    A    
N2    C50   A    
O3    V1    S    
C33   C34   A    
C92   C108  S    
C104  O44   S    
C25   C29   A    
C60   C64   A    
C49   O25   S    
C113  O57   D    
C106  O46   D    
C12   C24   A    
C27   C31   A    
C74   C94   A    
C15   C111  S    
C13   C17   A    
C110  O51   D    
N1    C49   A    
C23   H4    S    
C107  O47   D    
O36   H20   S    
C87   C103  S    
O6    C2    A    
C56   C68   A    
O52   H30   S    
C55   C59   A    
O44   H24   S    
C47   N3    A    
C1    C84   S    
C37   C41   A    
C101  O37   D    
C24   C28   A    
C114  H34   S    
C28   C36   A    
N1    C94   S    
C66   C70   A    
C4    O14   A    
O66   H39   S    
C41   C97   S    
C38   C114  S    
C67   C71   A    
O5    C1    A    
C39   C115  S    
C88   C92   A    
C97   O29   D    
C112  O56   S    
C74   C78   A    
C48   C64   A    
C28   C32   A    
C13   C109  S    
C92   C96   A    
