data_mof_unit_35330.cif
_audit_creation_date              2013-03-05T15:45:11-0500
_audit_creation_method            fapswitch 2.2
_symmetry_space_group_name_H-M    P1
_symmetry_Int_Tables_number       1
_space_group_crystal_system       triclinic
_cell_length_a                    24.611046
_cell_length_b                    17.636565
_cell_length_c                    15.855625
_cell_angle_alpha                 89.992719
_cell_angle_beta                  50.579393
_cell_angle_gamma                 89.992014
_cell_volume                      5316.53733997

loop_
_atom_site_label
_atom_site_type_symbol
_atom_site_description
_atom_site_fract_x
_atom_site_fract_y
_atom_site_fract_z
_atom_type_partial_charge
C1    C     C_R   0.333217 0.107912 0.799722 0.437513
C2    C     C_R   0.666718 0.892569 0.199307 0.425951
C3    C     C_R   0.655925 0.132519 0.223152 0.497788
C4    C     C_R   0.344175 0.867008 0.776263 0.489160
C5    C     C_R   0.844234 0.632794 0.776058 0.477430
C6    C     C_R   0.156436 0.367960 0.222075 0.505964
C7    C     C_R   0.166667 0.607291 0.199447 0.421109
C8    C     C_R   0.833119 0.392145 0.799990 0.441918
N1    N     N_R   0.388930 0.078160 0.705470 -0.115901
N2    N     N_R   0.611070 0.921840 0.294530 -0.112935
N3    N     N_R   0.611070 0.078160 0.294530 -0.109130
N4    N     N_R   0.388930 0.921840 0.705470 -0.108783
N5    N     N_R   0.888930 0.578160 0.705470 -0.108228
N6    N     N_R   0.111070 0.421840 0.294530 -0.110398
N7    N     N_R   0.111070 0.578160 0.294530 -0.115697
N8    N     N_R   0.888930 0.421840 0.705470 -0.113024
C9    C     C_R   0.609444 0.109747 0.594864 -0.102533
C10   C     C_R   0.386127 0.900527 0.407538 -0.101399
C11   C     C_R   0.407671 0.138447 0.407151 -0.044250
C12   C     C_R   0.597244 0.864415 0.590710 -0.077670
C13   C     C_R   0.097145 0.635727 0.590580 -0.080926
C14   C     C_R   0.907480 0.361847 0.407028 -0.039048
C15   C     C_R   0.885966 0.599102 0.407630 -0.097026
C16   C     C_R   0.108909 0.389213 0.595084 -0.104913
H1    H     H_    0.586736 0.111778 0.679769 0.121672
H2    H     H_    0.407410 0.907155 0.323740 0.110256
H3    H     H_    0.424370 0.145880 0.326274 0.112742
H4    H     H_    0.579001 0.855893 0.672326 0.115367
H5    H     H_    0.079014 0.644249 0.672140 0.115705
H6    H     H_    0.924467 0.354432 0.325980 0.112376
H7    H     H_    0.907289 0.592364 0.323830 0.109876
H8    H     H_    0.086321 0.387480 0.679945 0.121264
N9    N     N_R   0.580500 0.077840 0.556650 -0.061602
N10   N     N_R   0.419500 0.922160 0.443350 -0.062083
N11   N     N_R   0.419500 0.077840 0.443350 -0.054478
N12   N     N_R   0.580500 0.922160 0.556650 -0.057176
N13   N     N_R   0.080500 0.577840 0.556650 -0.057082
N14   N     N_R   0.919500 0.422160 0.443350 -0.054332
N15   N     N_R   0.919500 0.577840 0.443350 -0.061975
N16   N     N_R   0.080500 0.422160 0.556650 -0.061572
C17   C     C_R   0.686066 0.108071 0.413302 0.019436
C18   C     C_R   0.312544 0.895766 0.587779 0.022849
C19   C     C_R   0.343187 0.145916 0.587129 0.002537
C20   C     C_R   0.660185 0.856592 0.410563 0.031055
C21   C     C_R   0.159575 0.643729 0.410588 0.029841
C22   C     C_R   0.842264 0.354565 0.587249 0.002384
C23   C     C_R   0.812256 0.603562 0.587920 0.018513
C24   C     C_R   0.185466 0.390430 0.413510 0.026002
H9    H     H_    0.736014 0.108992 0.333838 0.204027
H10   H     H_    0.265635 0.890131 0.669164 0.211323
H11   H     H_    0.308395 0.169111 0.667595 0.160263
H12   H     H_    0.691450 0.833005 0.330112 0.150667
H13   H     H_    0.190274 0.667634 0.330340 0.142975
H14   H     H_    0.806948 0.331665 0.667811 0.164789
H15   H     H_    0.764997 0.608136 0.669507 0.212978
H16   H     H_    0.235148 0.388545 0.334232 0.202689
N17   N     N_R   0.626210 0.077590 0.443410 -0.067873
N18   N     N_R   0.373790 0.922410 0.556590 -0.071591
N19   N     N_R   0.373790 0.077590 0.556590 -0.028308
N20   N     N_R   0.626210 0.922410 0.443410 -0.032397
N21   N     N_R   0.126210 0.577590 0.443410 -0.037747
N22   N     N_R   0.873790 0.422410 0.556590 -0.022279
N23   N     N_R   0.873790 0.577590 0.556590 -0.071175
N24   N     N_R   0.126210 0.422410 0.443410 -0.068000
C25   C     C_R   0.564620 0.129156 0.224776 -0.200385
C26   C     C_R   0.436533 0.869218 0.772524 -0.196077
C27   C     C_R   0.423569 0.106028 0.800751 -0.160328
C28   C     C_R   0.575658 0.893598 0.200016 -0.155853
C29   C     C_R   0.075928 0.606220 0.199655 -0.147138
C30   C     C_R   0.923713 0.394013 0.800622 -0.168576
C31   C     C_R   0.936384 0.630825 0.772655 -0.190113
C32   C     C_R   0.064792 0.371368 0.224205 -0.205457
H17   H     H_    0.534892 0.134302 0.196476 0.141765
H18   H     H_    0.467256 0.862639 0.798874 0.144898
H19   H     H_    0.452977 0.103118 0.830062 0.140387
H20   H     H_    0.545681 0.896231 0.171656 0.142176
H21   H     H_    0.046113 0.603415 0.171027 0.141407
H22   H     H_    0.953215 0.396921 0.829770 0.141043
H23   H     H_    0.967039 0.637473 0.799120 0.144149
H24   H     H_    0.034934 0.366363 0.196118 0.142632
N25   N     N_R   0.554800 0.077270 0.294580 -0.078869
N26   N     N_R   0.445200 0.922730 0.705420 -0.077496
N27   N     N_R   0.445200 0.077270 0.705420 -0.079030
N28   N     N_R   0.554800 0.922730 0.294580 -0.078320
N29   N     N_R   0.054800 0.577270 0.294580 -0.079338
N30   N     N_R   0.945200 0.422730 0.705420 -0.078213
N31   N     N_R   0.945200 0.577270 0.705420 -0.076715
N32   N     N_R   0.054800 0.422730 0.294580 -0.079997
C33   C     C_R   0.353843 0.126076 0.860747 -0.057940
C34   C     C_R   0.645336 0.873785 0.139332 -0.060317
C35   C     C_R   0.624178 0.168518 0.186201 -0.061935
C36   C     C_R   0.376898 0.829831 0.811058 -0.058033
C37   C     C_R   0.876569 0.669980 0.811261 -0.062268
C38   C     C_R   0.124530 0.332240 0.185002 -0.055348
C39   C     C_R   0.145699 0.625963 0.138988 -0.057064
C40   C     C_R   0.854026 0.374012 0.860752 -0.058727
C41   C     C_R   0.675949 0.127993 0.506046 0.086469
C42   C     C_R   0.318172 0.883960 0.496672 0.092000
C43   C     C_R   0.360896 0.182618 0.496338 0.016354
C44   C     C_R   0.646854 0.822151 0.499390 0.049164
C45   C     C_R   0.146538 0.678059 0.499122 0.048682
C46   C     C_R   0.860169 0.318000 0.496234 0.016211
C47   C     C_R   0.817836 0.615196 0.496769 0.096304
C48   C     C_R   0.175071 0.369879 0.506330 0.080339
Ni1   Ni    Ni4+2 0.382710 0.000000 0.629850 0.346747
Ni2   Ni    Ni4+2 0.617290 1.000000 0.370150 0.336586
Ni3   Ni    Ni4+2 0.882710 0.500000 0.629850 0.340158
Ni4   Ni    Ni4+2 0.117290 0.500000 0.370150 0.344969
Ni5   Ni    Ni4+2 0.513020 0.000000 0.629850 0.207377
Ni6   Ni    Ni4+2 0.486980 1.000000 0.370150 0.205807
Ni7   Ni    Ni4+2 0.013020 0.500000 0.629850 0.207098
Ni8   Ni    Ni4+2 0.986980 0.500000 0.370150 0.206489
C49   C     C_R   0.244343 0.209925 0.555470 0.376218
C50   C     C_R   0.757681 0.750224 0.400647 0.351041
C51   C     C_R   0.792045 0.144508 0.460529 0.359384
C52   C     C_R   0.194079 0.844928 0.582782 0.349356
C53   C     C_R   0.693611 0.654091 0.582969 0.351403
C54   C     C_R   0.292398 0.353986 0.456794 0.348973
C55   C     C_R   0.257958 0.749264 0.399710 0.332108
C56   C     C_R   0.744941 0.291322 0.549656 0.380526
C57   C     C_R   0.654106 0.709416 0.581162 -0.274869
C58   C     C_R   0.338145 0.304521 0.452410 -0.280688
C59   C     C_R   0.294813 0.808426 0.397311 -0.274830
C60   C     C_R   0.699728 0.241064 0.556918 -0.287722
C61   C     C_R   0.198751 0.259529 0.562740 -0.290204
C62   C     C_R   0.794200 0.690277 0.397347 -0.276732
C63   C     C_R   0.837432 0.194707 0.455976 -0.282776
C64   C     C_R   0.154495 0.790021 0.580654 -0.265588
H25   H     H_    0.598690 0.715546 0.650315 0.181471
H26   H     H_    0.392006 0.321179 0.411977 0.189989
H27   H     H_    0.350046 0.811197 0.327101 0.175391
H28   H     H_    0.647156 0.259738 0.591874 0.187807
H29   H     H_    0.145543 0.241015 0.601230 0.183333
H30   H     H_    0.849372 0.687391 0.326932 0.176741
H31   H     H_    0.890613 0.177586 0.419214 0.188724
H32   H     H_    0.099041 0.784082 0.649758 0.183342
C65   C     C_R   0.686553 0.759355 0.493076 -0.073410
C66   C     C_R   0.313929 0.233436 0.501590 -0.079281
C67   C     C_R   0.266414 0.850987 0.491329 -0.045857
C68   C     C_R   0.723347 0.169586 0.510550 -0.086990
C69   C     C_R   0.222878 0.329522 0.511263 -0.079713
C70   C     C_R   0.765898 0.647727 0.491331 -0.044042
C71   C     C_R   0.813662 0.267078 0.500589 -0.081650
C72   C     C_R   0.186731 0.740352 0.492322 -0.073987
H33   H     H_    0.312498 0.702748 0.826142 0.155436
H34   H     H_    0.688023 0.295184 0.171355 0.145367
H35   H     H_    0.724024 0.761112 0.075356 0.153922
H36   H     H_    0.275498 0.238570 0.922348 0.146336
H37   H     H_    0.776601 0.260572 0.922928 0.156131
H38   H     H_    0.226168 0.737011 0.074298 0.146377
H39   H     H_    0.186012 0.203484 0.171053 0.154397
H40   H     H_    0.810031 0.794792 0.827297 0.146349
C73   C     C_2   0.656586 0.225103 0.101166 -0.089866
C74   C     C_2   0.345451 0.772109 0.894773 -0.104976
C75   C     C_2   0.305371 0.151403 0.973377 -0.104287
C76   C     C_2   0.692963 0.848572 0.026533 -0.126961
C77   C     C_2   0.194019 0.650600 0.025808 -0.099967
C78   C     C_2   0.806033 0.348631 0.973350 -0.136246
C79   C     C_2   0.844176 0.727135 0.895656 -0.079578
C80   C     C_2   0.156287 0.275530 0.100169 -0.115961
C81   C     C_2   0.696378 0.278009 0.098061 0.020423
C82   C     C_2   0.305021 0.719495 0.898835 -0.024267
C83   C     C_2   0.261798 0.205514 0.991631 0.104695
C84   C     C_2   0.736663 0.794108 0.006721 0.058792
C85   C     C_2   0.238635 0.704062 0.005741 0.103469
C86   C     C_2   0.762949 0.293835 0.992000 0.061525
C87   C     C_2   0.802939 0.778671 0.899899 0.012143
C88   C     C_2   0.195051 0.221447 0.097496 -0.014456
H41   H     H_    0.340649 0.785373 0.966247 0.180978
H42   H     H_    0.662362 0.211029 0.029058 0.177482
H43   H     H_    0.699640 0.880687 0.962067 0.159011
H44   H     H_    0.297956 0.119536 0.038608 0.153623
H45   H     H_    0.798439 0.380968 0.038395 0.160062
H46   H     H_    0.200139 0.618947 0.961502 0.152742
H47   H     H_    0.162652 0.290282 0.027724 0.175238
H48   H     H_    0.839618 0.714199 0.966983 0.182632
S1    S     S_3+6 0.244374 0.098385 0.852631 -0.030991
O1    O     O_2   0.210515 0.174917 0.876794 -0.355211
O2    O     O_2   0.241024 0.060502 0.771457 -0.210281
O3    O     O_3   0.199134 0.047940 0.969078 -0.475611
H49   H     H_    0.149175 0.053160 0.001578 0.396956
S2    S     S_3+6 0.756201 0.903928 0.142831 -0.012272
O4    O     O_2   0.791903 0.828150 0.112202 -0.314998
O5    O     O_2   0.793755 0.951889 0.041686 -0.205896
O6    O     O_3   0.763405 0.943188 0.231618 -0.485015
H50   H     H_    0.814616 0.943945 0.192774 0.437260
S3    S     S_3+6 0.748391 0.137971 0.149221 -0.043883
O7    O     O_2   0.765411 0.208787 0.181070 -0.353538
O8    O     O_2   0.777574 0.071987 0.166571 -0.224273
O9    O     O_3   0.789564 0.140238 0.014839 -0.526055
H51   H     H_    0.839500 0.150782 0.979070 0.389064
S4    S     S_3+6 0.251172 0.860156 0.851201 -0.042033
O10   O     O_2   0.235922 0.789105 0.817181 -0.343473
O11   O     O_2   0.215740 0.855180 0.970635 -0.280467
O12   O     O_3   0.212689 0.931879 0.839440 -0.441585
H52   H     H_    0.162310 0.917862 0.885556 0.416025
S5    S     S_3+6 0.751360 0.635679 0.853125 -0.032086
O13   O     O_2   0.731637 0.705343 0.823320 -0.338761
O14   O     O_2   0.723085 0.568174 0.836719 -0.193031
O15   O     O_3   0.712070 0.638093 0.986803 -0.530189
H53   H     H_    0.661636 0.647054 0.024370 0.393545
S6    S     S_3+6 0.248942 0.358864 0.150706 -0.050932
O16   O     O_2   0.261447 0.286644 0.186448 -0.358415
O17   O     O_2   0.286155 0.354192 0.030609 -0.281153
O18   O     O_3   0.288323 0.428576 0.164135 -0.455466
H54   H     H_    0.338100 0.412634 0.120439 0.398251
S7    S     S_3+6 0.255435 0.593971 0.143892 -0.014634
O19   O     O_2   0.293008 0.668639 0.112243 -0.314739
O20   O     O_2   0.258535 0.558110 0.226287 -0.204585
O21   O     O_3   0.296457 0.539172 0.031937 -0.476664
H55   H     H_    0.347056 0.542614 0.996445 0.399452
S8    S     S_3+6 0.743747 0.400060 0.853511 -0.030036
O22   O     O_2   0.711496 0.322643 0.877160 -0.362652
O23   O     O_2   0.702557 0.444422 0.958235 -0.201005
O24   O     O_3   0.736799 0.441251 0.765238 -0.488817
H56   H     H_    0.686606 0.435754 0.799127 0.433654
N33   N     N_R   0.221112 0.133983 0.594542 0.257164
O25   O     O_R   0.256550 0.077250 0.528871 -0.364245
O26   O     O_R   0.158316 0.122193 0.686357 -0.288996
N34   N     N_R   0.797606 0.808438 0.320123 0.235314
O27   O     O_R   0.845777 0.789818 0.218141 -0.338370
O28   O     O_R   0.800335 0.875290 0.351815 -0.301261
N35   N     N_R   0.815087 0.068929 0.417826 0.246567
O29   O     O_R   0.770778 0.012744 0.462955 -0.342373
O30   O     O_R   0.881682 0.054474 0.342059 -0.336173
N36   N     N_R   0.160388 0.891823 0.678058 0.232038
O31   O     O_R   0.107524 0.865895 0.773633 -0.350498
O32   O     O_R   0.176533 0.963098 0.668435 -0.272052
N37   N     N_R   0.659943 0.606933 0.677954 0.238040
O33   O     O_R   0.676498 0.535771 0.667862 -0.292885
O34   O     O_R   0.607040 0.632560 0.773713 -0.328164
N38   N     N_R   0.316002 0.428336 0.409262 0.246123
O35   O     O_R   0.382352 0.440854 0.329161 -0.327361
O36   O     O_R   0.272890 0.485588 0.453853 -0.339213
N39   N     N_R   0.297374 0.692438 0.316397 0.245951
O37   O     O_R   0.298669 0.623584 0.344402 -0.264549
O38   O     O_R   0.346009 0.713009 0.215431 -0.319122
N40   N     N_R   0.721868 0.367895 0.585335 0.250079
O39   O     O_R   0.656927 0.380907 0.670887 -0.335316
O40   O     O_R   0.760209 0.423845 0.520225 -0.366754

loop_
_geom_bond_atom_site_label_1
_geom_bond_atom_site_label_2
_geom_bond_distance
_ccdc_geom_bond_type
N25   Ni6   1.881243 S    
C40   C78   1.450742 S    
C27   N27   1.342962 A    
O9    H51   0.990676 S    
C1    C33   1.385799 A    
C30   H22   1.081486 S    
C4    S4    1.792074 S    
C29   H21   1.081635 S    
N35   O29   1.300840 A    
C10   H2    1.081435 S    
C3    N3    1.353483 A    
C24   H16   1.060304 S    
N5    Ni3   1.895998 S    
N29   Ni8   1.881243 S    
C55   C59   1.367206 A    
C18   N18   1.338239 A    
C31   H23   1.077571 S    
C26   N26   1.334104 A    
C27   H19   1.081490 S    
C25   H17   1.077840 S    
C49   N33   1.433424 S    
O18   H54   0.990884 S    
N3    N25   1.384449 A    
C50   N34   1.434009 S    
C22   C46   1.373010 A    
N19   Ni1   1.895629 S    
S6    O17   1.502249 D    
C22   N22   1.338335 A    
N11   N19   1.387115 A    
C63   H31   1.083988 S    
C6    S6    1.793726 S    
H35   C84   1.090717 S    
C18   C42   1.376668 A    
C23   N23   1.339577 A    
N4    Ni1   1.895747 S    
C50   C62   1.366876 A    
C45   C72   1.435969 S    
C33   C75   1.451285 S    
C49   C61   1.368627 A    
H33   C82   1.086400 S    
N1    Ni1   1.895998 S    
H39   C88   1.086516 S    
C14   N14   1.329396 A    
C59   C67   1.396809 A    
C27   C33   1.378925 A    
C51   C63   1.390911 A    
S7    O20   1.496297 D    
C60   H28   1.085764 S    
C3    C35   1.392129 A    
C2    S2    1.785364 S    
C50   C65   1.407078 A    
C57   C65   1.395531 A    
C16   H8    1.081863 S    
C37   C79   1.444836 S    
N21   Ni4   1.895885 S    
C53   C57   1.390421 A    
S2    O4    1.500627 D    
S3    O9    1.681140 S    
N2    N28   1.384445 A    
N8    Ni3   1.895747 S    
C1    S1    1.784202 S    
C75   H44   1.085844 S    
C15   C47   1.371073 A    
C54   N38   1.438332 S    
O15   H53   0.990666 S    
C6    C38   1.394805 A    
S6    O18   1.660973 S    
C8    C40   1.387325 A    
C73   H42   1.087492 S    
S7    O21   1.681809 S    
C28   C34   1.375865 A    
N39   O37   1.300257 A    
N27   Ni5   1.881124 S    
C43   C66   1.422615 S    
C4    N4    1.355791 A    
C11   H3    1.077570 S    
C41   C68   1.417766 S    
C5    N5    1.351862 A    
C81   C86   1.446042 S    
C19   N19   1.338127 A    
C77   H46   1.085811 S    
N7    N29   1.384449 A    
C52   C67   1.415932 A    
C32   C38   1.365036 A    
C5    C37   1.392597 A    
C20   H12   1.070409 S    
C7    N7    1.337613 A    
N17   Ni2   1.895885 S    
C21   H13   1.070782 S    
C8    N8    1.338880 A    
N8    N30   1.384454 A    
C55   C72   1.408813 A    
N39   O38   1.301349 A    
N5    N31   1.384450 A    
S5    O13   1.503173 D    
C56   C71   1.406193 A    
C9    N9    1.318931 A    
C83   C88   1.446744 S    
N23   Ni3   1.895629 S    
C17   H9    1.063873 S    
N34   O27   1.301298 A    
C32   N32   1.333360 A    
C60   C68   1.387389 A    
N24   Ni4   1.895629 S    
N16   Ni7   1.881919 S    
C61   C69   1.388177 A    
H34   C81   1.086817 S    
N40   O40   1.301029 A    
N6    Ni4   1.896002 S    
C17   N17   1.339406 A    
C23   C47   1.377522 A    
S6    O16   1.503144 D    
S7    O19   1.500643 D    
C28   N28   1.340981 A    
S4    O12   1.660049 S    
C1    N1    1.336536 A    
C58   C66   1.394535 A    
C7    S7    1.777602 S    
C77   C85   1.323827 D    
C11   C43   1.365425 A    
C5    S5    1.781301 S    
N22   Ni3   1.895888 S    
C12   H4    1.077433 S    
S1    O2    1.498235 D    
N33   O25   1.301041 A    
H38   C85   1.090848 S    
C13   H5    1.077589 S    
C62   C70   1.396627 A    
C56   N40   1.434663 S    
N28   Ni6   1.881127 S    
C82   C85   1.448959 S    
C74   H41   1.087631 S    
C52   N36   1.436305 S    
C16   C48   1.355666 A    
S2    O6    1.676298 S    
S4    O11   1.502322 D    
N7    Ni4   1.895748 S    
S5    O15   1.681185 S    
C30   C40   1.377772 A    
O24   H56   0.990503 S    
N26   Ni5   1.881241 S    
C54   C58   1.390630 A    
N37   O33   1.297638 A    
C6    N6    1.356596 A    
C26   H18   1.077434 S    
C10   N10   1.317207 A    
C78   H45   1.085888 S    
C25   N25   1.334504 A    
C12   C44   1.377558 A    
S8    O24   1.679169 S    
S1    O3    1.682024 S    
C22   H14   1.067786 S    
N3    Ni2   1.895748 S    
N38   O36   1.300921 A    
N4    N26   1.384454 A    
C63   C71   1.395072 A    
S8    O22   1.502334 D    
C64   C72   1.395434 A    
C62   H30   1.080513 S    
N11   Ni6   1.881916 S    
C21   C45   1.366818 A    
N1    N27   1.384450 A    
C30   N30   1.341940 A    
C31   N31   1.334963 A    
N32   Ni8   1.881127 S    
C55   N39   1.436342 S    
N15   Ni8   1.881916 S    
C64   H32   1.083970 S    
C18   H10   1.056340 S    
N36   O31   1.301641 A    
N36   O32   1.297862 A    
C79   H48   1.087407 S    
C48   C69   1.419031 S    
N10   Ni6   1.882040 S    
C80   H47   1.087682 S    
C17   C41   1.372202 A    
N2    Ni2   1.896002 S    
N9    Ni5   1.882040 S    
C46   C71   1.421704 S    
C34   C76   1.451901 S    
C2    N2    1.340004 A    
C47   C70   1.452696 S    
H40   C87   1.086822 S    
C29   N29   1.342507 A    
N13   N21   1.387115 A    
C78   C86   1.322013 D    
C23   H15   1.059189 S    
C61   H29   1.085810 S    
C25   C35   1.366062 A    
N40   O39   1.301432 A    
C57   H25   1.083887 S    
C38   C80   1.444086 S    
C2    C34   1.388046 A    
C14   H6    1.077506 S    
C59   H27   1.080564 S    
C39   C77   1.453616 S    
H36   C83   1.090783 S    
S1    O1    1.502461 D    
C74   C82   1.331968 D    
C84   C87   1.447325 S    
H37   C86   1.090521 S    
S8    O23   1.503098 D    
N12   N20   1.387115 A    
C3    S3    1.781615 S    
C26   C36   1.367930 A    
N35   O30   1.301456 A    
C35   C73   1.443636 S    
C31   C37   1.368966 A    
N20   Ni2   1.895629 S    
N9    N17   1.387115 A    
C28   H20   1.081648 S    
C7    C39   1.386291 A    
C42   C67   1.450953 S    
C76   H43   1.085885 S    
C14   C46   1.364808 A    
N34   O28   1.300062 A    
N18   Ni1   1.895888 S    
C75   C83   1.322934 D    
S4    O10   1.503169 D    
S5    O14   1.483090 D    
N30   Ni7   1.881241 S    
C9    H1    1.081862 S    
C13   C45   1.378105 A    
N37   O34   1.301604 A    
C11   N11   1.329928 A    
C19   C43   1.372689 A    
N31   Ni7   1.881124 S    
C20   C44   1.368645 A    
C19   H11   1.068127 S    
O6    H50   0.991022 S    
C9    C41   1.355872 A    
C20   N20   1.328417 A    
C21   N21   1.327846 A    
C15   N15   1.317588 A    
N16   N24   1.387115 A    
C54   C69   1.408165 A    
C53   N37   1.435786 S    
N38   O35   1.301697 A    
C16   N16   1.318635 A    
C79   C87   1.331798 D    
N15   N23   1.387115 A    
C53   C70   1.416290 A    
C80   C88   1.330480 D    
N33   O26   1.301411 A    
S2    O5    1.503024 D    
S3    O8    1.482028 D    
C24   N24   1.338449 A    
C44   C65   1.437586 S    
C51   N35   1.438468 S    
N6    N32   1.384445 A    
O12   H52   0.990827 S    
C12   N12   1.334550 A    
S3    O7    1.503113 D    
N13   Ni7   1.882040 S    
C13   N13   1.334048 A    
C51   C68   1.407151 A    
C76   C84   1.322428 D    
C32   H24   1.077846 S    
O21   H55   0.990523 S    
C52   C64   1.389240 A    
C29   C39   1.377477 A    
C73   C81   1.330847 D    
N12   Ni5   1.881919 S    
N10   N18   1.387115 A    
C49   C66   1.405945 A    
C36   C74   1.446515 S    
C10   C42   1.370394 A    
C4    C36   1.395315 A    
C8    S8    1.790824 S    
N14   Ni8   1.882040 S    
C58   H26   1.084084 S    
O3    H49   0.990513 S    
C56   C60   1.369172 A    
C15   H7    1.081407 S    
N14   N22   1.387115 A    
C24   C48   1.372769 A    
