data_mof_unit_35464.cif
_audit_creation_date              2012-12-10T17:40:07-0500
_audit_creation_method            fapswitch 2.2
_symmetry_space_group_name_H-M    P1
_symmetry_Int_Tables_number       1
_space_group_crystal_system       triclinic
_cell_length_a                    12.079391
_cell_length_b                    12.8682
_cell_length_c                    27.709422
_cell_angle_alpha                 91.857322
_cell_angle_beta                  83.746108
_cell_angle_gamma                 92.391621
_cell_volume                      4276.10755739

loop_
_atom_site_label
_atom_site_type_symbol
_atom_type_description
_atom_site_fract_x
_atom_site_fract_y
_atom_site_fract_z
_atom_type_partial_charge
C1    C     C_R   0.521324 0.700195 0.499352 0.888616
C2    C     C_R   0.501617 0.589711 0.129176 -0.119062
C3    C     C_R   0.490448 0.502767 0.647130 -0.147339
C4    C     C_R   0.507158 0.496340 0.353011 -0.128671
C5    C     C_R   0.484517 0.593032 0.028200 -0.090047
C6    C     C_R   0.498081 0.401568 0.972337 -0.090181
C7    C     C_R   0.515722 0.403651 0.022262 0.076236
C8    C     C_R   0.465842 0.590710 0.978442 0.075614
C9    C     C_R   0.503366 0.497959 0.050242 0.017556
C10   C     C_R   0.479170 0.496722 0.950361 0.015830
C11   C     C_R   0.490917 0.687285 0.056766 0.441100
C12   C     C_R   0.478677 0.299812 0.500708 0.887780
C13   C     C_R   0.493279 0.307658 0.943400 0.440842
C14   C     C_R   0.492528 0.683769 0.106787 -0.217758
C15   C     C_R   0.493940 0.311888 0.893275 -0.216150
C16   C     C_R   0.497690 0.500664 0.594080 0.911434
C17   C     C_R   0.502047 0.499236 0.405951 0.911791
C18   C     C_R   0.428396 0.677958 0.955980 -0.183155
C19   C     C_R   0.551741 0.316035 0.044959 -0.185285
C20   C     C_R   0.465977 0.188780 0.500233 -0.046676
C21   C     C_R   0.534009 0.811240 0.500007 -0.044846
C22   C     C_R   0.638937 0.968215 0.517623 -0.214886
C23   C     C_R   0.471352 0.497839 0.899702 -0.059423
C24   C     C_R   0.360967 0.031793 0.482760 -0.213902
C25   C     C_R   0.631549 0.860779 0.513876 -0.202258
C26   C     C_R   0.368340 0.139202 0.486507 -0.199201
C27   C     C_R   0.445254 0.867998 0.488578 -0.274007
C28   C     C_R   0.554769 0.132062 0.511679 -0.283877
C29   C     C_R   0.451211 0.974790 0.492802 0.185878
C30   C     C_R   0.548721 0.025245 0.507563 0.185704
C31   C     C_R   0.965576 0.415623 0.447202 0.102684
C32   C     C_R   0.033992 0.569957 0.556478 0.118912
C33   C     C_R   0.846005 0.417208 0.454702 0.237035
C34   C     C_R   0.512451 0.497368 0.100822 -0.059463
C35   C     C_R   0.152990 0.575855 0.547310 0.255069
C36   C     C_R   0.853247 0.531443 0.523389 -0.100254
C37   C     C_R   0.147531 0.468779 0.476366 -0.087839
C38   C     C_R   0.971488 0.523882 0.520568 -0.016842
C39   C     C_R   0.028602 0.469929 0.480760 -0.022731
C40   C     C_R   0.449910 0.591746 0.827082 0.482905
C41   C     C_R   0.534606 0.404100 0.173553 0.488853
C42   C     C_R   0.484235 0.410382 0.820721 0.588216
C43   C     C_R   0.504767 0.586332 0.179409 0.600960
C44   C     C_R   0.375641 0.496282 0.725204 0.150694
C45   C     C_R   0.449600 0.590719 0.877540 0.013760
C46   C     C_R   0.616838 0.500169 0.274101 0.159416
C47   C     C_R   0.385428 0.495394 0.674342 -0.212004
C48   C     C_R   0.610695 0.501235 0.324715 -0.247909
C49   C     C_R   0.587018 0.512799 0.670728 -0.327817
C50   C     C_R   0.408737 0.488417 0.330525 -0.330581
C51   C     C_R   0.579176 0.516268 0.721280 0.515459
C52   C     C_R   0.413300 0.483756 0.280003 0.500905
C53   C     C_R   0.474170 0.505860 0.748294 0.157712
C54   C     C_R   0.517048 0.491837 0.251902 0.192163
C55   C     C_3   0.217066 0.650948 0.578516 -0.382706
C56   C     C_R   0.533150 0.404407 0.123166 0.010249
C57   C     C_3   0.191795 0.764274 0.570223 -0.905611
C58   C     C_3   0.779293 0.345281 0.422790 -0.360451
C59   C     C_3   0.791195 0.229448 0.431549 -0.870454
C60   C     C_3   0.026239 0.356453 0.403762 -0.391986
C61   C     C_3   0.073307 0.254173 0.418258 -0.872362
C62   C     C_3   0.974060 0.604411 0.605710 -0.454985
C63   C     C_3   0.927525 0.510080 0.634600 -0.849538
C64   C     C_3   0.714898 0.626349 0.746041 0.067802
C65   C     C_3   0.813050 0.635069 0.776161 -0.795321
C66   C     C_3   0.264883 0.380034 0.262382 0.081614
C67   C     C_R   0.424601 0.679240 0.906236 -0.188937
C68   C     C_3   0.166366 0.371942 0.232475 -0.794006
C69   C     C_3   0.730120 0.509342 0.244976 -0.395494
C70   C     C_3   0.779949 0.619924 0.248415 -0.835360
C71   C     C_3   0.263377 0.485669 0.755955 -0.364217
C72   C     C_3   0.160674 0.475865 0.728022 -0.893800
C73   C     C_3   0.613873 0.807494 0.021343 0.074070
C74   C     C_3   0.624547 0.912576 0.997318 -0.777843
C75   C     C_3   0.369764 0.186617 0.977725 0.073292
C76   C     C_3   0.358585 0.080821 0.001086 -0.778393
C77   C     C_R   0.555845 0.315134 0.094690 -0.187536
C78   C     C_R   0.484799 0.406156 0.871071 -0.116760
H1    H     H_    0.668446 0.518219 0.650144 0.177473
H2    H     H_    0.579668 0.244637 0.110557 0.191606
H3    H     H_    0.687180 0.507379 0.341923 0.169597
H4    H     H_    0.311774 0.487479 0.655457 0.182174
H5    H     H_    0.491810 0.756471 0.127676 0.209352
H6    H     H_    0.496311 0.239523 0.872119 0.210120
H7    H     H_    0.397420 0.745595 0.976021 0.212276
H8    H     H_    0.581643 0.247743 0.025189 0.213215
H9    H     H_    0.629144 0.171053 0.523282 0.166685
H10   H     H_    0.371206 0.829066 0.476669 0.159499
H11   H     H_    0.209419 0.781537 0.531096 0.263321
H12   H     H_    0.328205 0.486027 0.351990 0.170787
H13   H     H_    0.103636 0.781219 0.582016 0.253752
H14   H     H_    0.245461 0.817057 0.591044 0.263255
H15   H     H_    0.202025 0.631916 0.617466 0.174568
H16   H     H_    0.306167 0.646834 0.570566 0.276634
H17   H     H_    0.858815 0.196644 0.406180 0.267047
H18   H     H_    0.806559 0.216667 0.469674 0.257841
H19   H     H_    0.713484 0.185025 0.424407 0.252346
H20   H     H_    0.691554 0.356475 0.429215 0.274477
H21   H     H_    0.798679 0.362996 0.383816 0.157551
H22   H     H_    0.157226 0.266237 0.430455 0.240170
H23   H     H_    0.299212 0.183329 0.477668 0.157813
H24   H     H_    0.018222 0.216882 0.447984 0.269767
H25   H     H_    0.081389 0.199383 0.386378 0.245684
H26   H     H_    0.972915 0.338431 0.374474 0.207730
H27   H     H_    0.093933 0.406677 0.385351 0.182548
H28   H     H_    0.864776 0.464565 0.615445 0.265572
H29   H     H_    0.996211 0.458750 0.640545 0.264127
H30   H     H_    0.887152 0.536270 0.670517 0.264464
H31   H     H_    0.027608 0.648950 0.629370 0.224087
H32   H     H_    0.907264 0.658567 0.601088 0.190888
H33   H     H_    0.649682 0.678716 0.763155 0.182051
H34   H     H_    0.700612 0.816598 0.522797 0.157325
H35   H     H_    0.743699 0.653049 0.708780 0.134638
H36   H     H_    0.880344 0.584260 0.760078 0.253776
H37   H     H_    0.846216 0.716814 0.777081 0.210527
H38   H     H_    0.785842 0.611109 0.813899 0.260914
H39   H     H_    0.233154 0.365859 0.300950 0.133577
H40   H     H_    0.323763 0.318457 0.248818 0.171560
H41   H     H_    0.195425 0.384533 0.193588 0.260642
H42   H     H_    0.124971 0.293461 0.236052 0.205541
H43   H     H_    0.105076 0.431372 0.245519 0.255147
H44   H     H_    0.724342 0.675673 0.234312 0.286004
H45   H     H_    0.714108 0.006461 0.528732 0.141241
H46   H     H_    0.791833 0.642009 0.286641 0.257615
H47   H     H_    0.862304 0.624767 0.226320 0.248820
H48   H     H_    0.786914 0.454277 0.258838 0.204174
H49   H     H_    0.725970 0.488240 0.206079 0.214077
H50   H     H_    0.154742 0.545927 0.706184 0.257398
H51   H     H_    0.163673 0.404869 0.704098 0.264946
H52   H     H_    0.084395 0.469313 0.754176 0.260813
H53   H     H_    0.263388 0.415951 0.778601 0.214126
H54   H     H_    0.253418 0.554815 0.780849 0.230403
H55   H     H_    0.648240 0.747994 0.994272 0.150395
H56   H     H_    0.285774 0.993552 0.471670 0.142280
H57   H     H_    0.664131 0.811600 0.052818 0.148391
H58   H     H_    0.592446 0.974169 0.023547 0.259921
H59   H     H_    0.713438 0.931576 0.984995 0.208268
H60   H     H_    0.576194 0.910380 0.965395 0.256985
H61   H     H_    0.320445 0.183381 0.945949 0.148895
H62   H     H_    0.334616 0.245371 0.004990 0.150524
H63   H     H_    0.406041 0.082087 0.033271 0.257054
H64   H     H_    0.269504 0.061483 0.012881 0.208221
H65   H     H_    0.391390 0.019954 0.974622 0.259819
H66   H     H_    0.194707 0.429525 0.446638 0.159354
H67   H     H_    0.807798 0.577227 0.551530 0.154857
H68   H     H_    0.399833 0.749524 0.890500 0.191843
N1    N     N_R   0.468840 0.502641 0.799919 -0.337032
N2    N     N_R   0.519409 0.494137 0.200395 -0.334593
N3    N     N_R   0.207800 0.519340 0.508990 -0.135459
N4    N     N_R   0.792200 0.480660 0.491010 -0.133078
O1    O     O_R   0.421700 0.658820 0.502400 -0.635499
O2    O     O_2   0.551032 0.314944 0.195666 -0.587297
O3    O     O_2   0.492988 0.674129 0.207194 -0.556594
O4    O     O_2   0.499115 0.323317 0.792646 -0.552334
O5    O     O_3   0.674567 0.521859 0.744765 -0.597028
O6    O     O_3   0.316478 0.480184 0.257451 -0.595888
O7    O     O_3   0.500484 0.784705 0.036881 -0.632013
O8    O     O_3   0.483402 0.209880 0.962896 -0.632236
O9    O     O_R   0.578300 0.341180 0.497600 -0.632452
O10   O     O_R   0.609310 0.646410 0.496630 -0.622473
O11   O     O_R   0.390690 0.353590 0.503370 -0.621535
O12   O     O_R   0.406200 0.506190 0.574130 -0.654668
O13   O     O_R   0.593800 0.493810 0.425870 -0.656545
O14   O     O_R   0.593820 0.493770 0.568360 -0.618128
O15   O     O_R   0.406180 0.506230 0.431640 -0.622672
O16   O     O_2   0.432071 0.680841 0.805212 -0.592743
Zn1   Zn    Zn3+2 0.374730 0.508290 0.503850 0.929879
Zn2   Zn    Zn3+2 0.625270 0.491710 0.496150 0.929619

loop_
_geom_bond_atom_site_label_1
_geom_bond_atom_site_label_2
_ccdc_geom_bond_type
C66   C68   S    
C34   C56   A    
C33   C58   S    
C23   C45   A    
C57   H14   S    
C27   C29   A    
C65   H36   S    
C58   H20   S    
C55   H15   S    
C19   H8    S    
C3    C49   A    
C72   H51   S    
C41   O2    S    
C16   O14   A    
C1    C21   S    
C74   H60   S    
C64   O5    S    
C51   O5    S    
C29   C30   A    
C57   H11   S    
C72   H50   S    
C11   O7    S    
C42   O4    S    
C24   C26   A    
C5    C11   A    
C33   N4    A    
C68   H41   S    
C38   C39   A    
C11   C14   A    
C15   C78   A    
C73   O7    S    
C53   N1    S    
C48   H3    S    
C44   C71   S    
C73   C74   S    
C47   H4    S    
C3    C47   A    
C19   C77   A    
C24   C29   A    
C46   C69   S    
C43   N2    A    
C17   O13   A    
C25   H34   S    
C71   H54   S    
C44   C53   A    
C50   H12   S    
C73   H57   S    
C49   C51   A    
C66   H39   S    
C74   H58   S    
C45   C67   A    
C50   C52   A    
C31   C33   A    
C32   C38   A    
C22   C30   A    
C40   O16   S    
C44   C47   A    
C76   H63   S    
C2    C34   A    
C21   C27   A    
O15   Zn1   S    
C65   H37   S    
C12   C20   S    
C69   C70   S    
C59   H17   S    
C14   H5    S    
C28   H9    S    
C55   H16   S    
C42   N1    A    
C52   C54   A    
C6    C7    A    
C40   C45   A    
C74   H59   S    
C46   C48   A    
C18   H7    S    
C35   C55   S    
C32   C35   A    
O14   Zn2   S    
C64   H33   S    
C20   C28   A    
C16   O12   A    
C58   C59   S    
C22   C25   A    
C8    C18   A    
C56   C77   A    
C49   H1    S    
C4    C50   A    
C60   C61   S    
C51   C53   A    
C31   C60   S    
C75   C76   S    
C41   C56   A    
C5    C9    A    
C62   C63   S    
C70   H44   S    
C62   H32   S    
C2    C43   A    
N4    Zn2   S    
C46   C54   A    
C67   H68   S    
C12   O11   A    
C63   H28   S    
O11   Zn1   S    
C4    C17   S    
C75   O8    S    
C8    C10   A    
C73   H55   S    
C69   H48   S    
C42   C78   A    
C7    C19   A    
C55   C57   S    
C9    C34   A    
C59   H19   S    
C65   H38   S    
C61   H22   S    
C59   H18   S    
C63   H29   S    
C13   O8    S    
N3    Zn1   S    
C70   H47   S    
C54   N2    S    
C4    C48   A    
C77   H2    S    
C24   H56   S    
C7    C9    A    
O9    Zn2   S    
C21   C25   A    
C64   H35   S    
C57   H13   S    
C40   N1    A    
C61   H25   S    
C1    O10   A    
C58   H21   S    
C37   N3    A    
C68   H43   S    
C6    C10   A    
C5    C8    A    
C61   H24   S    
C72   H52   S    
C15   H6    S    
C10   C23   A    
C52   O6    S    
C75   H62   S    
C64   C65   S    
C13   C15   A    
O13   Zn2   S    
C18   C67   A    
C32   C62   S    
C28   C30   A    
C26   H23   S    
C22   H45   S    
C17   O15   A    
C68   H42   S    
C6    C13   A    
C66   O6    S    
C36   N4    A    
C41   N2    A    
C20   C26   A    
O1    Zn1   S    
C36   C38   A    
C31   C39   A    
C1    O1    A    
C37   H66   S    
O10   Zn2   S    
C23   C78   A    
C27   H10   S    
C2    C14   A    
C3    C16   S    
C71   H53   S    
O12   Zn1   S    
C76   H65   S    
C70   H46   S    
C36   H67   S    
C71   C72   S    
C69   H49   S    
C37   C39   A    
C66   H40   S    
C75   H61   S    
C35   N3    A    
C63   H30   S    
C60   H26   S    
C43   O3    S    
C60   H27   S    
C76   H64   S    
C62   H31   S    
C12   O9    A    
