data_mof_unit_67274.cif
_audit_creation_date              2013-03-05T16:01:57-0500
_audit_creation_method            fapswitch 2.2
_symmetry_space_group_name_H-M    P1
_symmetry_Int_Tables_number       1
_space_group_crystal_system       triclinic
_cell_length_a                    8.523187
_cell_length_b                    14.635251
_cell_length_c                    15.116939
_cell_angle_alpha                 95.608077
_cell_angle_beta                  97.668822
_cell_angle_gamma                 93.30082
_cell_volume                      1855.08789746

loop_
_atom_site_label
_atom_site_type_symbol
_atom_site_description
_atom_site_fract_x
_atom_site_fract_y
_atom_site_fract_z
_atom_type_partial_charge
P1    P     P_3+3 0.018620 0.416870 0.295980 0.528225
O1    O     O_2   0.841250 0.444240 0.280450 -0.313237
O2    O     O_3   0.112870 0.447390 0.393710 -0.345566
O3    O     O_3   0.597960 0.615760 0.327700 -0.326920
O4    O     O_2   0.660007 0.522632 0.181446 -0.244664
O5    O     O_3   0.980166 0.298251 0.270075 -0.638360
O6    O     O_3   0.653779 0.694394 0.162513 -0.579222
C1    C     C_3   0.582605 0.835735 0.093588 -0.740889
H1    H     H_    0.694874 0.878654 0.105640 0.283100
P2    P     P_3+3 0.635650 0.716500 0.560900 0.529068
P3    P     P_3+3 0.039492 0.786651 0.380573 0.643725
O7    O     O_2   0.802240 0.729720 0.532850 -0.260234
O8    O     O_3   0.017190 0.664840 0.371090 -0.367913
O9    O     O_2   0.913482 0.826538 0.434519 -0.276892
O10   O     O_3   0.681353 0.731017 0.677143 -0.531764
O11   O     O_3   0.983641 0.824534 0.274309 -0.480793
C2    C     C_3   0.061880 0.775532 0.210784 0.551508
H2    H     H_    0.024372 0.700777 0.207601 0.024107
C3    C     C_3   0.014775 0.803442 0.115604 -0.109993
H3    H     H_    0.885456 0.788997 0.100121 0.170099
C4    C     C_3   0.244517 0.773629 0.733602 0.272070
C5    C     C_3   0.195647 0.855851 0.793605 -0.614573
H4    H     H_    0.066202 0.863345 0.778568 0.281280
H5    H     H_    0.217716 0.842106 0.865192 0.188563
Ba1   Ba    Ba6+2 0.833410 0.543320 0.453520 1.750410
C6    C     C_3   0.104441 0.247999 0.303897 0.603557
H6    H     H_    0.220652 0.289195 0.316801 0.073071
C7    C     C_3   0.118046 0.167634 0.231960 -0.730340
H7    H     H_    0.998370 0.143753 0.195774 0.263723
H8    H     H_    0.188588 0.192267 0.181168 0.212655
C8    C     C_3   0.764413 0.658000 0.707572 0.386703
H9    H     H_    0.870349 0.650362 0.673579 0.135231
H10   H     H_    0.688032 0.592594 0.695417 0.103687
C9    C     C_3   0.815663 0.680139 0.808010 -0.654026
H11   H     H_    0.831944 0.755711 0.826738 0.307499
H12   H     H_    0.929475 0.652315 0.828579 0.217491
H13   H     H_    0.728459 0.648405 0.846180 0.272387
P4    P     P_3+3 0.171070 0.583210 0.704020 0.538989
O12   O     O_2   0.348460 0.555790 0.719610 -0.356332
O13   O     O_3   0.076820 0.552690 0.606290 -0.327155
O14   O     O_3   0.591740 0.384320 0.672310 -0.438246
O15   O     O_3   0.153258 0.696749 0.752628 -0.577152
P5    P     P_3+3 0.135210 0.218512 0.643082 0.472695
O16   O     O_3   0.629090 0.386360 0.459240 -0.346370
O17   O     O_3   0.172500 0.335240 0.628910 -0.374700
O18   O     O_2   0.241759 0.167384 0.582177 -0.360555
O19   O     O_3   0.205114 0.186462 0.751554 -0.582337
Ba2   Ba    Ba6+2 0.356410 0.456750 0.546480 1.662408
P6    P     P_3+3 0.559245 0.601798 0.208636 0.603004
C10   C     C_3   0.568082 0.774028 0.169629 0.706021
H14   H     H_    0.441817 0.752974 0.158416 0.003452
H15   H     H_    0.488198 0.884686 0.093325 0.247140
O20   O     O_3   0.560600 0.613720 0.540760 -0.426447
C11   C     C_3   0.621053 0.259535 0.276305 0.567305
H16   H     H_    0.732056 0.288849 0.318195 0.073462
C12   C     C_3   0.665779 0.182614 0.209081 -0.095911
H17   H     H_    0.736289 0.211625 0.160310 0.159639
H18   H     H_    0.741971 0.136676 0.247323 0.161201
P7    P     P_3+3 0.559551 0.267429 0.441552 0.467525
O21   O     O_2   0.387470 0.270310 0.467210 -0.344875
O22   O     O_3   0.515832 0.221828 0.328719 -0.648220
C13   C     C_3   0.165018 0.241387 0.827689 0.140690
C14   C     C_3   0.209203 0.191270 0.913653 -0.513173
H19   H     H_    0.336748 0.178636 0.922436 0.219211
H20   H     H_    0.191097 0.236476 0.974687 0.236419
P8    P     P_3+3 0.637999 0.396977 0.787662 0.525277
C15   C     C_3   0.580907 0.222026 0.749899 0.309354
H21   H     H_    0.689010 0.223651 0.716829 0.017559
O23   O     O_2   0.520488 0.462602 0.823252 -0.360402
O24   O     O_3   0.593552 0.289399 0.824515 -0.442314
H22   H     H_    0.478927 0.233796 0.699850 0.124419
C16   C     C_3   0.552637 0.125744 0.777225 -0.074651
H23   H     H_    0.529884 0.075486 0.716100 0.100447
H24   H     H_    0.447245 0.122598 0.811438 0.152075
C17   C     C_R   0.348404 0.554758 0.165561 0.202530
H25   H     H_    0.314870 0.523562 0.297869 0.156024
H26   H     H_    0.482257 0.606524 0.025845 0.175524
C18   C     C_R   0.113587 0.472342 0.205868 0.173853
C19   C     C_R   0.937466 0.469400 0.764721 -0.637443
C20   C     C_R   0.840625 0.446546 0.828117 0.168948
C21   C     C_R   0.893474 0.465082 0.920899 0.235901
C22   C     C_R   0.054364 0.495219 0.951973 -0.029147
C23   C     C_R   0.146739 0.527234 0.886416 -0.037644
C24   C     C_R   0.123498 0.500605 0.046434 0.130341
C25   C     C_R   0.279095 0.544513 0.073588 -0.022311
C26   C     C_R   0.362964 0.576185 0.008212 -0.152035
C27   C     C_R   0.297828 0.569251 0.918295 -0.000073
C28   C     C_R   0.048015 0.459942 0.114211 -0.213557
C29   C     C_R   0.261302 0.520286 0.229244 -0.273673
C30   C     C_R   0.085673 0.516231 0.791139 0.197880
H27   H     H_    0.942275 0.414589 0.097452 0.199703
H28   H     H_    0.890012 0.458721 0.694158 0.186302
H29   H     H_    0.371795 0.595080 0.874038 0.214083
C31   C     C_R   0.690137 0.948056 0.572713 0.345640
C32   C     C_R   0.506067 0.805607 0.512903 0.131156
C33   C     C_R   0.355846 0.772044 0.465684 -0.377199
C34   C     C_R   0.241513 0.832138 0.436149 0.273592
C35   C     C_R   0.282132 0.926389 0.446231 -0.145880
C36   C     C_R   0.435653 0.962102 0.483389 0.073433
C37   C     C_R   0.546373 0.903970 0.523950 -0.121084
C38   C     C_R   0.626861 0.096941 0.518701 -0.038855
C39   C     C_R   0.733430 0.042178 0.566230 -0.061787
C40   C     C_R   0.673274 0.191426 0.513551 0.186082
C41   C     C_R   0.821594 0.228953 0.557228 -0.350150
C42   C     C_R   0.929181 0.173832 0.600115 0.262265
C43   C     C_R   0.883767 0.082514 0.606612 -0.137995
C44   C     C_R   0.476818 0.056317 0.480714 -0.100523
H30   H     H_    0.193672 0.972083 0.423670 0.178890
H31   H     H_    0.969824 0.044140 0.643086 0.232225
H32   H     H_    0.856603 0.300668 0.553969 0.168367
H33   H     H_    0.390201 0.097557 0.448241 0.151225
N1    N     N_R   0.618666 0.828132 0.257546 0.286819
O25   O     O_R   0.603734 0.792268 0.331294 -0.331545
O26   O     O_R   0.679795 0.912542 0.263910 -0.298849
C45   C     C_2   0.285228 0.945039 0.784691 0.374963
H34   H     H_    0.390835 0.967586 0.831794 0.085701
O27   O     O_2   0.242668 0.990508 0.723493 -0.549869
N2    N     N_R   0.064520 0.217037 0.387478 0.209032
O28   O     O_R   0.970021 0.143660 0.386223 -0.438422
O29   O     O_R   0.072987 0.279394 0.455214 -0.356036
C46   C     C_2   0.192720 0.087343 0.269776 0.842175
H35   H     H_    0.317820 0.090734 0.294283 0.049536
O30   O     O_2   0.111044 0.017181 0.273714 -0.481396
N3    N     N_R   0.545863 0.333175 0.231876 0.227973
O31   O     O_R   0.534943 0.336514 0.145567 -0.320337
O32   O     O_R   0.496323 0.399964 0.281262 -0.416243
N4    N     N_R   0.526051 0.128133 0.160836 0.276138
O33   O     O_R   0.443473 0.157956 0.092197 -0.344846
O34   O     O_R   0.498245 0.043733 0.177395 -0.322993
C47   C     C_2   0.563263 0.784635 0.002453 0.689013
H36   H     H_    0.448686 0.752157 0.972770 -0.009569
O35   O     O_2   0.674321 0.783479 0.959470 -0.512358
N5    N     N_R   0.055378 0.900987 0.108099 0.298641
O36   O     O_R   0.944107 0.958079 0.101955 -0.285155
O37   O     O_R   0.194868 0.927969 0.090260 -0.351952
C48   C     C_2   0.261141 0.331948 0.840445 0.548937
H37   H     H_    0.262868 0.372510 0.784909 0.067040
O38   O     O_2   0.336974 0.361635 0.913038 -0.498191
C49   C     C_2   0.992362 0.260941 0.818697 0.479599
H38   H     H_    0.935539 0.283316 0.757326 -0.056496
O39   O     O_2   0.917201 0.257744 0.881863 -0.526019
C50   C     C_2   0.115538 0.101559 0.913777 0.821980
H39   H     H_    0.099062 0.051734 0.855449 0.069718
O40   O     O_2   0.054577 0.084833 0.979533 -0.460840
N6    N     N_R   0.688123 0.100165 0.836056 0.297777
O41   O     O_R   0.676759 0.088864 0.919327 -0.274496
O42   O     O_R   0.813956 0.076950 0.802238 -0.397664
N7    N     N_R   0.777006 0.472421 0.980662 0.235240
O43   O     O_R   0.686688 0.401085 0.992258 -0.253863
O44   O     O_R   0.759976 0.552186 0.022756 -0.366004
C51   C     C_2   0.318229 0.672523 0.447659 0.715872
H40   H     H_    0.372720 0.634406 0.398101 0.039546
O45   O     O_2   0.238729 0.631067 0.493708 -0.506365
N8    N     N_R   0.231565 0.789630 0.237357 0.157073
O46   O     O_R   0.300820 0.872295 0.250473 -0.354276
O47   O     O_R   0.303398 0.722924 0.271293 -0.582486
N9    N     N_R   0.784434 0.902641 0.637460 0.236526
O48   O     O_R   0.926868 0.884649 0.623984 -0.380762
O49   O     O_R   0.750449 0.907948 0.718973 -0.388397
C52   C     C_2   0.087396 0.744178 0.047755 0.490331
H41   H     H_    0.214736 0.747157 0.048722 -0.013810
O50   O     O_2   0.002941 0.692548 0.990708 -0.566563
C53   C     C_2   0.418958 0.769452 0.758076 0.448661
H42   H     H_    0.497011 0.823546 0.740443 0.068185
O51   O     O_2   0.474065 0.712345 0.803630 -0.564749
C54   C     C_2   0.206156 0.790998 0.638396 0.592674
H43   H     H_    0.266749 0.848658 0.614619 -0.066519
O52   O     O_2   0.100746 0.744996 0.588889 -0.478915

loop_
_geom_bond_atom_site_label_1
_geom_bond_atom_site_label_2
_geom_bond_distance
_ccdc_geom_bond_type
C38   C44   1.402993 A    
C23   C27   1.397848 A    
C14   H20   1.115018 S    
N9    O48   1.294971 A    
C4    C53   1.489709 S    
C9    H13   1.108223 S    
P3    O8    1.771605 S    
C3    H3    1.099538 S    
O8    Ba1   2.793307 S    
O19   C13   1.429471 S    
N1    O26   1.302346 A    
C34   C35   1.391266 A    
P8    O24   1.758352 S    
C25   C26   1.393721 A    
C6    H6    1.113246 S    
C38   C39   1.416270 A    
C3    C52   1.498252 S    
C7    H7    1.111071 S    
C53   O51   1.210243 D    
N7    O44   1.299133 A    
P4    O15   1.773220 S    
P2    O10   1.737698 S    
Ba1   O13   2.878002 S    
N6    O41   1.301034 A    
P4    O12   1.579799 D    
C20   C21   1.409503 A    
P3    O9    1.540190 D    
P8    O23   1.539037 D    
O11   C2    1.404479 S    
O16   P7    1.788955 S    
C16   N6    1.450983 S    
C27   H29   1.059480 S    
O2    Ba2   2.878690 S    
C35   H30   1.079819 S    
C12   H17   1.111334 S    
C9    H11   1.110549 S    
P5    C42   1.847550 S    
C12   N4    1.459841 S    
C13   C48   1.499292 S    
P2    O20   1.585002 S    
N2    O28   1.301787 A    
N1    O25   1.295801 A    
C19   C30   1.391784 A    
C17   C25   1.426319 A    
C8    H9    1.102746 S    
C1    H1    1.097852 S    
C45   O27   1.220176 D    
C15   H22   1.106710 S    
C51   H40   1.062614 S    
C8    H10   1.111661 S    
C39   C43   1.413036 A    
C13   C49   1.506194 S    
C1    H15   1.107619 S    
N8    O47   1.293835 A    
P4    Ba2   3.474438 S    
H25   C29   1.071596 S    
P7    O21   1.568161 D    
N9    O49   1.299025 A    
P4    O13   1.593871 S    
C4    C5    1.545808 S    
C54   O52   1.213657 D    
P1    C18   1.898590 S    
O4    P6    1.537730 D    
C2    N8    1.445672 S    
Ba1   O16   2.816980 S    
C41   C42   1.393092 A    
N6    O42   1.296684 A    
Ba2   O21   2.912057 S    
C5    H4    1.110322 S    
C18   C29   1.390455 A    
Ba2   O20   2.816459 S    
C11   C12   1.540964 S    
P7    O22   1.752961 S    
C46   H35   1.077723 S    
C15   H21   1.105517 S    
C24   C28   1.438344 A    
O2    Ba1   3.028820 S    
C24   C25   1.430106 A    
O6    P6    1.783444 S    
C48   O38   1.223087 D    
C7    C46   1.494327 S    
C48   H37   1.075705 S    
C10   H14   1.088469 S    
C33   C51   1.464180 S    
C21   C22   1.419011 A    
C4    C54   1.482690 S    
C14   H19   1.105894 S    
P1    O2    1.593871 S    
C52   O50   1.215375 D    
O14   Ba2   2.895794 S    
C47   O35   1.217519 D    
N4    O34   1.298903 A    
C13   C14   1.567175 S    
N5    O36   1.299659 A    
P3    O11   1.764895 S    
C36   C37   1.424897 A    
C28   H27   1.074375 S    
C31   C37   1.426892 A    
C21   N7    1.430304 S    
C33   C34   1.407755 A    
C10   N1    1.476907 S    
C2    H2    1.116606 S    
N8    O46   1.300400 A    
C8    C9    1.520397 S    
N7    O43   1.300972 A    
P5    O17   1.758558 S    
Ba1   Ba2   4.624761 S    
P6    C17   1.893389 S    
P2    O7    1.542199 D    
P2    Ba1   3.509698 S    
C16   H24   1.095628 S    
C5    C45   1.500652 S    
H26   C26   1.074498 S    
C35   C36   1.403045 A    
C31   N9    1.422829 S    
C22   C24   1.463075 A    
C1    C47   1.486023 S    
C54   H43   1.080120 S    
C5    H5    1.113353 S    
N4    O33   1.300567 A    
C1    C10   1.542815 S    
C40   C41   1.400743 A    
C15   C16   1.521684 S    
C36   C44   1.408884 A    
N3    O32   1.296200 A    
O17   Ba2   2.793860 S    
C18   C28   1.413371 A    
O13   Ba2   3.029835 S    
C23   C30   1.454723 A    
C11   N3    1.459260 S    
C11   H16   1.104728 S    
C19   H28   1.082058 S    
C4    O15   1.405663 S    
C26   C27   1.389701 A    
C44   H33   1.078325 S    
C6    N2    1.458214 S    
O6    C10   1.413466 S    
Ba1   O20   3.006017 S    
C16   H23   1.111457 S    
C49   H38   1.077133 S    
P1    Ba1   3.473726 S    
O10   C8    1.396792 S    
O14   P8    1.724958 S    
C11   O22   1.398122 S    
C3    N5    1.468306 S    
P8    C20   1.835755 S    
C42   C43   1.386305 A    
P4    C30   1.910786 S    
C6    C7    1.542328 S    
O7    Ba1   2.912020 S    
P3    C34   1.867195 S    
C15   O24   1.412117 S    
P7    C40   1.854883 S    
C52   H41   1.081791 S    
C7    H8    1.110560 S    
O3    Ba1   2.896413 S    
C32   C33   1.416067 A    
O3    P6    1.775405 S    
C41   H32   1.082140 S    
C49   O39   1.221850 D    
O5    C6    1.393885 S    
P2    C32   1.893114 S    
C32   C37   1.448796 A    
P1    O1    1.579358 D    
C2    C3    1.542015 S    
C14   C50   1.497096 S    
C12   H18   1.110842 S    
C47   H36   1.081138 S    
O1    Ba1   2.875489 S    
C9    H12   1.092344 S    
C51   O45   1.213642 D    
P5    O18   1.548891 D    
N2    O29   1.294842 A    
C46   O30   1.217882 D    
C53   H42   1.080884 S    
C17   C29   1.405333 A    
C19   C20   1.397689 A    
O16   Ba2   3.005023 S    
C31   C39   1.421533 A    
C38   C40   1.428630 A    
C22   C23   1.441543 A    
P1    O5    1.744096 S    
N5    O37   1.301710 A    
C50   H39   1.076305 S    
O12   Ba2   2.876193 S    
P5    O19   1.784819 S    
C50   O40   1.220138 D    
C45   H34   1.083935 S    
N3    O31   1.301519 A    
C43   H31   1.075840 S    
