data_mof_unit_63800.cif
_audit_creation_date              2012-12-10T16:46:19-0500
_audit_creation_method            fapswitch 2.2
_symmetry_space_group_name_H-M    P1
_symmetry_Int_Tables_number       1
_space_group_crystal_system       triclinic
_cell_length_a                    18.507369
_cell_length_b                    18.507203
_cell_length_c                    34.506417
_cell_angle_alpha                 89.999777
_cell_angle_beta                  89.999751
_cell_angle_gamma                 90.000633
_cell_volume                      11819.1253578

loop_
_atom_site_label
_atom_site_type_symbol
_atom_type_description
_atom_site_fract_x
_atom_site_fract_y
_atom_site_fract_z
_atom_type_partial_charge
C1    C     C_R   0.500000 1.000000 0.605727 0.811393
C2    C     C_R   0.074914 0.607915 0.228631 -0.216362
C3    C     C_R   0.535905 0.054888 0.668053 -0.255361
C4    C     C_R   0.445128 0.035929 0.168054 -0.255358
C5    C     C_R   0.964029 0.445154 0.168053 -0.255552
C6    C     C_R   0.554871 0.964070 0.168053 -0.255358
C7    C     C_R   0.035971 0.554845 0.168053 -0.255552
C8    C     C_R   1.000000 0.500000 0.647905 -0.032829
C9    C     C_R   0.500000 1.000000 0.647906 -0.033067
C10   C     C_R   0.500000 1.000000 0.147906 -0.033052
C11   C     C_R   0.000000 0.500000 0.147906 -0.032734
C12   C     C_R   0.054689 0.463052 0.708476 0.115308
C13   C     C_R   0.392031 0.074833 0.228631 -0.216270
C14   C     C_R   0.537042 0.054626 0.708477 0.115312
C15   C     C_R   0.945310 0.536947 0.708476 0.115308
C16   C     C_R   0.462959 0.945373 0.708478 0.115312
C17   C     C_R   0.554609 0.962933 0.208478 0.115314
C18   C     C_R   0.037108 0.554582 0.208478 0.115339
C19   C     C_R   0.445391 0.037066 0.208478 0.115314
C20   C     C_R   0.962893 0.445418 0.208478 0.115340
C21   C     C_R   1.000000 0.500000 0.728968 0.080760
C22   C     C_R   0.500000 1.000000 0.728969 0.080731
C23   C     C_R   0.500000 1.000000 0.228969 0.080727
C24   C     C_R   0.925086 0.392085 0.228632 -0.216362
C25   C     C_R   1.000000 0.500000 0.228969 0.080729
C26   C     C_1   0.603317 0.913913 0.351814 0.188261
C27   C     C_1   0.086136 0.603276 0.351816 0.188399
C28   C     C_1   0.396684 0.086088 0.351814 0.188262
C29   C     C_1   0.913863 0.396725 0.351817 0.188399
C30   C     C_1   0.103479 0.414102 0.851807 0.188562
C31   C     C_1   0.586043 0.103357 0.851812 0.188288
C32   C     C_1   0.896522 0.585900 0.851807 0.188563
C33   C     C_1   0.413955 0.896645 0.851813 0.188287
C34   C     C_R   0.607337 0.923572 0.268913 -0.198523
C35   C     C_R   0.076504 0.607284 0.268913 -0.198517
C36   C     C_R   0.392663 0.076428 0.268913 -0.198523
C37   C     C_R   0.923495 0.392716 0.268914 -0.198518
C38   C     C_R   0.107501 0.423806 0.768910 -0.198535
C39   C     C_R   0.576378 0.107374 0.768912 -0.198528
C40   C     C_R   0.892499 0.576194 0.768911 -0.198535
C41   C     C_R   1.000000 0.500000 0.605726 0.810756
C42   C     C_R   0.423622 0.892626 0.768913 -0.198528
C43   C     C_R   0.553701 0.960785 0.290109 0.063723
C44   C     C_R   0.039251 0.553675 0.290109 0.063657
C45   C     C_R   0.446300 0.039216 0.290109 0.063723
C46   C     C_R   0.960748 0.446325 0.290109 0.063657
C47   C     C_R   0.053782 0.460898 0.790106 0.063627
C48   C     C_R   0.539191 0.053719 0.790108 0.063719
C49   C     C_R   0.946218 0.539103 0.790106 0.063627
C50   C     C_R   0.460809 0.946281 0.790108 0.063719
C51   C     C_R   0.500000 1.000000 0.269843 0.030377
C52   C     C_R   1.000000 0.500000 0.105727 0.810696
C53   C     C_R   1.000000 0.500000 0.269844 0.030287
C54   C     C_R   0.000000 0.500000 0.769841 0.030312
C55   C     C_R   0.500000 0.000000 0.769843 0.030382
C56   C     C_R   0.552450 0.959339 0.330908 -0.076850
C57   C     C_R   0.040690 0.552428 0.330909 -0.076675
C58   C     C_R   0.447551 0.040661 0.330908 -0.076849
C59   C     C_R   0.959309 0.447572 0.330909 -0.076674
C60   C     C_R   0.052530 0.459441 0.830905 -0.076689
C61   C     C_R   0.540638 0.052469 0.830907 -0.076854
C62   C     C_R   0.947471 0.540560 0.830905 -0.076688
C63   C     C_R   0.500000 1.000000 0.105727 0.811376
C64   C     C_R   0.459361 0.947532 0.830908 -0.076853
C65   C     C_R   0.500000 0.000000 0.351341 -0.137410
C66   C     C_R   1.000000 0.500000 0.351341 -0.137764
C67   C     C_R   0.000000 0.500000 0.851338 -0.137848
C68   C     C_R   0.500000 0.000000 0.851340 -0.137426
C69   C     C_R   0.500000 0.000000 0.394110 0.822833
C70   C     C_R   1.000000 0.500000 0.394110 0.822868
C71   C     C_R   0.000000 0.500000 0.894109 0.822802
C72   C     C_R   0.500000 0.000000 0.894109 0.822827
C73   C     C_R   0.361689 0.138734 0.499896 0.855723
C74   C     C_R   0.108132 0.425404 0.728629 -0.216370
C75   C     C_R   0.861588 0.361365 0.500137 0.856864
C76   C     C_R   0.638310 0.861266 0.499896 0.855727
C77   C     C_R   0.138412 0.638635 0.500137 0.856863
C78   C     C_R   0.638324 0.138729 0.499905 0.851541
C79   C     C_R   0.138403 0.361354 0.500147 0.852343
C80   C     C_R   0.361676 0.861272 0.499905 0.851542
C81   C     C_R   0.861596 0.638646 0.500147 0.852347
C82   C     C_R   0.861365 0.638413 0.000138 0.856839
C83   C     C_R   0.361266 0.861689 0.999896 0.855718
C84   C     C_R   0.138635 0.361587 0.000138 0.856842
C85   C     C_R   0.574783 0.108005 0.728630 -0.216273
C86   C     C_R   0.638734 0.138311 0.999896 0.855717
C87   C     C_R   0.138646 0.638403 0.000147 0.852331
C88   C     C_R   0.638728 0.861676 0.999905 0.851540
C89   C     C_R   0.861354 0.361596 0.000147 0.852331
C90   C     C_R   0.361272 0.138324 0.999905 0.851543
C91   C     C_2   0.193516 0.750288 0.476844 -0.150870
C92   C     C_2   0.248410 0.192221 0.477797 -0.151236
C93   C     C_2   0.806485 0.249713 0.476844 -0.150868
C94   C     C_2   0.751591 0.807779 0.477797 -0.151236
C95   C     C_2   0.806531 0.750354 0.476888 -0.157683
C96   C     C_R   0.891868 0.574596 0.728629 -0.216370
C97   C     C_2   0.751628 0.192211 0.477818 -0.158943
C98   C     C_2   0.193469 0.249646 0.476888 -0.157684
C99   C     C_2   0.248373 0.807789 0.477817 -0.158940
C100  C     C_2   0.692221 0.251592 0.977797 -0.151248
C101  C     C_2   0.749712 0.693514 0.976845 -0.150886
C102  C     C_2   0.307779 0.748409 0.977797 -0.151246
C103  C     C_2   0.250288 0.306486 0.976845 -0.150887
C104  C     C_2   0.307789 0.251629 0.977818 -0.158941
C105  C     C_2   0.250354 0.693468 0.976889 -0.157687
C106  C     C_2   0.692211 0.748371 0.977818 -0.158942
C107  C     C_R   0.425217 0.891994 0.728631 -0.216272
C108  C     C_2   0.749647 0.306533 0.976889 -0.157686
C109  C     C_2   0.193241 0.694508 0.501656 -0.294474
C110  C     C_2   0.308420 0.196160 0.499481 -0.292459
C111  C     C_2   0.806760 0.305490 0.501657 -0.294478
C112  C     C_2   0.691580 0.803840 0.499481 -0.292461
C113  C     C_2   0.806733 0.694491 0.501650 -0.294657
C114  C     C_2   0.691572 0.196187 0.499466 -0.293491
C115  C     C_2   0.193267 0.305509 0.501650 -0.294655
C116  C     C_2   0.308427 0.803814 0.499468 -0.293491
C117  C     C_2   0.696159 0.191581 0.999481 -0.292459
C118  C     C_R   0.607969 0.925166 0.228631 -0.216269
C119  C     C_2   0.805492 0.693241 0.001657 -0.294490
C120  C     C_2   0.303841 0.808419 0.999481 -0.292460
C121  C     C_2   0.194509 0.306759 0.001657 -0.294491
C122  C     C_2   0.303814 0.191573 0.999467 -0.293497
C123  C     C_2   0.194490 0.693268 0.001650 -0.294656
C124  C     C_2   0.696185 0.808427 0.999467 -0.293496
C125  C     C_2   0.805509 0.306732 0.001650 -0.294657
C126  C     C_R   0.945051 0.535812 0.668053 -0.255559
C127  C     C_R   0.464095 0.945111 0.668054 -0.255361
C128  C     C_R   0.054948 0.464187 0.668052 -0.255559
H1    H     H_    0.151397 0.755057 0.455062 0.183095
H2    H     H_    0.744944 0.651395 0.955063 0.183112
H3    H     H_    0.354536 0.738985 0.959444 0.181054
H4    H     H_    0.255057 0.348606 0.955062 0.183112
H5    H     H_    0.354615 0.261135 0.959529 0.178237
H6    H     H_    0.255234 0.651236 0.955179 0.178856
H7    H     H_    0.645386 0.738866 0.959529 0.178238
H8    H     H_    0.744767 0.348765 0.955179 0.178857
H9    H     H_    0.232942 0.688760 0.524424 0.150518
H10   H     H_    0.320925 0.242592 0.517259 0.150945
H11   H     H_    0.767061 0.311235 0.524427 0.150518
H12   H     H_    0.238986 0.145463 0.459444 0.181049
H13   H     H_    0.679074 0.757408 0.517259 0.150945
H14   H     H_    0.766912 0.688605 0.524346 0.150536
H15   H     H_    0.678990 0.242706 0.517166 0.151452
H16   H     H_    0.233087 0.311395 0.524346 0.150535
H17   H     H_    0.321006 0.757297 0.517169 0.151451
H18   H     H_    0.742590 0.179074 0.017258 0.150947
H19   H     H_    0.811240 0.732943 0.024425 0.150527
H20   H     H_    0.257410 0.820925 0.017259 0.150946
H21   H     H_    0.188761 0.267057 0.024425 0.150527
H22   H     H_    0.257297 0.178991 0.017168 0.151455
H23   H     H_    0.848601 0.244946 0.455060 0.183097
H24   H     H_    0.188603 0.733090 0.024345 0.150537
H25   H     H_    0.742702 0.821008 0.017168 0.151455
H26   H     H_    0.811396 0.266910 0.024345 0.150537
H27   H     H_    0.902951 0.563940 0.652213 0.156812
H28   H     H_    0.435897 0.903058 0.652213 0.156907
H29   H     H_    0.097048 0.436060 0.652213 0.156812
H30   H     H_    0.564104 0.096941 0.652212 0.156907
H31   H     H_    0.403089 0.064147 0.152213 0.156892
H32   H     H_    0.935780 0.403136 0.152213 0.156706
H33   H     H_    0.596910 0.935853 0.152213 0.156892
H34   H     H_    0.761014 0.854538 0.459444 0.181048
H35   H     H_    0.064220 0.596863 0.152212 0.156706
H36   H     H_    0.150338 0.396733 0.713209 0.149838
H37   H     H_    0.603531 0.150164 0.713211 0.149867
H38   H     H_    0.849661 0.603267 0.713210 0.149838
H39   H     H_    0.396469 0.849836 0.713212 0.149867
H40   H     H_    0.650113 0.896399 0.213212 0.149870
H41   H     H_    0.103715 0.650037 0.213211 0.149837
H42   H     H_    0.349886 0.103601 0.213213 0.149870
H43   H     H_    0.896286 0.349963 0.213213 0.149837
H44   H     H_    0.649676 0.893333 0.283228 0.158857
H45   H     H_    0.848761 0.755233 0.455177 0.178851
H46   H     H_    0.106775 0.649602 0.283228 0.158927
H47   H     H_    0.350324 0.106667 0.283228 0.158857
H48   H     H_    0.893225 0.350399 0.283229 0.158927
H49   H     H_    0.149906 0.393661 0.783226 0.158916
H50   H     H_    0.606597 0.149729 0.783227 0.158853
H51   H     H_    0.850094 0.606339 0.783226 0.158916
H52   H     H_    0.393402 0.850272 0.783228 0.158853
H53   H     H_    0.761134 0.145384 0.459530 0.178237
H54   H     H_    0.151239 0.244767 0.455178 0.178851
H55   H     H_    0.238870 0.854614 0.459528 0.178237
H56   H     H_    0.645463 0.261017 0.959445 0.181052
N1    N     N_1   0.643793 0.877692 0.368451 -0.201305
N2    N     N_1   0.122372 0.643736 0.368455 -0.203682
N3    N     N_1   0.356209 0.122309 0.368451 -0.201305
N4    N     N_1   0.877627 0.356265 0.368456 -0.203683
N5    N     N_1   0.144020 0.377951 0.868442 -0.203660
N6    N     N_1   0.622247 0.143849 0.868448 -0.201303
N7    N     N_1   0.855981 0.622051 0.868442 -0.203661
N8    N     N_1   0.377751 0.856153 0.868450 -0.201303
O1    O     O_3   0.500000 0.000000 0.500000 -0.492297
O2    O     O_R   0.560130 0.000000 0.087440 -0.644474
O3    O     O_R   1.000000 0.560130 0.087440 -0.644981
O4    O     O_R   0.439870 0.000000 0.087440 -0.644475
O5    O     O_R   0.439940 0.000000 0.412560 -0.633899
O6    O     O_R   1.000000 0.439940 0.412560 -0.634185
O7    O     O_R   0.560060 0.000000 0.412560 -0.633900
O8    O     O_R   1.000000 0.560060 0.412560 -0.634186
O9    O     O_R   0.939940 0.500000 0.912560 -0.634183
O10   O     O_R   0.500000 0.939940 0.912560 -0.633900
O11   O     O_R   0.060060 0.500000 0.912560 -0.634184
O12   O     O_3   1.000000 0.500000 0.500000 -0.492402
O13   O     O_R   0.500000 0.060060 0.912560 -0.633901
O14   O     O_R   0.415450 0.144560 0.522930 -0.644295
O15   O     O_R   0.855440 0.415450 0.522930 -0.643903
O16   O     O_R   0.584550 0.855440 0.522930 -0.644295
O17   O     O_R   0.144560 0.584550 0.522930 -0.643902
O18   O     O_R   0.584550 0.144560 0.522930 -0.645671
O19   O     O_R   0.144560 0.415450 0.522930 -0.645300
O20   O     O_R   0.415450 0.855440 0.522930 -0.645673
O21   O     O_R   0.855440 0.584550 0.522930 -0.645300
O22   O     O_R   0.915450 0.644560 0.022930 -0.643897
O23   O     O_3   1.000000 0.500000 0.000000 -0.492407
O24   O     O_R   0.355440 0.915450 0.022930 -0.644293
O25   O     O_R   0.084550 0.355440 0.022930 -0.643897
O26   O     O_R   0.644560 0.084550 0.022930 -0.644292
O27   O     O_R   0.084550 0.644560 0.022930 -0.645299
O28   O     O_R   0.644560 0.915450 0.022930 -0.645669
O29   O     O_R   0.915450 0.355440 0.022930 -0.645300
O30   O     O_R   0.355440 0.084550 0.022930 -0.645669
O31   O     O_R   0.644640 0.915430 0.477080 -0.637060
O32   O     O_R   0.084570 0.644640 0.477080 -0.637038
O33   O     O_R   0.355360 0.084570 0.477080 -0.637060
O34   O     O_3   0.500000 0.000000 0.000000 -0.492298
O35   O     O_R   0.915430 0.355360 0.477080 -0.637037
O36   O     O_R   0.355360 0.915430 0.477080 -0.642237
O37   O     O_R   0.915430 0.644640 0.477080 -0.642248
O38   O     O_R   0.644640 0.084570 0.477080 -0.642237
O39   O     O_R   0.084570 0.355360 0.477080 -0.642248
O40   O     O_R   0.144640 0.415430 0.977080 -0.637031
O41   O     O_R   0.584570 0.144640 0.977080 -0.637061
O42   O     O_R   0.855360 0.584570 0.977080 -0.637031
O43   O     O_R   0.415430 0.855360 0.977080 -0.637060
O44   O     O_R   0.855360 0.415430 0.977080 -0.642242
O45   O     O_R   0.500000 0.939870 0.587440 -0.644484
O46   O     O_R   0.415430 0.144640 0.977080 -0.642237
O47   O     O_R   0.144640 0.584570 0.977080 -0.642243
O48   O     O_R   0.584570 0.855360 0.977080 -0.642237
O49   O     O_R   0.060130 0.500000 0.587440 -0.645026
O50   O     O_R   0.500000 0.060130 0.587440 -0.644482
O51   O     O_R   0.939870 0.500000 0.587440 -0.645027
O52   O     O_R   1.000000 0.439870 0.087440 -0.644983
Zn1   Zn    Zn3+2 0.414160 0.000000 0.467250 0.980147
Zn2   Zn    Zn3+2 0.914220 0.500000 0.532750 0.969298
Zn3   Zn    Zn3+2 0.500000 0.914220 0.532750 0.969421
Zn4   Zn    Zn3+2 0.085780 0.500000 0.532750 0.969298
Zn5   Zn    Zn3+2 1.000000 0.585780 0.032750 0.969309
Zn6   Zn    Zn3+2 0.414220 0.000000 0.032750 0.969423
Zn7   Zn    Zn3+2 1.000000 0.414220 0.032750 0.969309
Zn8   Zn    Zn3+2 0.585780 0.000000 0.032750 0.969423
Zn9   Zn    Zn3+2 1.000000 0.414160 0.467250 0.980261
Zn10  Zn    Zn3+2 0.585840 0.000000 0.467250 0.980148
Zn11  Zn    Zn3+2 1.000000 0.585840 0.467250 0.980261
Zn12  Zn    Zn3+2 0.914160 0.500000 0.967250 0.980248
Zn13  Zn    Zn3+2 0.500000 0.914160 0.967250 0.980144
Zn14  Zn    Zn3+2 0.085840 0.500000 0.967250 0.980249
Zn15  Zn    Zn3+2 0.500000 0.085840 0.967250 0.980144
Zn16  Zn    Zn3+2 0.500000 0.085780 0.532750 0.969421

loop_
_geom_bond_atom_site_label_1
_geom_bond_atom_site_label_2
_ccdc_geom_bond_type
C2    C35   A    
C34   C118  A    
C48   C55   A    
C87   C123  S    
C73   O14   A    
O15   Zn2   S    
O34   Zn6   S    
O52   Zn7   S    
C12   C74   A    
C46   C59   A    
C2    C18   A    
O49   Zn4   S    
C50   C64   A    
C31   C61   S    
O47   Zn14  S    
C19   C23   A    
C10   C63   S    
C61   C68   A    
C57   C66   A    
C88   C124  S    
O44   Zn12  S    
C83   O24   A    
C98   C115  D    
C92   C98   S    
C73   C110  S    
O41   Zn15  S    
C5    C20   A    
C89   C125  S    
C79   O19   A    
C52   O3    A    
C31   N6    T    
O45   Zn3   S    
O1    Zn1   S    
C9    C127  A    
C62   C67   A    
C41   O51   A    
C33   N8    T    
C36   C45   A    
C122  H22   S    
C89   O44   A    
C25   C53   A    
C108  H8    S    
C79   C115  S    
C52   O52   A    
C59   C66   A    
C89   O29   A    
C116  H17   S    
C26   N1    T    
C4    H31   S    
C104  C122  D    
C20   C25   A    
C45   C51   A    
C119  H19   S    
C40   C49   A    
C88   O48   A    
O3    Zn5   S    
O1    Zn16  S    
C113  H14   S    
C105  C123  D    
C102  C105  S    
C109  H9    S    
C86   O26   A    
C30   N5    T    
C118  H40   S    
C24   H43   S    
C11   C52   S    
C58   C65   A    
C16   C107  A    
C47   C60   A    
C82   O22   A    
C4    C19   A    
C75   O15   A    
C44   C53   A    
C8    C128  A    
C81   O21   A    
C20   C24   A    
C60   C67   A    
C42   H52   S    
O5    Zn1   S    
C15   C126  A    
C30   C60   S    
C3    H30   S    
C70   O8    A    
C87   O27   A    
O48   Zn13  S    
C103  H4    S    
C78   O18   A    
C99   H55   S    
O11   Zn14  S    
C77   O17   A    
C80   O20   A    
C126  H27   S    
C5    H32   S    
C112  H13   S    
O13   Zn15  S    
O18   Zn16  S    
C70   O6    A    
C38   H49   S    
O40   Zn14  S    
C124  H25   S    
C69   O5    A    
O21   Zn2   S    
C90   C122  S    
C83   C120  S    
C78   C114  S    
C18   C25   A    
O50   Zn16  S    
C82   C119  S    
C40   C96   A    
O20   Zn3   S    
C84   O40   A    
O34   Zn13  S    
O37   Zn11  S    
C128  H29   S    
C7    C11   A    
C76   O31   A    
O33   Zn1   S    
O43   Zn13  S    
C107  H39   S    
C45   C58   A    
C100  C108  S    
C86   O41   A    
C87   O47   A    
C104  H5    S    
C13   C19   A    
C111  H11   S    
C97   H53   S    
C101  C119  D    
O29   Zn7   S    
C110  H10   S    
C7    C18   A    
C1    C9    S    
C8    C41   S    
C13   C36   A    
O35   Zn9   S    
C27   C57   S    
O10   Zn13  S    
C15   C96   A    
O12   Zn11  S    
C90   O46   A    
O36   Zn1   S    
C2    H41   S    
C38   C74   A    
C1    O45   A    
C84   C121  S    
O34   Zn8   S    
C7    H35   S    
C12   C21   A    
C80   O36   A    
C88   O28   A    
C32   N7    T    
C41   O49   A    
C68   C72   S    
C27   N2    T    
O19   Zn4   S    
C98   H54   S    
C71   O11   A    
C3    C9    A    
C40   H51   S    
C77   O32   A    
C23   C51   A    
C6    H33   S    
C44   C57   A    
C76   C112  S    
O51   Zn2   S    
O22   Zn5   S    
C24   C37   A    
O1    Zn3   S    
C63   O2    A    
O46   Zn15  S    
C17   C23   A    
C69   O7    A    
C102  H3    S    
C77   C109  S    
C35   C44   A    
O17   Zn4   S    
C79   O39   A    
C38   C47   A    
O12   Zn4   S    
C3    C14   A    
C17   C118  A    
C93   C111  D    
C47   C54   A    
C91   H1    S    
O30   Zn6   S    
O6    Zn9   S    
C8    C126  A    
C106  H7    S    
C42   C50   A    
C120  H20   S    
O28   Zn8   S    
C5    C11   A    
C14   C22   A    
C108  C125  D    
O2    Zn8   S    
C28   N3    T    
C39   C85   A    
O4    Zn6   S    
C103  C121  D    
C64   C68   A    
O42   Zn12  S    
C99   C116  D    
C39   H50   S    
C34   H44   S    
C125  H26   S    
O23   Zn14  S    
C72   O10   A    
C42   C107  A    
C100  H56   S    
C101  C106  S    
C71   O9    A    
C6    C17   A    
O14   Zn16  S    
C123  H24   S    
C13   H42   S    
C16   C22   A    
C49   C62   A    
C49   C54   A    
C63   O4    A    
C35   H46   S    
O26   Zn8   S    
C80   C116  S    
C34   C43   A    
C14   C85   A    
C83   O43   A    
O38   Zn10  S    
C26   C56   S    
C127  H28   S    
C6    C10   A    
O7    Zn10  S    
C90   O30   A    
C22   C55   A    
C12   C128  A    
C28   C58   S    
C78   O38   A    
O9    Zn12  S    
C66   C70   S    
C67   C71   S    
C75   C111  S    
C50   C55   A    
C29   N4    T    
C102  C120  D    
C85   H37   S    
O1    Zn10  S    
C91   C109  D    
C82   O42   A    
C97   C114  D    
O16   Zn3   S    
C32   C62   S    
C92   C110  D    
C91   C99   S    
C114  H15   S    
C37   H48   S    
C74   H36   S    
O12   Zn9   S    
O31   Zn10  S    
C43   C51   A    
C48   C61   A    
C21   C54   A    
C95   C113  D    
C33   C64   S    
C65   C69   S    
C101  H2    S    
C46   C53   A    
C94   C112  D    
O23   Zn12  S    
C93   C97   S    
C121  H21   S    
C86   C117  S    
C96   H38   S    
O34   Zn15  S    
C95   H45   S    
C94   C95   S    
O39   Zn9   S    
C16   C127  A    
O12   Zn2   S    
C73   O33   A    
C93   H23   S    
C1    O50   A    
O8    Zn11  S    
C76   O16   A    
C43   C56   A    
C15   C21   A    
O23   Zn7   S    
C36   H47   S    
O24   Zn6   S    
O27   Zn5   S    
C72   O13   A    
C81   C113  S    
C103  C104  S    
O23   Zn5   S    
C29   C59   S    
C84   O25   A    
C117  H18   S    
C81   O37   A    
C100  C117  D    
O25   Zn7   S    
C106  C124  D    
C37   C46   A    
C4    C10   A    
C75   O35   A    
C115  H16   S    
C94   H34   S    
C56   C65   A    
O32   Zn11  S    
C39   C48   A    
C105  H6    S    
C92   H12   S    
