data_mof_unit_16209.cif
_audit_creation_date              2012-12-11T15:48:00-0500
_audit_creation_method            fapswitch 2.2
_symmetry_space_group_name_H-M    P1
_symmetry_Int_Tables_number       1
_space_group_crystal_system       triclinic
_cell_length_a                    6.927623
_cell_length_b                    17.585747
_cell_length_c                    19.47144
_cell_angle_alpha                 108.555578
_cell_angle_beta                  89.531112
_cell_angle_gamma                 90.626779
_cell_volume                      2248.67767034

loop_
_atom_site_label
_atom_site_type_symbol
_atom_type_description
_atom_site_fract_x
_atom_site_fract_y
_atom_site_fract_z
_atom_type_partial_charge
O1    O     O_R   0.494330 0.415710 0.413720 -0.544043
O2    O     O_R   0.819360 0.430070 0.560210 -0.544277
O3    O     O_R   0.994320 0.584290 0.586280 -0.542038
C1    C     C_R   0.650177 0.415796 0.582596 0.759792
O4    O     O_R   0.823740 0.406290 0.412670 -0.545996
O5    O     O_R   0.998730 0.560340 0.437690 -0.541238
C2    C     C_R   0.654728 0.383001 0.384740 0.675128
O6    O     O_R   0.489920 0.439660 0.562310 -0.509879
O7    O     O_3   0.662330 0.550570 0.508380 -0.377358
V1    V     V_3+5 0.935370 0.490620 0.498440 1.415710
O8    O     O_R   0.328720 0.569930 0.439790 -0.544311
C3    C     C_R   0.160786 0.585265 0.418340 0.705560
O9    O     O_R   0.324340 0.593710 0.587330 -0.545422
C4    C     C_R   0.155219 0.616754 0.615424 0.707423
V2    V     V_3+5 0.435940 0.509380 0.501560 1.423617
O10   O     O_3   0.159110 0.449430 0.491620 -0.363165
C5    C     C_R   0.311348 0.726794 0.716458 -0.162437
H1    H     H_    0.451464 0.710605 0.691340 0.115856
C6    C     C_R   0.300185 0.790435 0.781499 -0.152123
H2    H     H_    0.432332 0.821212 0.804446 0.118204
C7    C     C_R   0.121203 0.814361 0.816048 -0.044336
C8    C     C_R   0.953781 0.772574 0.783858 -0.159248
H3    H     H_    0.813541 0.789078 0.808798 0.116571
C9    C     C_R   0.965073 0.708710 0.718952 -0.156391
H4    H     H_    0.832983 0.677885 0.696012 0.120992
C10   C     C_R   0.144017 0.684972 0.684285 -0.049133
C11   C     C_R   0.308150 0.635860 0.322572 -0.224626
C12   C     C_R   0.153319 0.635369 0.369748 -0.083210
C13   C     C_R   0.990093 0.682331 0.369726 -0.223140
C14   C     C_R   0.981702 0.729971 0.324007 0.096619
C15   C     C_R   0.136178 0.729328 0.276161 0.080535
C16   C     C_R   0.299413 0.681578 0.275132 0.090587
C17   C     C_R   0.821238 0.778240 0.325282 -0.210134
C18   C     C_R   0.812622 0.824978 0.279200 -0.159121
C19   C     C_R   0.964411 0.824527 0.230528 -0.003430
C20   C     C_R   0.127267 0.776322 0.229175 -0.013134
C21   C     C_R   0.281282 0.774797 0.180917 0.090494
C22   C     C_R   0.441653 0.726248 0.179714 -0.155619
C23   C     C_R   0.450637 0.680107 0.226369 -0.194985
C24   C     C_R   0.956797 0.871551 0.183570 0.404565
C25   C     C_R   0.110049 0.868569 0.133929 -0.185222
C26   C     C_R   0.272120 0.821106 0.134176 -0.263076
H5    H     H_    0.433921 0.599420 0.321785 0.125075
H6    H     H_    0.870457 0.682662 0.406079 0.128405
H7    H     H_    0.701325 0.779537 0.361723 0.134750
H8    H     H_    0.685515 0.861037 0.281557 0.171035
H9    H     H_    0.390481 0.819116 0.096866 0.162842
H10   H     H_    0.561006 0.724259 0.142871 0.134614
H11   H     H_    0.576574 0.643478 0.224499 0.135175
C27   C     C_R   0.467662 0.186433 0.868863 -0.224628
C28   C     C_R   0.623485 0.136274 0.870556 -0.083917
C29   C     C_R   0.783494 0.133407 0.824844 -0.224565
C30   C     C_R   0.786857 0.178937 0.777140 0.088677
C31   C     C_R   0.630684 0.229712 0.776436 0.080715
C32   C     C_R   0.471105 0.233584 0.822756 0.095070
C33   C     C_R   0.942959 0.174141 0.729665 -0.192487
C34   C     C_R   0.944742 0.219261 0.682065 -0.157433
C35   C     C_R   0.791517 0.270731 0.681646 0.088206
C36   C     C_R   0.634000 0.276552 0.729283 -0.003658
C37   C     C_R   0.480267 0.329143 0.730041 -0.019092
C38   C     C_R   0.320999 0.331211 0.775976 -0.178015
C39   C     C_R   0.316827 0.284146 0.821852 -0.195969
C40   C     C_R   0.792777 0.315673 0.633782 -0.284051
C41   C     C_R   0.641593 0.368506 0.633802 -0.167042
C42   C     C_R   0.489639 0.378591 0.684987 0.407309
H12   H     H_    0.343735 0.189330 0.903956 0.130166
H13   H     H_    0.903411 0.094437 0.825225 0.125762
H14   H     H_    0.063808 0.135391 0.729269 0.132808
H15   H     H_    0.066990 0.214313 0.645863 0.131181
H16   H     H_    0.912321 0.309323 0.596126 0.157402
H17   H     H_    0.198072 0.368849 0.776333 0.156548
H18   H     H_    0.192189 0.287204 0.856602 0.133410
C43   C     C_R   0.811384 0.275211 0.282358 -0.156946
H19   H     H_    0.951968 0.293809 0.306026 0.116051
C44   C     C_R   0.800297 0.211390 0.217415 -0.165201
H20   H     H_    0.932833 0.182633 0.193198 0.115889
C45   C     C_R   0.620950 0.185037 0.184342 -0.054685
C46   C     C_R   0.452923 0.224043 0.218237 -0.159616
H21   H     H_    0.312330 0.205377 0.194600 0.115433
C47   C     C_R   0.464004 0.287864 0.283185 -0.152846
H22   H     H_    0.331431 0.316527 0.307461 0.117578
C48   C     C_R   0.643415 0.314426 0.316121 -0.043104
O11   O     O_R   0.774940 0.060470 0.937800 -0.541521
O12   O     O_R   0.440880 0.093730 0.087350 -0.545297
O13   O     O_R   0.266130 0.939630 0.062280 -0.540076
C49   C     C_R   0.609789 0.116846 0.115468 0.695583
O14   O     O_R   0.445480 0.069960 0.939820 -0.544817
O15   O     O_R   0.270770 0.915690 0.913690 -0.542682
C50   C     C_R   0.614849 0.085617 0.918654 0.707175
O16   O     O_R   0.770300 0.084410 0.086380 -0.539461
O17   O     O_3   0.602600 0.949510 0.991670 -0.363520
V3    V     V_3+5 0.329470 0.009370 0.001550 1.405823
O18   O     O_R   0.940760 0.906160 0.912560 -0.547240
C51   C     C_R   0.109957 0.882924 0.884676 0.674932
O19   O     O_R   0.936150 0.929930 0.060100 -0.511976
C52   C     C_R   0.103756 0.915763 0.082591 0.745401
V4    V     V_3+5 0.828930 0.990450 0.998310 1.436433
O20   O     O_3   0.105670 0.050490 0.008320 -0.375561
O21   O     O_3   0.350135 0.436058 0.689525 -0.557963
C53   C     C_3   0.382611 0.504170 0.751377 0.080223
H23   H     H_    0.405798 0.488212 0.801579 0.112815
H24   H     H_    0.250241 0.541230 0.760770 0.145650
C54   C     C_3   0.551291 0.556146 0.740561 -0.771286
H25   H     H_    0.535452 0.569323 0.688953 0.232348
H26   H     H_    0.554362 0.613701 0.785798 0.187477
H27   H     H_    0.690490 0.525270 0.739983 0.200545
O22   O     O_3   0.796299 0.918153 0.184563 -0.551813
C55   C     C_3   0.831878 0.996111 0.232381 -0.234993
H28   H     H_    0.953983 0.025760 0.213089 0.117515
H29   H     H_    0.860168 0.995482 0.288388 0.123948
H30   H     H_    0.701395 0.032812 0.234556 0.156928

loop_
_geom_bond_atom_site_label_1
_geom_bond_atom_site_label_2
_ccdc_geom_bond_type
O18   C51   A    
C17   H7    S    
C43   H19   S    
O19   C52   A    
C1    O6    A    
V4    O20   S    
V3    O20   S    
C45   C46   A    
C33   C34   A    
C13   C14   A    
C3    C12   S    
C5    C10   A    
C7    C8    A    
C20   C21   A    
C6    C7    A    
O12   C49   A    
C15   C20   A    
O5    C3    A    
C14   C15   A    
O13   C52   A    
C46   C47   A    
C25   C52   S    
C7    C51   S    
V2    O10   S    
C32   C39   A    
C55   H28   S    
C18   C19   A    
C25   C26   A    
C16   C23   A    
C21   C26   A    
O8    V2    S    
O15   V3    S    
O22   C55   S    
C18   H8    S    
O7    V1    S    
O16   V4    S    
C22   H10   S    
C38   H17   S    
C36   C37   A    
O9    C4    A    
C43   C44   A    
O13   V3    S    
C5    H1    S    
C31   C36   A    
O11   C50   A    
O15   C51   A    
C28   C29   A    
C9    H4    S    
C42   O21   S    
C47   C48   A    
C49   O16   A    
O17   V3    S    
O4    C2    A    
C46   H21   S    
C27   C28   A    
C35   C36   A    
C33   H14   S    
C53   C54   S    
O17   V4    S    
C37   C38   A    
C19   C20   A    
O2    C1    A    
C44   H20   S    
O5    V1    S    
C21   C22   A    
C44   C45   A    
O21   C53   S    
C40   H16   S    
C53   H24   S    
C17   C18   A    
C39   H18   S    
C54   H26   S    
C4    C10   S    
C27   H12   S    
O3    C4    A    
C24   O22   S    
O1    V2    S    
C24   C25   A    
C23   H11   S    
C45   C49   S    
O6    V2    S    
O14   C50   A    
C13   H6    S    
C8    C9    A    
O2    V1    S    
O18   V4    S    
C43   C48   A    
C54   H25   S    
C29   C30   A    
C30   C33   A    
C35   C40   A    
C31   C32   A    
C12   C13   A    
C14   C17   A    
C11   C16   A    
O1    C2    A    
C15   C16   A    
C9    C10   A    
C47   H22   S    
C37   C42   A    
O8    C3    A    
O19   V4    S    
C30   C31   A    
C1    C41   S    
C27   C32   A    
C55   H30   S    
C41   C42   A    
C6    H2    S    
O9    V2    S    
C19   C24   A    
O7    V2    S    
O4    V1    S    
O3    V1    S    
V1    O10   S    
C28   C50   S    
C34   C35   A    
C22   C23   A    
C29   H13   S    
C53   H23   S    
C5    C6    A    
C55   H29   S    
C54   H27   S    
C26   H9    S    
C38   C39   A    
C40   C41   A    
C11   H5    S    
C2    C48   S    
O11   V4    S    
C11   C12   A    
C8    H3    S    
O12   V3    S    
C34   H15   S    
O14   V3    S    
