data_mof_unit_29355.cif
_audit_creation_date              2012-12-10T20:46:51-0500
_audit_creation_method            fapswitch 2.2
_symmetry_space_group_name_H-M    P1
_symmetry_Int_Tables_number       1
_space_group_crystal_system       triclinic
_cell_length_a                    12.937673
_cell_length_b                    8.93376
_cell_length_c                    8.119615
_cell_angle_alpha                 89.995019
_cell_angle_beta                  96.750717
_cell_angle_gamma                 90.012359
_cell_volume                      931.975341667

loop_
_atom_site_label
_atom_site_type_symbol
_atom_type_description
_atom_site_fract_x
_atom_site_fract_y
_atom_site_fract_z
_atom_type_partial_charge
C1    C     C_R   0.499996 0.218046 0.500004 0.942443
C2    C     C_R   0.870481 0.550221 0.704339 0.575580
C3    C     C_R   0.136900 0.581292 0.586012 -0.111558
C4    C     C_R   0.863300 0.562635 0.404229 -0.120747
C5    C     C_R   0.028658 0.572991 0.575757 -0.208572
C6    C     C_R   0.970929 0.551665 0.418373 -0.226255
C7    C     C_1   0.499974 0.065195 0.500004 -0.163242
C8    C     C_1   0.499962 0.934792 0.499992 -0.159406
C9    C     C_1   0.807251 0.615111 0.249301 0.439763
C10   C     C_1   0.195916 0.649174 0.730575 0.428795
C11   C     C_R   0.499963 0.781960 0.499990 0.902157
C12   C     C_R   0.297835 0.507997 0.468557 0.945257
C13   C     C_R   0.702075 0.511130 0.531119 0.943673
C14   C     C_R   0.813166 0.541032 0.547239 -0.377053
C15   C     C_R   0.186286 0.530358 0.450176 -0.376666
C16   C     C_R   0.021299 0.512670 0.280699 0.650662
C17   C     C_R   0.976315 0.578036 0.718340 0.627951
C18   C     C_R   0.127947 0.496868 0.298090 0.569196
F1    F     F_    0.824370 0.534255 0.844705 -0.581170
F2    F     F_    0.173527 0.445615 0.166533 -0.579981
F3    F     F_    0.966630 0.469777 0.135516 -0.551979
F4    F     F_    0.027807 0.593846 0.872671 -0.577144
N1    N     N_1   0.500020 0.500000 0.073640 -0.005113
N2    N     N_1   0.499980 0.500000 0.926360 -0.003406
N3    N     N_1   0.762006 0.658778 0.127361 -0.094695
N4    N     N_1   0.242882 0.703497 0.845394 -0.133531
O1    O     O_R   0.499990 0.285340 0.636850 -0.612810
O2    O     O_R   0.500010 0.714660 0.363150 -0.625517
O3    O     O_R   0.500010 0.285340 0.363150 -0.609264
O4    O     O_R   0.499990 0.714660 0.636850 -0.622564
O5    O     O_R   0.346350 0.500000 0.614250 -0.636516
O6    O     O_R   0.653650 0.500000 0.385750 -0.642763
O7    O     O_R   0.346360 0.500000 0.340500 -0.551813
O8    O     O_R   0.653640 0.500000 0.659500 -0.550748
Zn1   Zn    Zn3+2 0.499990 0.500000 0.682780 1.049638
Zn2   Zn    Zn3+2 0.500010 0.500000 0.317220 1.047397

loop_
_geom_bond_atom_site_label_1
_geom_bond_atom_site_label_2
_ccdc_geom_bond_type
C15   C18   A    
N1    N2    T    
C16   F3    S    
C13   O6    A    
C17   F4    S    
C12   C15   S    
C10   N4    T    
C1    O3    A    
C12   O7    A    
C9    N3    T    
C13   O8    A    
C3    C10   S    
C13   C14   S    
C2    C17   A    
O3    Zn2   S    
O4    Zn1   S    
C8    C11   S    
O6    Zn2   S    
O5    Zn1   S    
C4    C6    A    
N1    Zn2   S    
C18   F2    S    
C12   O5    A    
C4    C14   A    
C5    C6    A    
C2    C14   A    
C11   O2    A    
N2    Zn1   S    
C5    C17   A    
C6    C16   A    
C7    C8    T    
O7    Zn2   S    
C3    C15   A    
O2    Zn2   S    
C16   C18   A    
O8    Zn1   S    
C2    F1    S    
C1    O1    A    
O1    Zn1   S    
C4    C9    S    
C1    C7    S    
C11   O4    A    
C3    C5    A    
