data_mof_unit_24003.cif
_audit_creation_date              2012-10-26T18:26:15-0400
_audit_creation_method            fapswitch 2.2
_symmetry_space_group_name_H-M    P1
_symmetry_Int_Tables_number       1
_space_group_crystal_system       triclinic
_cell_length_a                    13.84882
_cell_length_b                    8.779626
_cell_length_c                    7.441549
_cell_angle_alpha                 103.091552
_cell_angle_beta                  89.077071
_cell_angle_gamma                 92.904651
_cell_volume                      880.1405524

loop_
_atom_site_label
_atom_site_type_symbol
_atom_type_description
_atom_site_fract_x
_atom_site_fract_y
_atom_site_fract_z
_atom_type_partial_charge
C1    C     C_R   0.504394 0.200957 0.452684 0.532978
C2    C     C_1   0.869130 0.472569 0.432549 -0.006925
C3    C     C_2   0.518710 0.035506 0.422996 -0.017557
C4    C     C_2   0.529460 0.966699 0.566880 -0.042262
C5    C     C_3   0.039592 0.636701 0.912173 -0.287131
C6    C     C_3   0.956346 0.304721 0.100340 -0.294130
C7    C     C_2   0.521538 0.949804 0.227091 0.258801
C8    C     C_2   0.561507 0.053389 0.754042 0.272028
C9    C     C_R   0.510415 0.799726 0.544270 0.520208
C10   C     C_R   0.318655 0.503339 0.531797 0.535725
C11   C     C_R   0.681336 0.496230 0.468167 0.570719
C12   C     C_1   0.783234 0.484727 0.445574 -0.008269
C13   C     C_1   0.216360 0.507434 0.553789 -0.052085
C14   C     C_2   0.972582 0.456774 0.423203 0.164127
C15   C     C_2   0.025712 0.512494 0.578471 0.161050
C16   C     C_1   0.129952 0.510331 0.567255 -0.034192
Cu1   Cu    Cu3+1 0.510540 0.517220 0.682700 1.020525
Cu2   Cu    Cu3+1 0.489460 0.482780 0.317300 0.995286
H1    H     H_    0.421583 0.386014 0.962885 0.230087
H2    H     H_    0.918878 0.201899 0.139310 0.171211
H3    H     H_    0.458534 0.943175 0.140361 0.086928
H4    H     H_    0.523556 0.032872 0.875316 0.120900
H5    H     H_    0.580752 0.608714 0.035429 0.285597
H6    H     H_    0.915717 0.521886 0.777944 0.255951
H7    H     H_    0.993428 0.687123 0.032191 0.162560
H8    H     H_    0.091595 0.730468 0.887550 0.158018
H9    H     H_    0.079503 0.540032 0.945338 0.164446
H10   H     H_    0.082416 0.337922 0.256743 0.250177
H11   H     H_    0.001152 0.262925 0.975436 0.143125
H12   H     H_    0.902393 0.382805 0.065551 0.173835
N1    N     N_2   0.473570 0.456830 0.042740 -0.256647
N2    N     N_2   0.526430 0.543170 0.957260 -0.232561
N3    N     N_2   0.979644 0.578347 0.751135 -0.521767
N4    N     N_2   0.017598 0.389081 0.249881 -0.542102
O1    O     O_R   0.506850 0.286020 0.618680 -0.483358
O2    O     O_2   0.633546 0.141652 0.773263 -0.461895
O3    O     O_R   0.493150 0.713980 0.381320 -0.490151
O4    O     O_R   0.489050 0.256940 0.310110 -0.516513
O5    O     O_R   0.510950 0.743060 0.689890 -0.506825
O6    O     O_R   0.372320 0.516630 0.676100 -0.511519
O7    O     O_R   0.627680 0.483370 0.323900 -0.487240
O8    O     O_R   0.354510 0.487550 0.367530 -0.503731
O9    O     O_R   0.645490 0.512450 0.632470 -0.472353
O10   O     O_2   0.596496 0.893811 0.160762 -0.505070

loop_
_geom_bond_atom_site_label_1
_geom_bond_atom_site_label_2
_ccdc_geom_bond_type
C14   N4    S    
C8    H4    S    
C11   C12   S    
Cu1   O9    S    
C11   O9    A    
C10   O8    A    
C6    H2    S    
H6    N3    S    
C4    C8    S    
C2    C12   T    
H5    N2    S    
C9    O3    A    
Cu1   Cu2   S    
Cu2   O4    S    
H1    N1    S    
C10   C13   S    
C5    H9    S    
C7    O10   D    
C1    O4    A    
C5    H7    S    
C6    H12   S    
Cu2   O3    S    
C11   O7    A    
C3    C7    S    
Cu2   O8    S    
Cu1   O5    S    
C2    C14   S    
C13   C16   T    
H10   N4    S    
C5    H8    S    
C6    N4    S    
C9    O5    A    
C6    H11   S    
C1    O1    A    
C10   O6    A    
C8    O2    D    
Cu2   O7    S    
Cu1   N2    S    
C14   C15   D    
Cu2   N1    S    
Cu1   O1    S    
C4    C9    S    
C7    H3    S    
C15   N3    S    
N1    N2    D    
C3    C4    D    
C15   C16   S    
C1    C3    S    
Cu1   O6    S    
C5    N3    S    
