data_mof_unit_24335.cif
_audit_creation_date              2012-12-10T17:35:38-0500
_audit_creation_method            fapswitch 2.2
_symmetry_space_group_name_H-M    P1
_symmetry_Int_Tables_number       1
_space_group_crystal_system       triclinic
_cell_length_a                    10.719438
_cell_length_b                    12.359178
_cell_length_c                    13.181892
_cell_angle_alpha                 117.218596
_cell_angle_beta                  76.605273
_cell_angle_gamma                 101.458927
_cell_volume                      1502.05552246

loop_
_atom_site_label
_atom_site_type_symbol
_atom_type_description
_atom_site_fract_x
_atom_site_fract_y
_atom_site_fract_z
_atom_type_partial_charge
C1    C     C_R   0.509145 0.855233 0.286662 0.853880
C2    C     C_3   0.122274 0.002443 0.502207 0.132802
C3    C     C_3   0.039096 0.000306 0.614600 -0.389660
C4    C     C_3   0.077771 0.888388 0.396659 -0.408502
C5    C     C_R   0.309448 0.280582 0.019003 -0.190662
C6    C     C_R   0.451664 0.229035 0.835749 -0.148580
C7    C     C_R   0.583509 0.816420 0.082155 -0.133786
C8    C     C_R   0.598218 0.738814 0.964926 -0.175707
C9    C     C_R   0.549995 0.616199 0.927643 -0.126370
C10   C     C_R   0.484411 0.569225 0.007831 0.101587
C11   C     C_R   0.449387 0.653135 0.124024 0.095571
C12   C     C_R   0.739889 0.000597 0.500634 0.828866
C13   C     C_R   0.447971 0.442373 0.975859 -0.024741
C14   C     C_R   0.353725 0.404741 0.052112 0.107879
C15   C     C_R   0.304181 0.491577 0.160308 -0.188664
C16   C     C_R   0.352587 0.613928 0.196670 -0.162949
C17   C     C_R   0.506165 0.351204 0.872868 0.365610
C18   C     C_R   0.355520 0.193505 0.909964 -0.271653
C19   C     C_R   0.510793 0.774442 0.163022 -0.091627
C20   C     C_R   0.748538 0.382242 0.399733 -0.274601
C21   C     C_R   0.309875 0.750292 0.628762 0.072853
C22   C     C_R   0.262549 0.649181 0.652060 -0.255141
C23   C     C_R   0.481073 0.145312 0.713689 0.814987
C24   C     C_R   0.334655 0.550415 0.607020 -0.177925
C25   C     C_R   0.457039 0.552818 0.539821 -0.036177
C26   C     C_R   0.502173 0.657829 0.516396 0.231579
C27   C     C_R   0.536811 0.454731 0.493955 -0.031550
C28   C     C_R   0.668027 0.476077 0.450152 0.148070
C29   C     C_R   0.715568 0.588024 0.447807 -0.314315
C30   C     C_R   0.628780 0.660520 0.452432 0.253411
C31   C     C_R   0.493576 0.336461 0.489153 0.051101
C32   C     C_R   0.698919 0.266830 0.392175 0.078278
C33   C     C_R   0.260045 0.001609 0.502072 0.736679
C34   C     C_3   0.957418 0.120015 0.496660 -0.357789
C35   C     C_3   0.100574 0.119024 0.494605 -0.367840
C36   C     C_3   0.895185 0.998051 0.612889 -0.449333
C37   C     C_3   0.934002 0.887775 0.394781 0.132787
C38   C     C_3   0.878519 0.001442 0.500460 0.084979
Cu1   Cu    Cu3+1 0.529690 0.098270 0.475420 0.959401
Cu2   Cu    Cu3+1 0.470310 0.901730 0.524580 0.950437
H1    H     H_    0.921188 0.201402 0.573923 0.165103
H2    H     H_    0.091196 0.803514 0.400805 0.144913
H3    H     H_    0.841224 0.913770 0.618781 0.178549
H4    H     H_    0.052877 0.918184 0.623297 0.171442
H5    H     H_    0.313226 0.099261 0.882346 0.172062
H6    H     H_    0.229875 0.464495 0.218216 0.137414
H7    H     H_    0.235870 0.251426 0.075904 0.148942
H8    H     H_    0.629423 0.909488 0.109459 0.164898
H9    H     H_    0.560316 0.561107 0.835419 0.192924
H10   H     H_    0.650001 0.773060 0.902746 0.144455
H11   H     H_    0.946440 0.129470 0.419310 0.200308
H12   H     H_    0.309662 0.677582 0.280666 0.155452
H13   H     H_    0.761929 0.195178 0.355046 0.137832
H14   H     H_    0.815356 0.600184 0.409156 0.169409
H15   H     H_    0.848786 0.397420 0.364361 0.134373
H16   H     H_    0.396954 0.315267 0.526896 0.109138
H17   H     H_    0.252293 0.825901 0.664320 0.122838
H18   H     H_    0.294930 0.475160 0.629189 0.130759
H19   H     H_    0.169408 0.647456 0.705439 0.147515
H20   H     H_    0.156872 0.121917 0.413320 0.187607
H21   H     H_    0.134420 0.202719 0.568316 0.156453
H22   H     H_    0.855083 0.077757 0.689980 0.162881
H23   H     H_    0.069387 0.082422 0.691241 0.161585
H24   H     H_    0.880805 0.803638 0.400694 0.152562
H25   H     H_    0.138922 0.887889 0.315787 0.189473
N1    N     N_R   0.574690 0.246280 0.438200 -0.185058
N2    N     N_R   0.426100 0.754320 0.561190 -0.201851
O1    O     O_R   0.537340 0.972510 0.318130 -0.580945
O2    O     O_R   0.487200 0.806530 0.359650 -0.534519
O3    O     O_R   0.707380 0.082980 0.479220 -0.583224
O4    O     O_R   0.657240 0.917000 0.520740 -0.578691
O5    O     O_R   0.512800 0.193470 0.640350 -0.533960
O6    O     O_R   0.462660 0.027490 0.681870 -0.598820
O7    O     O_R   0.342760 0.083000 0.479260 -0.602280
O8    O     O_R   0.292620 0.917020 0.520780 -0.610138
O9    O     O_3   0.617103 0.380095 0.807871 -0.590948
C39   C     C_3   0.725399 0.365773 0.842655 0.083947
H26   H     H_    0.737295 0.266872 0.806173 0.121769
H27   H     H_    0.717404 0.407099 0.938695 0.167781
C40   C     C_3   0.845134 0.429799 0.796792 -0.781969
H28   H     H_    0.839595 0.530157 0.839515 0.256947
H29   H     H_    0.932620 0.410818 0.814858 0.199216
H30   H     H_    0.852522 0.396916 0.702120 0.242705
Br1   Br    Br    0.660775 0.646912 0.298252 -0.503090
Br2   Br    Br    0.912350 0.877894 0.247198 -0.548949

loop_
_geom_bond_atom_site_label_1
_geom_bond_atom_site_label_2
_ccdc_geom_bond_type
C2    C35   S    
C31   N1    A    
Cu2   O4    S    
Cu1   O1    S    
C7    C8    A    
C39   H26   S    
C5    H7    S    
C11   C19   A    
C34   H11   S    
C29   C30   A    
C26   N2    A    
C37   Br2   S    
C28   C29   A    
C40   H30   S    
C4    H25   S    
C29   H14   S    
C15   C16   A    
C1    O1    A    
Cu2   O6    S    
C34   C35   S    
Cu1   O7    S    
C33   O8    A    
C8    C9    A    
Cu2   N2    S    
C17   O9    S    
Cu1   O5    S    
C31   H16   S    
C9    C10   A    
C21   C22   A    
C21   N2    A    
C30   Br1   S    
C34   H1    S    
C23   O6    A    
C20   H15   S    
C36   H22   S    
C39   H27   S    
C6    C18   A    
C3    H4    S    
C1    C19   S    
Cu2   O2    S    
C27   C31   A    
C9    H9    S    
C24   C25   A    
C40   H29   S    
Cu1   Cu2   S    
C5    C18   A    
C20   C28   A    
C25   C26   A    
C1    O2    A    
C35   H20   S    
C2    C4    S    
C21   H17   S    
C37   C38   S    
C11   C16   A    
C35   H21   S    
O9    C39   S    
C5    C14   A    
C2    C33   S    
C12   O4    A    
C26   C30   A    
C7    C19   A    
Cu1   N1    S    
C22   C24   A    
C18   H5    S    
C8    H10   S    
C32   H13   S    
C22   H19   S    
C37   H24   S    
C32   N1    A    
C20   C32   A    
C39   C40   S    
C6    C17   A    
C12   O3    A    
C34   C38   S    
C23   O5    A    
C16   H12   S    
C40   H28   S    
C10   C13   A    
C3    H23   S    
C25   C27   A    
Cu2   O8    S    
C13   C17   A    
C7    H8    S    
C36   C38   S    
C2    C3    S    
C4    H2    S    
C3    C36   S    
C6    C23   S    
Cu1   O3    S    
C12   C38   S    
C10   C11   A    
C33   O7    A    
C4    C37   S    
C24   H18   S    
C27   C28   A    
C14   C15   A    
C36   H3    S    
C15   H6    S    
C13   C14   A    
