data_mof_unit_34953.cif
_audit_creation_date              2012-12-10T18:23:17-0500
_audit_creation_method            fapswitch 2.2
_symmetry_space_group_name_H-M    P1
_symmetry_Int_Tables_number       1
_space_group_crystal_system       triclinic
_cell_length_a                    27.781671
_cell_length_b                    10.650028
_cell_length_c                    9.426493
_cell_angle_alpha                 89.990445
_cell_angle_beta                  89.224206
_cell_angle_gamma                 90.32798
_cell_volume                      2788.7675882

loop_
_atom_site_label
_atom_site_type_symbol
_atom_type_description
_atom_site_fract_x
_atom_site_fract_y
_atom_site_fract_z
_atom_type_partial_charge
C1    C     C_R   0.499843 0.259576 0.500133 0.777298
C2    C     C_R   0.499663 0.740417 0.499903 0.840783
C3    C     C_R   0.102312 0.484392 0.579891 -0.081129
C4    C     C_R   0.899084 0.493119 0.580957 -0.059953
C5    C     C_R   0.127251 0.376192 0.534181 -0.066120
C6    C     C_R   0.873687 0.593628 0.645186 -0.122842
C7    C     C_R   0.101794 0.261357 0.519666 -0.087478
C8    C     C_R   0.898928 0.680975 0.731038 -0.060303
C9    C     C_R   0.128289 0.595105 0.613053 -0.014217
C10   C     C_R   0.873741 0.398876 0.505687 -0.011179
C11   C     C_R   0.354571 0.500386 0.506771 -0.051440
C12   C     C_R   0.646854 0.503890 0.506454 -0.086508
C13   C     C_R   0.975009 0.384414 0.530524 0.073724
C14   C     C_R   0.026474 0.589608 0.640295 0.079750
C15   C     C_R   0.975528 0.584926 0.657627 -0.004130
C16   C     C_R   0.025555 0.374432 0.548587 0.017876
C17   C     C_R   0.949874 0.487423 0.590133 0.011436
C18   C     C_R   0.051425 0.482505 0.590418 0.017223
C19   C     C_R   0.949665 0.299747 0.444465 -0.219718
C20   C     C_R   0.052639 0.701666 0.659828 -0.230102
C21   C     C_R   0.899959 0.306625 0.429142 -0.029553
C22   C     C_R   0.102622 0.706350 0.644509 -0.031346
C23   C     C_R   0.407580 0.501683 0.501077 0.843361
C24   C     C_R   0.592949 0.500602 0.499794 0.800366
C25   C     C_R   0.050950 0.260143 0.528084 0.159586
C26   C     C_R   0.949637 0.673450 0.741056 0.208840
C27   C     C_3   0.497801 0.041278 0.635510 -0.212432
C28   C     C_3   0.500654 0.958864 0.364670 -0.127343
C29   C     C_3   0.538041 0.957994 0.570020 -0.251906
C30   C     C_3   0.460471 0.042332 0.430314 -0.259613
C31   C     C_3   0.499024 0.877138 0.499556 -0.016940
C32   C     C_3   0.499524 0.122842 0.500733 -0.054153
C33   C     C_3   0.459300 0.958988 0.564090 0.051417
C34   C     C_3   0.539139 0.041101 0.436219 0.059114
C35   C     C_3   0.489134 0.610681 0.051078 -0.139832
C36   C     C_3   0.510782 0.389543 0.948593 -0.122025
C37   C     C_3   0.457851 0.530834 0.950376 -0.102120
C38   C     C_3   0.542010 0.469415 0.048940 -0.118238
C39   C     C_3   0.530556 0.578211 0.949778 0.396013
C40   C     C_3   0.469371 0.421976 0.049375 0.393050
C41   C     C_R   0.177211 0.387073 0.506360 0.694163
C42   C     C_R   0.823563 0.601869 0.621332 0.653419
C43   C     C_R   0.179039 0.589440 0.612801 0.663690
C44   C     C_R   0.823084 0.400833 0.510610 0.661321
C45   C     C_R   0.275385 0.566582 0.426062 -0.029640
C46   C     C_R   0.728617 0.524655 0.405799 -0.027303
C47   C     C_R   0.326186 0.570845 0.412397 0.163539
C48   C     C_R   0.678343 0.513050 0.386726 0.149475
C49   C     C_R   0.332373 0.428931 0.613896 -0.350735
C50   C     C_R   0.667378 0.497258 0.642191 -0.329417
C51   C     C_R   0.282505 0.425491 0.631062 0.001488
C52   C     C_R   0.717040 0.495808 0.661681 0.003673
C53   C     C_R   0.253598 0.493261 0.535615 0.272248
C54   C     C_R   0.748079 0.510890 0.543104 0.282790
Cu1   Cu    Cu3+1 0.500010 0.499990 0.643150 0.969560
Cu2   Cu    Cu3+1 0.499990 0.500010 0.356850 0.946168
H1    H     H_    0.354434 0.375833 0.686379 0.147251
H2    H     H_    0.644499 0.488006 0.735687 0.181835
H3    H     H_    0.496302 0.076678 0.746279 0.144308
H4    H     H_    0.502065 0.923432 0.253912 0.155328
H5    H     H_    0.422710 0.556081 0.903917 0.151563
H6    H     H_    0.576365 0.441422 0.094785 0.146188
H7    H     H_    0.480689 0.703615 0.098206 0.135055
H8    H     H_    0.519304 0.296692 0.901372 0.137508
H9    H     H_    0.968888 0.233251 0.378405 0.160227
H10   H     H_    0.034043 0.789686 0.674989 0.151963
H11   H     H_    0.569884 0.921231 0.626216 0.149851
H12   H     H_    0.428666 0.079254 0.374067 0.146552
N1    N     N_R   0.202039 0.489979 0.551781 -0.434366
N2    N     N_R   0.799473 0.504315 0.559924 -0.419998
N3    N     N_3   0.500040 0.499970 0.858290 -0.186543
N4    N     N_3   0.499960 0.500030 0.141710 -0.188373
O1    O     O_R   0.500020 0.316850 0.620870 -0.591803
O2    O     O_R   0.499980 0.683150 0.379130 -0.601915
O3    O     O_R   0.500000 0.316860 0.379090 -0.586364
O4    O     O_R   0.500000 0.683140 0.620910 -0.557883
O5    O     O_R   0.430270 0.500020 0.620880 -0.565520
O6    O     O_R   0.569730 0.499980 0.379120 -0.587865
O7    O     O_R   0.430250 0.500030 0.379090 -0.569426
O8    O     O_R   0.569750 0.499970 0.620910 -0.562092
O9    O     O_2   0.200895 0.297222 0.433143 -0.499440
O10   O     O_2   0.798876 0.706035 0.657339 -0.530949
O11   O     O_2   0.797254 0.300127 0.468854 -0.496211
O12   O     O_2   0.205405 0.680319 0.674779 -0.485889
C55   C     C_2   0.413660 0.916675 0.636292 0.325137
H13   H     H_    0.389175 0.986048 0.679941 0.080281
O13   O     O_2   0.403675 0.805300 0.646220 -0.550163
C56   C     C_2   0.584166 0.090399 0.366872 0.345763
H14   H     H_    0.608648 0.148914 0.426869 0.063646
O14   O     O_2   0.593445 0.065366 0.243241 -0.546985
N5    N     N_2   0.563543 0.668288 0.886101 -0.409222
H15   H     H_    0.546265 0.745161 0.844795 0.261669
C57   C     C_3   0.604709 0.701561 0.970195 -0.713439
H16   H     H_    0.625990 0.775886 0.914986 0.250659
H17   H     H_    0.628251 0.618617 0.982520 0.225320
H18   H     H_    0.592927 0.737313 0.075805 0.238430
N6    N     N_2   0.435484 0.331807 0.108537 -0.416325
H19   H     H_    0.451879 0.263863 0.168316 0.274121
C58   C     C_3   0.402367 0.278570 0.007623 -0.764014
H20   H     H_    0.377364 0.212726 0.063162 0.248160
H21   H     H_    0.422356 0.226297 0.923696 0.222986
H22   H     H_    0.380600 0.353591 0.958331 0.230940
C59   C     C_2   0.262617 0.351726 0.752637 0.455485
H23   H     H_    0.286226 0.291051 0.812354 0.058410
O15   O     O_2   0.220544 0.359204 0.790386 -0.514059
C60   C     C_2   0.734532 0.476325 0.808413 0.415486
H24   H     H_    0.710131 0.490305 0.897787 0.049094
O16   O     O_2   0.775382 0.441119 0.831942 -0.528418
C61   C     C_2   0.127788 0.140340 0.514173 0.490677
H25   H     H_    0.117615 0.068106 0.439167 0.067357
O17   O     O_2   0.160269 0.119689 0.596878 -0.456660
C62   C     C_2   0.872331 0.771334 0.822336 0.478599
H26   H     H_    0.843112 0.738205 0.890454 0.115470
O18   O     O_2   0.881518 0.883500 0.817817 -0.530190
N7    N     N_2   0.661099 0.505900 0.245954 -0.481603
H27   H     H_    0.631463 0.559142 0.223680 0.274156
C63   C     C_3   0.661711 0.380454 0.186698 -0.653956
H28   H     H_    0.633163 0.321881 0.237637 0.250251
H29   H     H_    0.697215 0.335419 0.202819 0.260910
H30   H     H_    0.655602 0.385006 0.070781 0.207319
N8    N     N_2   0.348201 0.651712 0.309278 -0.447042
H31   H     H_    0.379865 0.693965 0.340107 0.277025
C64   C     C_3   0.350414 0.601455 0.166739 -0.664416
H32   H     H_    0.372741 0.515735 0.163872 0.268778
H33   H     H_    0.366638 0.672415 0.093942 0.225595
H34   H     H_    0.313888 0.577764 0.128346 0.236352
C65   C     C_2   0.760233 0.552251 0.279829 0.449048
H35   H     H_    0.747175 0.537902 0.173141 0.117126
O19   O     O_2   0.800660 0.595907 0.292689 -0.539032
C66   C     C_2   0.245782 0.643052 0.327964 0.446626
H36   H     H_    0.261372 0.724571 0.275372 0.120382
O20   O     O_2   0.204238 0.614692 0.301398 -0.533288
C67   C     C_2   0.878629 0.222741 0.320925 0.483950
H37   H     H_    0.892201 0.127989 0.307899 0.063873
O21   O     O_2   0.848486 0.261214 0.238708 -0.475030
C68   C     C_2   0.125131 0.832483 0.645495 0.462231
H38   H     H_    0.111178 0.904488 0.716094 0.062211
O22   O     O_2   0.157095 0.859604 0.560608 -0.467128
N9    N     N_2   0.025581 0.143154 0.535205 -0.455909
H39   H     H_    0.038063 0.072951 0.469494 0.231244
C69   C     C_3   0.013883 0.100599 0.677300 -0.633017
H40   H     H_    0.991738 0.013648 0.671858 0.230705
H41   H     H_    0.992793 0.173002 0.735403 0.253883
H42   H     H_    0.047336 0.080066 0.736016 0.216485
N10   N     N_2   0.974038 0.740660 0.850021 -0.453813
H43   H     H_    0.963825 0.832303 0.866201 0.286323
C70   C     C_3   0.980275 0.670759 0.979940 -0.632007
H44   H     H_    0.002238 0.726893 0.054613 0.232551
H45   H     H_    0.999352 0.581246 0.958090 0.243200
H46   H     H_    0.944713 0.650348 0.030480 0.231151

loop_
_geom_bond_atom_site_label_1
_geom_bond_atom_site_label_2
_ccdc_geom_bond_type
Cu1   Cu2   S    
C57   H16   S    
C27   C29   S    
C8    C26   A    
C14   C18   A    
C11   C47   A    
C70   H44   S    
C42   O10   S    
C12   C48   A    
C44   O11   S    
C53   N1    S    
C49   C51   A    
C62   O18   D    
N6    H19   S    
C49   H1    S    
C64   H32   S    
C55   H13   S    
C27   C33   S    
Cu2   O7    S    
C11   C49   A    
C20   H10   S    
C70   H45   S    
C37   C40   S    
C63   H29   S    
C38   C39   S    
Cu1   O5    S    
C9    C22   A    
C47   N8    S    
C60   H24   S    
C51   C59   S    
N7    H27   S    
C42   N2    A    
Cu2   O6    S    
C3    C18   A    
C45   C47   A    
C21   C67   S    
C11   C23   S    
C33   C55   S    
N6    C58   S    
C29   H11   S    
C24   O8    A    
N7    C63   S    
C50   C52   A    
C31   C33   S    
C44   N2    A    
C66   O20   D    
C2    O2    A    
C36   N3    S    
C36   H8    S    
C55   O13   D    
C45   C53   A    
C45   C66   S    
C57   H17   S    
Cu2   O3    S    
C43   O12   S    
C39   N5    S    
C62   H26   S    
N10   C70   S    
C52   C54   A    
N10   H43   S    
C46   C48   A    
C28   H4    S    
C10   C21   A    
C38   N4    S    
C9    C43   A    
Cu2   O2    S    
C13   C19   A    
C10   C44   A    
C1    O3    A    
C14   C20   A    
C46   C65   S    
C36   C40   S    
C70   H46   S    
C4    C6    A    
C63   H30   S    
N5    H15   S    
C5    C7    A    
C15   C26   A    
C6    C8    A    
Cu2   N4    S    
C29   C34   S    
C1    C32   S    
C7    C61   S    
C22   C68   S    
C2    C31   S    
C51   C53   A    
C69   H41   S    
C50   H2    S    
C26   N10   S    
C35   C39   S    
C65   O19   D    
C3    C9    A    
N5    C57   S    
C37   H5    S    
C58   H20   S    
C54   N2    S    
C41   O9    S    
C46   C54   A    
C59   O15   D    
C16   C18   A    
C34   C56   S    
C23   O5    A    
C25   N9    S    
N8    H31   S    
C48   N7    S    
C4    C17   A    
C68   O22   D    
C58   H21   S    
C56   O14   D    
C35   N4    S    
C57   H18   S    
C37   N3    S    
C67   H37   S    
C69   H42   S    
Cu1   O4    S    
C4    C10   A    
C65   H35   S    
C40   N6    S    
C2    O4    A    
C35   C37   S    
C41   N1    A    
C24   O6    A    
C16   C25   A    
C15   C17   A    
C5    C41   A    
C40   N4    S    
C30   C33   S    
C19   C21   A    
C27   C32   S    
C28   C31   S    
C20   C22   A    
C68   H38   S    
C3    C5    A    
C12   C50   A    
N9    H39   S    
C12   C24   S    
C7    C25   A    
C13   C17   A    
C1    O1    A    
C61   O17   D    
C66   H36   S    
C28   C30   S    
C29   C31   S    
C27   H3    S    
C63   H28   S    
C30   C32   S    
Cu1   O8    S    
N9    C69   S    
C60   O16   D    
C36   C38   S    
C8    C62   S    
C19   H9    S    
C28   C34   S    
C64   H34   S    
Cu1   N3    S    
N8    C64   S    
C64   H33   S    
C52   C60   S    
Cu1   O1    S    
C58   H22   S    
C56   H14   S    
C43   N1    A    
C6    C42   A    
C13   C16   A    
C61   H25   S    
C59   H23   S    
C67   O21   D    
C39   N3    S    
C14   C15   A    
C35   H7    S    
C23   O7    A    
C69   H40   S    
C30   H12   S    
C32   C34   S    
C38   H6    S    
