data_mof_unit_59155.cif
_audit_creation_date              2013-03-05T16:43:18-0500
_audit_creation_method            fapswitch 2.2
_symmetry_space_group_name_H-M    P1
_symmetry_Int_Tables_number       1
_space_group_crystal_system       triclinic
_cell_length_a                    15.767746
_cell_length_b                    10.655998
_cell_length_c                    9.882364
_cell_angle_alpha                 90.10819
_cell_angle_beta                  89.508133
_cell_angle_gamma                 90.48642
_cell_volume                      1660.32161616

loop_
_atom_site_label
_atom_site_type_symbol
_atom_site_description
_atom_site_fract_x
_atom_site_fract_y
_atom_site_fract_z
_atom_type_partial_charge
O1    O     O_R   0.500010 0.316790 0.614690 -0.611048
O2    O     O_R   0.500000 0.316760 0.385350 -0.572542
C1    C     C_R   0.507651 0.260468 0.499107 0.901448
O3    O     O_R   0.377150 0.500020 0.614720 -0.615473
O4    O     O_R   0.377140 0.499990 0.385380 -0.613713
C2    C     C_R   0.338514 0.500300 0.500698 0.902873
Zn1   Zn    Zn3+2 0.500010 0.500020 0.653130 1.042592
Zn2   Zn    Zn3+2 0.499990 0.499980 0.346870 1.090294
O5    O     O_R   0.500000 0.683240 0.614650 -0.610064
O6    O     O_R   0.499990 0.683210 0.385310 -0.605107
O7    O     O_R   0.622860 0.500010 0.614620 -0.607951
O8    O     O_R   0.622850 0.499980 0.385280 -0.560392
C3    C     C_R   0.502263 0.740287 0.499984 0.945461
C4    C     C_R   0.661495 0.500205 0.499499 0.897354
C5    C     C_3   0.048696 0.468944 0.646464 -0.038462
C6    C     C_3   0.051524 0.419183 0.396674 -0.452325
C7    C     C_3   0.952990 0.397915 0.406728 0.363316
H1    H     H_    0.069707 0.457008 0.296028 0.295595
C8    C     C_1   0.749975 0.502478 0.499012 0.089886
C9    C     C_3   0.083495 0.513192 0.505091 -0.176168
C10   C     C_3   0.948712 0.486417 0.655794 0.292075
C11   C     C_3   0.916875 0.508282 0.502628 -0.366851
C12   C     C_3   0.950351 0.643091 0.447930 0.279089
C13   C     C_3   0.049902 0.647450 0.472394 0.029167
C14   C     C_1   0.825155 0.505063 0.500348 0.247831
C15   C     C_1   0.175076 0.508955 0.504339 0.197098
C16   C     C_1   0.250085 0.504528 0.502645 -0.035035
C17   C     C_R   0.542975 0.064784 0.614688 0.030110
C18   C     C_R   0.529600 0.130242 0.494833 -0.214234
C19   C     C_R   0.534087 0.063478 0.370502 0.313280
C20   C     C_R   0.525689 0.933931 0.373722 -0.162790
C21   C     C_R   0.518266 0.871713 0.498062 -0.114657
C22   C     C_R   0.536205 0.937071 0.616376 0.009564
C23   C     C_3   0.501039 0.934233 0.757868 0.047127
C24   C     C_3   0.510436 0.077411 0.756881 0.058396
C25   C     C_R   0.437997 0.437338 0.071853 0.155671
N1    N     N_R   0.499430 0.499140 0.142800 -0.184914
C26   C     C_R   0.566641 0.549233 0.069648 0.331671
C27   C     C_R   0.566203 0.548420 0.926046 -0.076834
N2    N     N_R   0.499430 0.499180 0.857150 -0.123953
C28   C     C_R   0.437644 0.438603 0.929516 0.192584
C29   C     C_3   0.344848 0.462753 0.923499 -0.472573
C30   C     C_3   0.344607 0.460873 0.077534 0.078254
N3    N     N_R   0.910061 0.371930 0.718443 0.255589
O9    O     O_R   0.828027 0.358684 0.726554 -0.268376
O10   O     O_R   0.955318 0.296450 0.791381 -0.212659
N4    N     N_R   0.094126 0.519634 0.765061 0.253406
O11   O     O_R   0.146014 0.615044 0.756011 -0.320628
O12   O     O_R   0.082835 0.466960 0.882589 -0.212458
N5    N     N_R   0.923179 0.594321 0.742341 0.252628
O13   O     O_R   0.975739 0.682948 0.777881 -0.234400
O14   O     O_R   0.844425 0.604745 0.781172 -0.247665
N6    N     N_R   0.927814 0.657731 0.303112 0.252687
O15   O     O_R   0.851011 0.689559 0.271231 -0.208744
O16   O     O_R   0.980797 0.634431 0.204734 -0.232946
N7    N     N_R   0.542474 0.124031 0.241442 0.243123
O17   O     O_R   0.606545 0.198977 0.218222 -0.262918
O18   O     O_R   0.495730 0.087303 0.140735 -0.317289
H2    H     H_    0.521450 0.883561 0.278745 0.228563
N8    N     N_R   0.412389 0.892301 0.764386 0.234998
O19   O     O_R   0.356111 0.937142 0.682221 -0.337345
O20   O     O_R   0.389366 0.808753 0.853457 -0.341896
H3    H     H_    0.542632 0.884467 0.830279 0.172747
H4    H     H_    0.450063 0.130279 0.766136 0.170215
N9    N     N_R   0.577139 0.123545 0.846880 0.263982
O21   O     O_R   0.650796 0.069327 0.850686 -0.250504
O22   O     O_R   0.565962 0.227148 0.913950 -0.302369
N10   N     N_R   0.637899 0.604764 0.135750 0.236312
O23   O     O_R   0.714046 0.573640 0.097513 -0.223654
O24   O     O_R   0.627998 0.706317 0.206858 -0.347367
H5    H     H_    0.063082 0.367005 0.646938 0.197901
H6    H     H_    0.618222 0.590968 0.870106 0.196454
H7    H     H_    0.330424 0.556655 0.881114 0.253603
H8    H     H_    0.309623 0.383634 0.875813 0.246448
H9    H     H_    0.327406 0.552199 0.124764 0.174818
N11   N     N_R   0.297074 0.353881 0.132936 0.266470
O25   O     O_R   0.316794 0.239272 0.100192 -0.284834
O26   O     O_R   0.231846 0.373327 0.211260 -0.338869
H10   H     H_    0.086857 0.329619 0.402088 0.255764
N12   N     N_R   0.931715 0.273190 0.464611 0.239393
O27   O     O_R   0.853274 0.234007 0.464785 -0.252154
O28   O     O_R   0.989712 0.195609 0.504552 -0.279291
N13   N     N_R   0.918042 0.398485 0.267560 0.263877
O29   O     O_R   0.836965 0.409794 0.248142 -0.256041
O30   O     O_R   0.962204 0.349332 0.169131 -0.209363
H11   H     H_    0.062383 0.701619 0.565976 0.214480
N14   N     N_R   0.097215 0.715844 0.365458 0.264506
O31   O     O_R   0.087342 0.836395 0.353585 -0.208762
O32   O     O_R   0.148984 0.659697 0.282220 -0.307188
N15   N     N_R   0.910975 0.750373 0.521542 0.247948
O33   O     O_R   0.829003 0.757034 0.535974 -0.295700
O34   O     O_R   0.954187 0.853323 0.541875 -0.208141

loop_
_geom_bond_atom_site_label_1
_geom_bond_atom_site_label_2
_geom_bond_distance
_ccdc_geom_bond_type
N14   O31   1.300942 A    
C28   C29   1.489500 S    
C3    C21   1.421044 S    
C5    N4    1.477822 S    
N4    O12   1.301130 A    
N6    O15   1.301836 A    
Zn1   O7    1.970891 S    
C15   C16   1.184026 T    
N1    C26   1.381787 A    
C25   N1    1.364799 A    
N11   O26   1.299701 A    
O4    C2    1.287546 A    
O7    C4    1.285875 A    
C24   N9    1.464421 S    
N7    O17   1.301567 A    
N8    O20   1.300464 A    
C23   C24   1.531675 S    
C20   H2    1.082623 S    
C1    C18   1.433494 S    
O5    C3    1.287017 A    
C20   C21   1.400875 A    
C17   C24   1.498004 S    
C6    C7    1.570525 S    
N9    O22   1.299124 A    
C11   C14   1.446693 S    
N5    O14   1.302147 A    
Zn1   N2    2.016179 S    
C24   H4    1.113260 S    
C2    C16   1.395407 S    
C6    C9    1.549899 S    
C10   C11   1.616714 S    
C23   N8    1.464799 S    
C25   C28   1.406773 A    
O3    Zn1   1.977258 S    
C10   N5    1.487929 S    
N3    O10   1.302486 A    
C12   N6    1.486371 S    
N6    O16   1.301314 A    
C30   H9    1.113126 S    
C5    C9    1.568502 S    
C29   H8    1.111943 S    
N4    O11   1.302308 A    
C9    C13   1.565030 S    
N11   O25   1.302350 A    
N12   O28   1.302211 A    
C27   N2    1.359767 A    
N10   O23   1.301098 A    
N5    O13   1.300987 A    
C19   N7    1.435018 S    
C7    N12   1.482625 S    
N8    O19   1.302344 A    
O1    C1    1.294486 A    
C18   C19   1.420167 A    
C10   N3    1.492252 S    
N15   O34   1.302673 A    
N13   O29   1.300980 A    
C19   C20   1.386075 A    
Zn2   O8    1.977258 S    
C22   C23   1.500038 S    
C12   N15   1.490889 S    
C27   H6    1.082029 S    
O3    C2    1.285555 A    
N2    C28   1.362477 A    
N13   O30   1.303088 A    
O8    C4    1.287313 A    
C17   C22   1.364304 A    
N14   O32   1.302238 A    
Zn2   N1    2.016792 S    
N3    O9    1.301792 A    
C30   N11   1.463608 S    
Zn1   O5    1.989788 S    
C17   C18   1.394224 A    
C29   H7    1.111532 S    
O1    Zn1   1.988405 S    
C4    C8    1.395103 S    
Zn2   O6    1.988405 S    
O2    Zn2   1.989788 S    
C26   N10   1.428003 S    
N12   O27   1.302039 A    
O6    C3    1.285767 A    
O4    Zn2   1.970889 S    
C5    H5    1.111606 S    
C7    C11   1.613537 S    
C6    H10   1.110789 S    
C21   C22   1.389754 A    
O2    C1    1.282290 A    
N15   O33   1.301655 A    
C26   C27   1.419214 A    
C9    C15   1.445082 S    
C23   H3    1.113014 S    
N7    O18   1.301191 A    
C8    C14   1.185695 T    
C13   N14   1.478049 S    
C12   C13   1.590523 S    
C5    C10   1.590921 S    
C6    H1    1.108420 S    
N9    O21   1.302419 A    
C29   C30   1.522370 S    
N10   O24   1.298981 A    
C11   C12   1.618514 S    
C25   C30   1.496411 S    
C7    N13   1.486026 S    
C13   H11   1.107422 S    
