data_mof_unit_29549.cif
_audit_creation_date              2012-12-10T17:23:13-0500
_audit_creation_method            fapswitch 2.2
_symmetry_space_group_name_H-M    P1
_symmetry_Int_Tables_number       1
_space_group_crystal_system       triclinic
_cell_length_a                    15.848729
_cell_length_b                    10.758288
_cell_length_c                    9.639715
_cell_angle_alpha                 90.873039
_cell_angle_beta                  89.347226
_cell_angle_gamma                 92.511422
_cell_volume                      1641.75750267

loop_
_atom_site_label
_atom_site_type_symbol
_atom_type_description
_atom_site_fract_x
_atom_site_fract_y
_atom_site_fract_z
_atom_type_partial_charge
C1    C     C_R   0.496778 0.262708 0.499296 0.779302
C2    C     C_3   0.082956 0.504052 0.503876 0.117380
C3    C     C_3   0.975042 0.622292 0.509230 -0.199557
C4    C     C_3   0.917174 0.504039 0.500627 0.173065
C5    C     C_3   0.031479 0.567423 0.392861 -0.177264
C6    C     C_3   0.971924 0.449454 0.384200 -0.130040
C7    C     C_1   0.174714 0.502462 0.503131 -0.000789
C8    C     C_1   0.825435 0.503108 0.498814 -0.042783
C9    C     C_R   0.361075 0.123030 0.644803 -0.177735
C10   C     C_R   0.298377 0.055114 0.717127 -0.149034
C11   C     C_R   0.298885 0.925897 0.718791 -0.113259
C12   C     C_R   0.340032 0.499796 0.500661 0.784119
C13   C     C_R   0.362086 0.863771 0.648124 -0.134494
C14   C     C_R   0.427083 0.930779 0.575771 0.072076
C15   C     C_R   0.426632 0.062159 0.574176 0.094843
C16   C     C_R   0.490408 0.128450 0.498060 -0.098710
C17   C     C_R   0.550633 0.066131 0.420547 -0.194824
C18   C     C_R   0.551126 0.938042 0.422211 -0.164305
C19   C     C_R   0.491341 0.870441 0.501269 -0.095509
C20   C     C_R   0.629635 0.630908 0.144734 -0.120434
C21   C     C_R   0.706206 0.656634 0.077889 -0.234531
C22   C     C_R   0.710907 0.644964 0.935005 -0.230463
C23   C     C_R   0.497010 0.736916 0.500681 0.805870
C24   C     C_R   0.635331 0.629706 0.861748 0.031695
C25   C     C_R   0.564724 0.564970 0.926350 0.141886
C26   C     C_R   0.563667 0.564804 0.075299 0.211042
C27   C     C_R   0.439270 0.437580 0.073662 -0.044118
C28   C     C_R   0.439137 0.437891 0.926110 -0.035892
C29   C     C_R   0.659968 0.500407 0.499384 0.845575
C30   C     C_3   0.968222 0.440570 0.611962 -0.200136
C31   C     C_3   0.024626 0.386172 0.495349 -0.187372
C32   C     C_1   0.250295 0.501083 0.502215 -0.147923
C33   C     C_1   0.749786 0.501879 0.498304 -0.144433
C34   C     C_3   0.027483 0.558027 0.618912 0.041108
Cu1   Cu    Cu3+1 0.499990 0.499990 0.640660 0.966556
Cu2   Cu    Cu3+1 0.500010 0.500010 0.359340 0.945920
H1    H     H_    0.046051 0.289344 0.489485 0.144412
H2    H     H_    0.249510 0.873468 0.773693 0.155446
H3    H     H_    0.358393 0.763280 0.649139 0.157761
H4    H     H_    0.599599 0.891345 0.363746 0.150777
H5    H     H_    0.389562 0.385750 0.128276 0.137899
H6    H     H_    0.624190 0.665079 0.248863 0.191391
H7    H     H_    0.759561 0.696144 0.135177 0.172045
H8    H     H_    0.767838 0.681807 0.884054 0.190391
H9    H     H_    0.389350 0.386379 0.871404 0.134233
H10   H     H_    0.941194 0.389010 0.702171 0.148760
H11   H     H_    0.947621 0.404692 0.287224 0.141892
H12   H     H_    0.058515 0.619253 0.302867 0.153426
H13   H     H_    0.953584 0.719103 0.515488 0.151895
H14   H     H_    0.598886 0.117206 0.361328 0.155982
H15   H     H_    0.356470 0.222936 0.642847 0.137903
H16   H     H_    0.248588 0.102915 0.770688 0.138004
N1    N     N_R   0.500800 0.501210 0.147910 -0.196239
N2    N     N_R   0.500830 0.501290 0.852040 -0.200797
O1    O     O_R   0.499990 0.319640 0.618810 -0.579931
O2    O     O_R   0.500000 0.319660 0.381240 -0.573212
O3    O     O_R   0.379070 0.499980 0.618770 -0.584761
O4    O     O_R   0.379080 0.500000 0.381190 -0.577817
O5    O     O_R   0.500000 0.680340 0.618760 -0.567270
O6    O     O_R   0.500010 0.680360 0.381190 -0.596810
O7    O     O_R   0.620920 0.500000 0.618810 -0.574160
O8    O     O_R   0.620930 0.500020 0.381230 -0.599143
C35   C     C_2   0.623759 0.741195 0.779136 0.896765
O9    O     O_2   0.670376 0.764504 0.679939 -0.632928
O10   O     O_R   0.564703 0.826616 0.823557 -0.755175
H17   H     H_    0.567386 0.905161 0.766685 0.333112
C36   C     C_2   0.056898 0.619302 0.751448 0.815442
O11   O     O_2   0.004982 0.658030 0.834295 -0.604315
O12   O     O_R   0.143117 0.631891 0.779843 -0.777692
H18   H     H_    0.154826 0.674639 0.872516 0.325877

loop_
_geom_bond_atom_site_label_1
_geom_bond_atom_site_label_2
_ccdc_geom_bond_type
C34   C36   S    
C17   H14   S    
C11   H2    S    
C19   C23   S    
C24   C25   A    
C35   O10   S    
Cu2   O2    S    
Cu2   N1    S    
Cu1   O5    S    
C9    C10   A    
C27   H5    S    
C20   H6    S    
C2    C7    S    
C9    H15   S    
C4    C8    S    
C30   C31   S    
Cu1   O3    S    
C4    C30   S    
C10   H16   S    
C2    C34   S    
C27   N1    A    
C17   C18   A    
C3    H13   S    
C12   O4    A    
Cu1   O7    S    
C1    C16   S    
C21   H7    S    
C13   C14   A    
C12   C32   S    
Cu1   N2    S    
C23   O5    A    
C11   C13   A    
C5    C6    S    
C20   C26   A    
C25   N2    A    
Cu2   O6    S    
Cu2   O8    S    
C12   O3    A    
O12   H18   S    
C25   C26   A    
C1    O2    A    
C6    C31   S    
C24   C35   S    
Cu2   O4    S    
C8    C33   T    
O10   H17   S    
C1    O1    A    
C23   O6    A    
C5    H12   S    
C22   C24   A    
C28   H9    S    
C13   H3    S    
C2    C5    S    
C10   C11   A    
C30   C34   S    
C35   O9    D    
Cu1   O1    S    
C15   C16   A    
C26   N1    A    
C29   C33   S    
C20   C21   A    
C4    C6    S    
C18   C19   A    
C6    H11   S    
C27   C28   A    
C18   H4    S    
C29   O8    A    
C16   C17   A    
C28   N2    A    
C7    C32   T    
C29   O7    A    
C36   O12   S    
C3    C34   S    
C21   C22   A    
C14   C15   A    
C14   C19   A    
C30   H10   S    
C22   H8    S    
C3    C4    S    
C36   O11   D    
C9    C15   A    
C31   H1    S    
C2    C31   S    
C3    C5    S    
Cu1   Cu2   S    
