data_mof_unit_52287.cif
_audit_creation_date              2012-12-10T20:31:50-0500
_audit_creation_method            fapswitch 2.2
_symmetry_space_group_name_H-M    P1
_symmetry_Int_Tables_number       1
_space_group_crystal_system       triclinic
_cell_length_a                    9.870636
_cell_length_b                    10.694359
_cell_length_c                    15.527833
_cell_angle_alpha                 90.177452
_cell_angle_beta                  67.668601
_cell_angle_gamma                 89.982437
_cell_volume                      1516.17944512

loop_
_atom_site_label
_atom_site_type_symbol
_atom_type_description
_atom_site_fract_x
_atom_site_fract_y
_atom_site_fract_z
_atom_type_partial_charge
C1    C     C_R   0.499864 0.739572 0.500368 0.885389
C2    C     C_R   0.423815 0.449329 0.908558 0.110525
C3    C     C_R   0.288741 0.389936 0.958470 0.106636
C4    C     C_R   0.532454 0.458077 0.947208 0.073310
C5    C     C_R   0.495088 0.426284 0.041777 0.067318
C6    C     C_R   0.358575 0.367636 0.090475 -0.222489
C7    C     C_R   0.258214 0.348401 0.048759 -0.210325
C8    C     C_R   0.678347 0.493909 0.893569 -0.193106
C9    C     C_R   0.780398 0.510753 0.934121 -0.185213
C10   C     C_R   0.739571 0.495243 0.029505 0.159210
C11   C     C_R   0.595810 0.454546 0.084246 0.092341
C12   C     C_R   0.408020 0.495807 0.676046 0.910302
C13   C     C_R   0.839315 0.523610 0.071445 -0.204728
C14   C     C_R   0.794328 0.520582 0.168027 -0.200535
C15   C     C_R   0.553383 0.453057 0.180759 -0.260877
C16   C     C_R   0.443329 0.936716 0.445143 0.117435
C17   C     C_R   0.503314 0.871155 0.499137 -0.104205
C18   C     C_R   0.578092 0.933352 0.547018 -0.260919
C19   C     C_R   0.576852 0.062534 0.550128 -0.027079
C20   C     C_R   0.501704 0.128120 0.502850 -0.134647
C21   C     C_R   0.442841 0.064414 0.446848 0.098748
C22   C     C_3   0.293372 0.071590 0.443871 -0.473123
C23   C     C_R   0.498766 0.260346 0.502656 0.895000
C24   C     C_3   0.294152 0.929845 0.442007 -0.462540
C25   C     C_R   0.911473 0.603062 0.529298 0.223051
C26   C     C_R   0.950452 0.403226 0.462630 -0.121008
C27   C     C_R   0.094484 0.403409 0.462385 -0.103685
C28   C     C_R   0.053586 0.602572 0.529955 0.207543
C29   C     C_3   0.002455 0.659094 0.624808 -0.491037
C30   C     C_3   0.849453 0.661083 0.623645 -0.508009
C31   C     C_R   0.591634 0.497971 0.324055 0.864101
C32   C     C_R   0.351216 0.472438 0.776477 -0.147530
C33   C     C_R   0.649366 0.489478 0.222753 -0.056947
C34   C     C_R   0.187257 0.370403 0.916494 -0.265669
C35   C     C_R   0.219932 0.406931 0.824477 0.370040
C36   C     C_R   0.445817 0.499428 0.821497 -0.309295
H1    H     H_    0.155841 0.301530 0.087635 0.149184
H2    H     H_    0.950120 0.552663 0.029850 0.147947
H3    H     H_    0.629503 0.881415 0.586327 0.156352
H4    H     H_    0.210164 0.111462 0.508652 0.230177
H5    H     H_    0.295450 0.113733 0.378030 0.188812
H6    H     H_    0.211581 0.887972 0.505703 0.209527
H7    H     H_    0.296598 0.890102 0.375197 0.200958
H8    H     H_    0.913538 0.324065 0.433913 0.148212
H9    H     H_    0.166049 0.324717 0.433119 0.137283
H10   H     H_    0.013735 0.594261 0.677549 0.247940
H11   H     H_    0.442334 0.431090 0.225215 0.154453
H12   H     H_    0.048132 0.753991 0.624651 0.194511
H13   H     H_    0.772125 0.598127 0.675675 0.213447
H14   H     H_    0.807802 0.757154 0.622035 0.195616
H15   H     H_    0.870565 0.547263 0.199822 0.159155
H16   H     H_    0.890167 0.540701 0.891162 0.180619
H17   H     H_    0.085456 0.321760 0.953779 0.179042
H18   H     H_    0.538879 0.558239 0.786146 0.155839
H19   H     H_    0.328594 0.330733 0.159803 0.138569
H20   H     H_    0.717968 0.505714 0.819270 0.160265
N1    N     N_R   0.856900 0.500860 0.500610 -0.103574
N2    N     N_R   0.142540 0.500820 0.500610 -0.093382
O1    O     O_R   0.385310 0.683210 0.499990 -0.621102
O2    O     O_R   0.614650 0.683240 0.500000 -0.621861
O3    O     O_R   0.319830 0.499970 0.632240 -0.562197
O4    O     O_R   0.549170 0.500000 0.632250 -0.617097
O5    O     O_R   0.385350 0.316760 0.500000 -0.604794
O6    O     O_R   0.614690 0.316790 0.500010 -0.622909
O7    O     O_R   0.450830 0.500000 0.367750 -0.622784
O8    O     O_R   0.680170 0.500030 0.367760 -0.617973
Zn1   Zn    Zn3+2 0.346870 0.499980 0.499990 0.974194
Zn2   Zn    Zn3+2 0.653130 0.500020 0.500010 0.952260
C37   C     C_1   0.642000 0.123702 0.608314 0.197932
N3    N     N_1   0.694026 0.172666 0.654856 -0.171819
Cl1   Cl    Cl    0.098801 0.359876 0.771438 -0.650777

loop_
_geom_bond_atom_site_label_1
_geom_bond_atom_site_label_2
_ccdc_geom_bond_type
C8    C9    A    
C31   O8    A    
C2    C4    A    
C18   H3    S    
C31   C33   S    
C16   C21   A    
C29   C30   S    
C28   N2    A    
C12   O4    A    
C9    C10   A    
O3    Zn1   S    
O8    Zn2   S    
C19   C20   A    
C20   C23   S    
C15   H11   S    
C6    H19   S    
C4    C8    A    
C22   H4    S    
C27   H9    S    
C14   C33   A    
C23   O5    A    
C17   C18   A    
C13   H2    S    
C35   Cl1   S    
C16   C24   S    
C13   C14   A    
C12   C32   S    
C25   C28   A    
C12   O3    A    
C30   H14   S    
C8    H20   S    
C26   C27   A    
C6    C7    A    
C9    H16   S    
C25   N1    A    
C24   H7    S    
C27   N2    A    
C5    C6    A    
C32   C36   A    
C22   C24   S    
C28   C29   S    
C30   H13   S    
C5    C11   A    
C3    C7    A    
C2    C3    A    
O4    Zn2   S    
C1    O1    A    
C7    H1    S    
C37   N3    T    
C34   C35   A    
C26   N1    A    
O5    Zn1   S    
C19   C37   S    
C22   H5    S    
C36   H18   S    
C10   C11   A    
N1    Zn2   S    
C26   H8    S    
C11   C15   A    
C32   C35   A    
O6    Zn2   S    
N2    Zn1   S    
C24   H6    S    
C20   C21   A    
O2    Zn2   S    
C34   H17   S    
C29   H10   S    
C1    O2    A    
C2    C36   A    
C25   C30   S    
C31   O7    A    
C18   C19   A    
C23   O6    A    
C29   H12   S    
C3    C34   A    
O1    Zn1   S    
C21   C22   S    
C1    C17   S    
C15   C33   A    
C14   H15   S    
C16   C17   A    
C4    C5    A    
O7    Zn1   S    
C10   C13   A    
