data_mof_unit_10792.cif
_audit_creation_date              2012-12-10T17:22:10-0500
_audit_creation_method            fapswitch 2.2
_symmetry_space_group_name_H-M    P1
_symmetry_Int_Tables_number       1
_space_group_crystal_system       triclinic
_cell_length_a                    15.859139
_cell_length_b                    10.761511
_cell_length_c                    9.604533
_cell_angle_alpha                 90.119707
_cell_angle_beta                  89.949363
_cell_angle_gamma                 92.60349
_cell_volume                      1637.49326001

loop_
_atom_site_label
_atom_site_type_symbol
_atom_type_description
_atom_site_fract_x
_atom_site_fract_y
_atom_site_fract_z
_atom_type_partial_charge
C1    C     C_R   0.497170 0.262616 0.499921 0.786037
C2    C     C_3   0.948783 0.437825 0.630562 -0.437939
C3    C     C_3   0.917686 0.511334 0.502728 0.128591
C4    C     C_3   0.956435 0.649758 0.500036 0.801777
C5    C     C_3   0.055626 0.642277 0.499788 -0.446681
C6    C     C_1   0.825159 0.507138 0.501066 0.045192
C7    C     C_1   0.175192 0.502678 0.501260 -0.055001
C8    C     C_1   0.250710 0.500854 0.500463 -0.192889
C9    C     C_R   0.360470 0.120641 0.640235 -0.192156
C10   C     C_R   0.296511 0.051476 0.708400 -0.141328
C11   C     C_R   0.296633 0.922215 0.708665 -0.125111
C12   C     C_R   0.340336 0.499517 0.500124 0.800549
C13   C     C_R   0.360763 0.861341 0.640909 -0.176895
C14   C     C_R   0.426951 0.929581 0.572645 0.096416
C15   C     C_R   0.426779 0.060953 0.572299 0.099845
C16   C     C_R   0.491526 0.128461 0.499652 -0.098146
C17   C     C_R   0.552528 0.067519 0.424209 -0.191416
C18   C     C_R   0.552730 0.939404 0.424565 -0.195431
C19   C     C_R   0.491890 0.870507 0.500296 -0.087580
C20   C     C_R   0.612267 0.665479 0.144106 -0.132000
C21   C     C_R   0.666915 0.746627 0.072060 -0.219302
C22   C     C_R   0.666919 0.746702 0.928620 -0.166910
C23   C     C_R   0.497566 0.737092 0.500133 0.772018
C24   C     C_R   0.612170 0.665720 0.856272 -0.116077
C25   C     C_R   0.555108 0.581431 0.925306 0.194752
C26   C     C_R   0.555133 0.581337 0.074855 0.209163
C27   C     C_R   0.447455 0.422701 0.073752 -0.055385
C28   C     C_R   0.447464 0.422735 0.925909 -0.055307
C29   C     C_R   0.659684 0.500600 0.499913 0.805867
C30   C     C_3   0.046647 0.439466 0.635017 0.358565
C31   C     C_3   0.046364 0.438416 0.371904 -0.487271
C32   C     C_3   0.949005 0.441970 0.371331 -0.452547
C33   C     C_1   0.749463 0.503592 0.500042 -0.126097
C34   C     C_3   0.083024 0.505645 0.502778 0.168136
Cu1   Cu    Cu3+1 0.499990 0.499990 0.640660 0.934161
Cu2   Cu    Cu3+1 0.500010 0.500010 0.359340 0.938075
H1    H     H_    0.924185 0.339406 0.622915 0.134090
H2    H     H_    0.922031 0.472152 0.729182 0.246553
H3    H     H_    0.601412 0.119660 0.367305 0.151001
H4    H     H_    0.356273 0.220616 0.639221 0.133297
H5    H     H_    0.246077 0.098370 0.759728 0.131230
H6    H     H_    0.246267 0.868773 0.760165 0.150500
H7    H     H_    0.356804 0.760855 0.640594 0.153498
H8    H     H_    0.601763 0.893749 0.367883 0.139584
H9    H     H_    0.404365 0.359294 0.128761 0.137764
H10   H     H_    0.065024 0.340330 0.631710 0.054976
H11   H     H_    0.617795 0.673141 0.253824 0.195593
H12   H     H_    0.709564 0.810035 0.128295 0.147315
H13   H     H_    0.709682 0.810102 0.872682 0.190709
H14   H     H_    0.617536 0.673623 0.746533 0.207247
H15   H     H_    0.404374 0.359354 0.870677 0.131448
H16   H     H_    0.072134 0.483827 0.275877 0.207630
H17   H     H_    0.065179 0.340004 0.370105 0.183624
H18   H     H_    0.921381 0.344972 0.368674 0.184848
H19   H     H_    0.927905 0.487774 0.274463 0.223319
H20   H     H_    0.083894 0.694354 0.589736 0.220542
H21   H     H_    0.084067 0.686122 0.405133 0.131396
N1    N     N_R   0.500800 0.501210 0.147910 -0.197237
N2    N     N_R   0.500820 0.501290 0.852040 -0.197169
O1    O     O_R   0.499990 0.319640 0.618810 -0.575895
O2    O     O_R   0.500000 0.319660 0.381240 -0.575118
O3    O     O_R   0.379430 0.499990 0.618840 -0.589925
O4    O     O_R   0.379440 0.500020 0.381260 -0.569000
O5    O     O_R   0.500000 0.680340 0.618760 -0.602240
O6    O     O_R   0.500010 0.680360 0.381190 -0.591188
O7    O     O_R   0.620560 0.499980 0.618740 -0.581155
O8    O     O_R   0.620570 0.500010 0.381160 -0.594606
O9    O     O_3   0.075769 0.504168 0.756378 -0.560546
C35   C     C_3   0.126013 0.430468 0.842065 0.079385
H22   H     H_    0.166720 0.494842 0.906182 0.171146
H23   H     H_    0.169761 0.373006 0.781094 0.111013
C36   C     C_3   0.070363 0.349778 0.939988 -0.355861
H24   H     H_    0.028563 0.410198 0.000441 0.236748
H25   H     H_    0.030012 0.283002 0.878265 0.213919
C37   C     C_3   0.123660 0.277245 0.040970 -0.933654
H26   H     H_    0.164607 0.214050 0.982810 0.255261
H27   H     H_    0.081618 0.220612 0.111046 0.262017
H28   H     H_    0.163740 0.342068 0.105573 0.253324
O10   O     O_3   0.925622 0.703776 0.374845 -0.645281
C38   C     C_3   0.962639 0.821752 0.338163 0.071311
H29   H     H_    0.996567 0.811109 0.237860 0.144899
H30   H     H_    0.009627 0.860790 0.413782 0.168943
C39   C     C_3   0.893087 0.913803 0.317252 -0.263441
H31   H     H_    0.849804 0.878942 0.233552 0.203058
H32   H     H_    0.855945 0.921459 0.414784 0.263407
C40   C     C_3   0.929676 0.042534 0.277341 -0.946003
H33   H     H_    0.971580 0.080711 0.361247 0.262720
H34   H     H_    0.877573 0.106625 0.261862 0.254052
H35   H     H_    0.966192 0.037422 0.178904 0.260184
S1    S     S_3+6 0.921596 0.739836 0.650560 -0.040082
O11   O     O_2   0.957227 0.871486 0.644459 -0.335775
O12   O     O_2   0.826928 0.742628 0.650961 -0.340425
O13   O     O_3   0.953549 0.679538 0.801850 -0.531408
H36   H     H_    0.924265 0.726202 0.875053 0.370777

loop_
_geom_bond_atom_site_label_1
_geom_bond_atom_site_label_2
_ccdc_geom_bond_type
O13   H36   S    
C5    H20   S    
Cu1   Cu2   S    
C31   H16   S    
C3    C6    S    
Cu2   O8    S    
C7    C8    T    
Cu2   N1    S    
C36   C37   S    
C38   H29   S    
C28   H15   S    
C40   H34   S    
C15   C16   A    
C29   C33   S    
C11   H6    S    
Cu1   N2    S    
C18   C19   A    
C17   H3    S    
C35   H23   S    
C29   O8    A    
C26   N1    A    
C31   C32   S    
C16   C17   A    
Cu1   O5    S    
Cu2   O4    S    
C9    C10   A    
C32   H19   S    
C21   H12   S    
C27   H9    S    
C13   C14   A    
C10   H5    S    
C3    C32   S    
C38   C39   S    
C32   H18   S    
C4    S1    S    
C24   H14   S    
C30   C34   S    
C24   C25   A    
C4    O10   S    
C36   H25   S    
C1    O1    A    
C12   O4    A    
C40   H33   S    
O9    C35   S    
Cu1   O7    S    
C25   C26   A    
C27   N1    A    
C9    H4    S    
O10   C38   S    
Cu1   O1    S    
C35   C36   S    
C19   C23   S    
C37   H26   S    
C18   H8    S    
C12   O3    A    
C2    H2    S    
S1    O12   D    
C39   H31   S    
C8    C12   S    
C5    C34   S    
C17   C18   A    
C31   C34   S    
C1    C16   S    
C31   H17   S    
C37   H27   S    
C22   H13   S    
C38   H30   S    
C23   O5    A    
C39   H32   S    
C7    C34   S    
C22   C24   A    
C3    C4    S    
C13   H7    S    
S1    O13   S    
C28   N2    A    
Cu2   O6    S    
C14   C19   A    
C30   H10   S    
C36   H24   S    
C40   H35   S    
C1    O2    A    
C6    C33   T    
C5    H21   S    
C2    C30   S    
C23   O6    A    
C2    C3    S    
C9    C15   A    
C11   C13   A    
C2    H1    S    
S1    O11   D    
C20   C26   A    
Cu1   O3    S    
C35   H22   S    
C37   H28   S    
C20   H11   S    
C10   C11   A    
C29   O7    A    
C4    C5    S    
C39   C40   S    
C20   C21   A    
C27   C28   A    
C14   C15   A    
C25   N2    A    
C21   C22   A    
C30   O9    S    
Cu2   O2    S    
