data_mof_unit_54382.cif
_audit_creation_date              2012-12-10T17:55:05-0500
_audit_creation_method            fapswitch 2.2
_symmetry_space_group_name_H-M    P1
_symmetry_Int_Tables_number       1
_space_group_crystal_system       triclinic
_cell_length_a                    8.717522
_cell_length_b                    10.95987
_cell_length_c                    9.522738
_cell_angle_alpha                 91.099369
_cell_angle_beta                  97.398127
_cell_angle_gamma                 91.005265
_cell_volume                      901.90618062

loop_
_atom_site_label
_atom_site_type_symbol
_atom_type_description
_atom_site_fract_x
_atom_site_fract_y
_atom_site_fract_z
_atom_type_partial_charge
C1    C     C_R   0.506533 0.262231 0.499393 0.790607
C2    C     C_R   0.491366 0.737554 0.500332 0.789451
C3    C     C_R   0.203866 0.499924 0.464054 0.866043
C4    C     C_R   0.796051 0.503327 0.535860 0.881092
C5    C     C_2   0.038237 0.496946 0.444096 -0.352799
C6    C     C_2   0.961450 0.511833 0.555057 -0.381163
C7    C     C_R   0.476491 0.059782 0.369214 -0.081782
C8    C     C_R   0.513292 0.939868 0.629934 -0.081554
C9    C     C_R   0.454127 0.933464 0.371831 -0.076812
C10   C     C_R   0.537844 0.065826 0.627579 -0.073886
C11   C     C_R   0.482701 0.871743 0.501350 -0.146577
C12   C     C_R   0.510895 0.127807 0.497918 -0.145912
C13   C     C_R   0.395016 0.430801 0.061002 -0.187256
C14   C     C_R   0.605851 0.568782 0.938962 -0.209905
C15   C     C_R   0.394123 0.429484 0.910842 0.602803
C16   C     C_R   0.606803 0.570440 0.090042 0.613283
Cu1   Cu    Cu3+1 0.500000 0.500020 0.640660 0.998843
Cu2   Cu    Cu3+1 0.500000 0.499980 0.359340 1.003172
H1    H     H_    0.979141 0.479847 0.337703 0.194105
H2    H     H_    0.020335 0.531171 0.660967 0.162177
H3    H     H_    0.314875 0.374309 0.109379 0.165639
H4    H     H_    0.689681 0.620149 0.889059 0.164369
N1    N     N_R   0.500040 0.500030 0.852080 -0.217960
N2    N     N_R   0.499960 0.499970 0.147920 -0.219019
O1    O     O_R   0.499990 0.319660 0.618740 -0.531260
O2    O     O_R   0.500010 0.680340 0.381260 -0.545173
O3    O     O_R   0.499990 0.319630 0.381170 -0.586256
O4    O     O_R   0.500010 0.680370 0.618830 -0.585141
O5    O     O_R   0.274840 0.500010 0.591370 -0.549384
O6    O     O_R   0.725160 0.499990 0.408630 -0.524380
O7    O     O_R   0.274830 0.499980 0.353800 -0.603015
O8    O     O_R   0.725170 0.500020 0.646200 -0.606196
C17   C     C_1   0.473147 0.115416 0.231771 0.273188
N3    N     N_1   0.472384 0.157824 0.121443 -0.262611
C18   C     C_1   0.507597 0.884610 0.766395 0.282518
N4    N     N_1   0.500529 0.841876 0.875444 -0.292298
C19   C     C_1   0.390517 0.869642 0.241163 0.290373
N5    N     N_1   0.339045 0.819010 0.137536 -0.274837
C20   C     C_1   0.600686 0.128640 0.759156 0.312727
N6    N     N_1   0.651431 0.178334 0.863639 -0.268018
O9    O     O_3   0.302526 0.346776 0.822749 -0.544118
C21   C     C_3   0.148397 0.336396 0.854355 0.031727
H5    H     H_    0.070847 0.340987 0.753018 0.181527
H6    H     H_    0.113219 0.411145 0.923820 0.106678
C22   C     C_3   0.118605 0.211543 0.914674 -0.784094
H7    H     H_    0.180974 0.203270 0.022707 0.241251
H8    H     H_    0.992979 0.198791 0.920535 0.220028
H9    H     H_    0.156377 0.138351 0.845238 0.263761
O10   O     O_3   0.715780 0.635148 0.185077 -0.554084
C23   C     C_3   0.803641 0.726280 0.126494 0.034133
H10   H     H_    0.834750 0.798050 0.209700 0.182224
H11   H     H_    0.737998 0.774582 0.037747 0.150342
C24   C     C_3   0.954616 0.675196 0.086750 -0.842102
H12   H     H_    0.932943 0.592598 0.017408 0.229943
H13   H     H_    0.014823 0.745403 0.030179 0.234663
H14   H     H_    0.031462 0.650791 0.183824 0.260926

loop_
_geom_bond_atom_site_label_1
_geom_bond_atom_site_label_2
_ccdc_geom_bond_type
C14   N1    A    
C23   H11   S    
C19   N5    T    
C5    H1    S    
Cu1   O5    S    
O9    C21   S    
C18   N4    T    
Cu2   O2    S    
C13   C15   A    
C3    O7    A    
Cu1   O1    S    
C14   H4    S    
C9    C19   S    
Cu1   Cu2   S    
C13   H3    S    
C16   N2    A    
Cu1   N1    S    
C24   H12   S    
C1    O1    A    
C9    C11   A    
C1    O3    A    
C4    O8    A    
C1    C12   S    
C21   H6    S    
C8    C11   A    
Cu2   O6    S    
C2    C11   S    
C10   C12   A    
C15   N1    A    
C17   N3    T    
C24   H13   S    
C5    C6    D    
O10   C23   S    
C14   C16   A    
C7    C12   A    
C24   H14   S    
C23   C24   S    
C21   H5    S    
C7    C17   S    
C7    C9    A    
C6    H2    S    
C16   O10   S    
C15   O9    S    
Cu2   N2    S    
C2    O2    A    
C4    C6    S    
C22   H8    S    
C22   H9    S    
C20   N6    T    
C3    O5    A    
Cu1   O8    S    
C2    O4    A    
Cu2   O7    S    
C23   H10   S    
C22   H7    S    
Cu1   O4    S    
C8    C18   S    
C8    C10   A    
C4    O6    A    
Cu2   O3    S    
C13   N2    A    
C10   C20   S    
C3    C5    S    
C21   C22   S    
