data_mof_unit_29227.cif
_audit_creation_date              2012-10-26T20:17:37-0400
_audit_creation_method            fapswitch 2.2
_symmetry_space_group_name_H-M    P1
_symmetry_Int_Tables_number       1
_space_group_crystal_system       triclinic
_cell_length_a                    27.779399
_cell_length_b                    8.665456
_cell_length_c                    7.423808
_cell_angle_alpha                 103.085306
_cell_angle_beta                  93.829719
_cell_angle_gamma                 92.407332
_cell_volume                      1733.77492063

loop_
_atom_site_label
_atom_site_type_symbol
_atom_type_description
_atom_site_fract_x
_atom_site_fract_y
_atom_site_fract_z
_atom_type_partial_charge
C1    C     C_R   0.498539 0.199570 0.453085 0.554891
C2    C     C_R   0.868745 0.369684 0.403642 0.023801
C3    C     C_R   0.354633 0.497192 0.510249 0.006348
C4    C     C_R   0.645367 0.502808 0.489750 0.006348
C5    C     C_R   0.970663 0.358651 0.424885 0.021179
C6    C     C_R   0.029336 0.641352 0.575102 0.021183
C7    C     C_R   0.978145 0.647000 0.558510 -0.014660
C8    C     C_R   0.021854 0.353003 0.441477 -0.014660
C9    C     C_R   0.949056 0.505308 0.487498 0.026129
C10   C     C_R   0.050943 0.494695 0.512490 0.026130
C11   C     C_R   0.940096 0.222769 0.342400 -0.159815
C12   C     C_R   0.501461 0.800430 0.546915 0.554891
C13   C     C_R   0.059904 0.777235 0.657585 -0.159813
C14   C     C_R   0.890289 0.228387 0.333222 -0.128892
C15   C     C_R   0.109711 0.771616 0.666766 -0.128899
C16   C     C_R   0.407478 0.499395 0.503058 0.553220
C17   C     C_R   0.592522 0.500605 0.496942 0.553221
C18   C     C_R   0.044920 0.208698 0.394086 -0.133201
C19   C     C_R   0.955080 0.791306 0.605899 -0.133194
C20   C     C_2   0.497838 0.031581 0.426633 -0.147774
C21   C     C_2   0.502162 0.968419 0.573367 -0.147774
C22   C     C_R   0.175500 0.349409 0.460861 0.407007
C23   C     C_R   0.102171 0.489878 0.522656 -0.057860
C24   C     C_R   0.824500 0.650592 0.539135 0.407003
C25   C     C_R   0.181594 0.626858 0.598572 0.397001
C26   C     C_R   0.818405 0.373144 0.401422 0.397000
C27   C     C_R   0.283806 0.507431 0.686577 -0.051291
C28   C     C_R   0.716194 0.492568 0.313420 -0.051292
C29   C     C_R   0.333888 0.510743 0.680463 -0.140345
C30   C     C_R   0.666112 0.489255 0.319535 -0.140345
C31   C     C_R   0.324386 0.480186 0.346546 -0.136166
C32   C     C_R   0.675614 0.519816 0.653455 -0.136166
C33   C     C_R   0.274360 0.476722 0.353075 -0.051560
C34   C     C_R   0.897828 0.510125 0.477334 -0.057860
C35   C     C_R   0.725640 0.523281 0.646924 -0.051559
C36   C     C_R   0.253951 0.490292 0.522913 0.244067
C37   C     C_R   0.746048 0.509708 0.477085 0.244067
C38   C     C_3   0.093014 0.927518 0.205356 -0.281297
C39   C     C_3   0.906988 0.072508 0.794580 -0.281301
C40   C     C_R   0.124453 0.345486 0.459514 0.032300
C41   C     C_R   0.875547 0.654516 0.540476 0.032295
C42   C     C_R   0.095269 0.203068 0.397477 0.139866
C43   C     C_R   0.904731 0.796936 0.602506 0.139870
C44   C     C_R   0.131254 0.630319 0.596348 0.023803
Cu1   Cu    Cu3+1 0.505380 0.517380 0.684380 0.964564
Cu2   Cu    Cu3+1 0.494620 0.482620 0.315620 0.964564
H1    H     H_    0.339298 0.469517 0.213443 0.130275
H2    H     H_    0.268147 0.517952 0.818261 0.126148
H3    H     H_    0.868632 0.120365 0.270069 0.164544
H4    H     H_    0.131368 0.879638 0.729918 0.164541
H5    H     H_    0.953251 0.109568 0.279859 0.100328
H6    H     H_    0.046749 0.890437 0.720123 0.100324
H7    H     H_    0.024536 0.096621 0.359859 0.109217
H8    H     H_    0.975464 0.903381 0.640123 0.109214
H9    H     H_    0.493769 0.959610 0.285386 0.135834
H10   H     H_    0.506231 0.040390 0.714614 0.135834
H11   H     H_    0.132614 0.017012 0.461937 0.280709
H12   H     H_    0.660702 0.530486 0.786559 0.130275
H13   H     H_    0.119647 0.839284 0.153538 0.174154
H14   H     H_    0.078524 0.975389 0.087209 0.148691
H15   H     H_    0.063460 0.866008 0.260631 0.127853
H16   H     H_    0.867378 0.982971 0.538030 0.280716
H17   H     H_    0.880357 0.160754 0.846380 0.174149
H18   H     H_    0.936542 0.133996 0.739275 0.127857
H19   H     H_    0.921480 0.024663 0.912745 0.148696
H20   H     H_    0.462154 0.378298 0.948477 0.239447
H21   H     H_    0.537846 0.621702 0.051523 0.239448
H22   H     H_    0.251374 0.464131 0.226281 0.128704
H23   H     H_    0.748626 0.535873 0.773719 0.128705
H24   H     H_    0.643725 0.476284 0.191240 0.130885
H25   H     H_    0.356274 0.523712 0.808757 0.130885
H26   H     H_    0.731853 0.482045 0.181735 0.126149
N1    N     N_R   0.202490 0.488535 0.528908 -0.406862
N2    N     N_R   0.797510 0.511466 0.471089 -0.406860
N3    N     N_2   0.486510 0.456430 0.038510 -0.258180
N4    N     N_2   0.513490 0.543570 0.961490 -0.258180
N5    N     N_2   0.116736 0.053531 0.350376 -0.456537
N6    N     N_2   0.883263 0.946473 0.649594 -0.456540
O1    O     O_R   0.503500 0.286120 0.619780 -0.504929
O2    O     O_2   0.801714 0.783498 0.606427 -0.451330
O3    O     O_2   0.790443 0.238591 0.333249 -0.481718
O4    O     O_2   0.209557 0.761411 0.666744 -0.481716
O5    O     O_R   0.496500 0.713880 0.380220 -0.504929
O6    O     O_R   0.494410 0.256780 0.308360 -0.494680
O7    O     O_R   0.505590 0.743220 0.691640 -0.494680
O8    O     O_R   0.434810 0.514700 0.655690 -0.507826
O9    O     O_R   0.565190 0.485300 0.344310 -0.507826
O10   O     O_R   0.425720 0.485350 0.344280 -0.502245
O11   O     O_R   0.574280 0.514650 0.655720 -0.502245
O12   O     O_2   0.198286 0.216502 0.393577 -0.451323

loop_
_geom_bond_atom_site_label_1
_geom_bond_atom_site_label_2
_ccdc_geom_bond_type
C27   H2    S    
C37   N2    S    
C27   C29   A    
C41   C43   A    
C32   H12   S    
Cu1   Cu2   S    
C1    O6    A    
C39   H18   S    
C12   O7    A    
Cu1   N4    S    
C35   C37   A    
C15   C44   A    
C5    C11   A    
C18   C42   A    
C11   C14   A    
C14   H3    S    
C23   C40   A    
C33   C36   A    
C15   H4    S    
C3    C29   A    
C18   H7    S    
C24   O2    S    
C31   C33   A    
Cu1   O11   S    
C38   H15   S    
C2    C34   A    
C40   C42   A    
C31   H1    S    
C16   O8    A    
C24   C41   A    
C39   H19   S    
C28   H26   S    
C34   C41   A    
C20   H9    S    
C25   C44   A    
Cu2   N3    S    
C30   H24   S    
C19   C43   A    
Cu2   O10   S    
C32   C35   A    
H11   N5    S    
C17   O11   A    
Cu1   O1    S    
C12   C21   S    
C8    C18   A    
C23   C44   A    
C38   H13   S    
C12   O5    A    
C43   N6    S    
Cu1   O7    S    
N3    N4    D    
C39   N6    S    
C5    C9    A    
C5    C8    A    
C13   H6    S    
C22   C40   A    
C22   O12   S    
C2    C26   A    
C3    C31   A    
C4    C32   A    
C38   H14   S    
C4    C17   S    
C19   H8    S    
C26   O3    S    
C7    C19   A    
C13   C15   A    
C25   O4    S    
C27   C36   A    
Cu2   O6    S    
Cu2   O9    S    
C7    C9    A    
C1    C20   S    
C17   O9    A    
H16   N6    S    
C6    C10   A    
C21   H10   S    
C6    C7    A    
C38   N5    S    
C10   C23   A    
C39   H17   S    
C28   C30   A    
Cu1   O8    S    
C6    C13   A    
C24   N2    A    
C9    C34   A    
C28   C37   A    
C1    O1    A    
H20   N3    S    
C26   N2    A    
C25   N1    A    
C2    C14   A    
C11   H5    S    
C36   N1    S    
Cu2   O5    S    
C20   C21   D    
C35   H23   S    
C42   N5    S    
C8    C10   A    
C16   O10   A    
H21   N4    S    
C22   N1    A    
C4    C30   A    
C3    C16   S    
C33   H22   S    
C29   H25   S    
