data_mof_unit_59124.cif
_audit_creation_date              2013-03-05T15:56:34-0500
_audit_creation_method            fapswitch 2.2
_symmetry_space_group_name_H-M    P1
_symmetry_Int_Tables_number       1
_space_group_crystal_system       triclinic
_cell_length_a                    6.923449
_cell_length_b                    14.607629
_cell_length_c                    15.919443
_cell_angle_alpha                 90.471324
_cell_angle_beta                  90.125256
_cell_angle_gamma                 90.208693
_cell_volume                      1609.94653654

loop_
_atom_site_label
_atom_site_type_symbol
_atom_site_description
_atom_site_fract_x
_atom_site_fract_y
_atom_site_fract_z
_atom_type_partial_charge
O1    O     O_R   0.361600 0.167310 0.164620 -0.579028
O2    O     O_R   0.638400 0.832690 0.835380 -0.578883
O3    O     O_R   0.691080 0.157570 0.338750 -0.574344
O4    O     O_R   0.308920 0.842430 0.661250 -0.565783
O5    O     O_R   0.861410 0.336420 0.339360 -0.593780
O6    O     O_R   0.138590 0.663580 0.660640 -0.586681
C1    C     C_R   0.522212 0.135860 0.367783 1.043242
C2    C     C_R   0.477710 0.864356 0.632346 1.047616
O7    O     O_R   0.691320 0.156280 0.165240 -0.586576
O8    O     O_R   0.308680 0.843720 0.834760 -0.588955
O9    O     O_R   0.861640 0.335130 0.164600 -0.604514
O10   O     O_R   0.138360 0.664870 0.835400 -0.600468
C3    C     C_R   0.522185 0.135848 0.134521 1.054029
C4    C     C_R   0.477817 0.864163 0.865469 1.050890
O11   O     O_R   0.361370 0.168600 0.339370 -0.599528
O12   O     O_R   0.638630 0.831400 0.660630 -0.603540
O13   O     O_3   0.527990 0.310540 0.251980 -0.261261
O14   O     O_3   0.472010 0.689460 0.748020 -0.269573
V1    V     V_3+5 0.802830 0.240980 0.251990 1.295085
V2    V     V_3+5 0.197170 0.759020 0.748010 1.304921
O15   O     O_R   0.191360 0.346160 0.165220 -0.575116
O16   O     O_R   0.808640 0.653840 0.834780 -0.578316
C5    C     C_R   0.022332 0.370355 0.137919 1.024719
C6    C     C_R   0.977655 0.629682 0.862121 1.049343
O17   O     O_R   0.191130 0.347440 0.338740 -0.570851
O18   O     O_R   0.808870 0.652560 0.661260 -0.591713
C7    C     C_R   0.022772 0.368493 0.368396 1.018702
C8    C     C_R   0.977411 0.630414 0.632528 1.059930
V3    V     V_3+5 0.302840 0.262750 0.251990 1.306750
V4    V     V_3+5 0.697160 0.737250 0.748010 1.294616
O19   O     O_3   0.027820 0.193180 0.251990 -0.257858
O20   O     O_3   0.972180 0.806820 0.748010 -0.256005
C9    C     C_3   0.906782 0.420708 0.523806 -0.213953
C10   C     C_3   0.094395 0.575722 0.479100 -0.242515
C11   C     C_3   0.079933 0.465238 0.569694 0.438014
C12   C     C_3   0.921077 0.531163 0.433477 0.398997
H1    H     H_    0.830752 0.357377 0.543240 0.170850
H2    H     H_    0.168649 0.639769 0.460117 0.213011
C13   C     C_3   0.987695 0.560134 0.563343 -0.311766
C14   C     C_3   0.013236 0.436503 0.439530 -0.263683
C15   C     C_3   0.812373 0.517091 0.516683 -0.219854
C16   C     C_3   0.188813 0.479237 0.486360 -0.171687
H3    H     H_    0.658050 0.533353 0.527919 0.173380
H4    H     H_    0.342925 0.462530 0.475137 0.182067
C17   C     C_R   0.848580 0.490074 0.940757 -0.065969
C18   C     C_R   0.151346 0.509961 0.059305 -0.074023
C19   C     C_R   0.860954 0.431922 0.010504 -0.057579
C20   C     C_R   0.139079 0.568082 0.989528 -0.057223
H5    H     H_    0.755707 0.377276 0.016924 0.160323
H6    H     H_    0.244353 0.622718 0.983122 0.158993
C21   C     C_R   0.011600 0.439546 0.069570 -0.212282
C22   C     C_R   0.988388 0.560473 0.930460 -0.204794
C23   C     C_R   0.635369 0.990528 0.434717 0.371362
C24   C     C_R   0.364017 0.009877 0.565499 0.371089
C25   C     C_R   0.621745 0.922959 0.497315 -0.207272
C26   C     C_R   0.375853 0.076989 0.502424 -0.221514
C27   C     C_R   0.487514 0.933021 0.563771 -0.350652
C28   C     C_R   0.511950 0.067419 0.436452 -0.360777
C29   C     C_R   0.650743 0.999168 0.058280 -0.138590
C30   C     C_R   0.349289 0.000865 0.941688 -0.140707
H7    H     H_    0.765087 0.996344 0.104770 0.207137
H8    H     H_    0.234974 0.003698 0.895184 0.206044
C31   C     C_R   0.640295 0.930242 0.996280 0.389613
C32   C     C_R   0.359726 0.069785 0.003696 0.389732
C33   C     C_R   0.488958 0.931580 0.936106 -0.352582
C34   C     C_R   0.511054 0.068442 0.063874 -0.353643
N1    N     N_R   0.167222 0.427212 0.645196 0.243287
O21   O     O_R   0.240006 0.345370 0.643266 -0.326886
O22   O     O_R   0.166880 0.473045 0.715546 -0.409835
N2    N     N_R   0.831651 0.566785 0.357628 0.229179
O23   O     O_R   0.901446 0.639428 0.321873 -0.330529
O24   O     O_R   0.679587 0.526751 0.326086 -0.378140
C35   C     C_2   0.693260 0.471100 0.878504 1.059786
O25   O     O_2   0.725006 0.477746 0.803249 -0.598480
O26   O     O_R   0.511968 0.441608 0.906157 -0.768654
H9    H     H_    0.418192 0.430112 0.858191 0.371829
C36   C     C_2   0.306279 0.528993 0.121719 1.067753
O27   O     O_2   0.273857 0.522595 0.196942 -0.592622
O28   O     O_R   0.487977 0.558161 0.094273 -0.768962
H10   H     H_    0.581568 0.569483 0.142353 0.368406
N3    N     N_R   0.764309 0.976990 0.365311 0.242153
O29   O     O_R   0.947886 0.993834 0.374270 -0.320709
O30   O     O_R   0.695679 0.956869 0.291267 -0.392528
N4    N     N_R   0.234972 0.023250 0.634846 0.240829
O31   O     O_R   0.302787 0.048874 0.707622 -0.391921
O32   O     O_R   0.054615 0.998927 0.628019 -0.321919
C37   C     C_2   0.734465 0.837319 0.488030 1.112918
O33   O     O_2   0.909298 0.840258 0.477622 -0.576733
O34   O     O_R   0.638840 0.753058 0.491036 -0.801578
H11   H     H_    0.729925 0.699852 0.482765 0.319047
C38   C     C_2   0.251458 0.159413 0.508758 1.132146
O35   O     O_2   0.322822 0.235704 0.502182 -0.646865
O36   O     O_R   0.052737 0.149688 0.521226 -0.727842
H12   H     H_    0.983386 0.210586 0.523112 0.311096
N5    N     N_R   0.778245 0.857043 0.998527 0.238963
O37   O     O_R   0.719542 0.772370 0.994750 -0.395967
O38   O     O_R   0.957251 0.874017 0.018537 -0.383353
N6    N     N_R   0.221777 0.142985 0.001450 0.238933
O39   O     O_R   0.280477 0.227657 0.005251 -0.395041
O40   O     O_R   0.042780 0.126016 0.981423 -0.384375

loop_
_geom_bond_atom_site_label_1
_geom_bond_atom_site_label_2
_geom_bond_distance
_ccdc_geom_bond_type
C6    C22   1.493145 S    
C37   O33   1.222738 D    
C31   C33   1.418423 A    
O36   H12   1.012681 S    
O13   V3    1.705672 S    
C35   O25   1.223056 D    
C23   C25   1.411406 A    
N5    O37   1.301404 A    
C10   C16   1.560827 S    
O4    C2    1.296921 A    
V1    O19   1.709362 S    
C24   N4    1.434288 S    
N3    O29   1.301020 A    
C19   H5    1.084450 S    
C36   O27   1.223105 D    
O9    V1    2.005634 S    
C30   H8    1.083686 S    
N4    O32   1.301079 A    
O3    C1    1.297374 A    
C29   C34   1.404738 A    
O12   V4    2.005928 S    
C31   N5    1.436909 S    
C17   C35   1.484586 S    
C17   C19   1.406206 A    
C11   C16   1.541979 S    
O7    C3    1.300767 A    
C9    C11   1.541610 S    
O5    C7    1.292910 A    
O7    V1    1.998581 S    
C26   C38   1.485768 S    
O6    C8    1.292505 A    
O8    V2    1.998581 S    
O3    V1    2.004068 S    
N2    O23   1.300354 A    
O14   V4    1.705673 S    
C1    C28   1.489090 S    
C10   C12   1.540714 S    
C32   N6    1.436908 S    
C2    O12   1.296551 A    
C15   H3    1.109948 S    
C12   C15   1.539779 S    
C16   H4    1.109935 S    
N3    O30   1.300931 A    
C12   N2    1.456542 S    
O11   V3    2.005929 S    
C18   C20   1.406264 A    
C3    C34   1.490368 S    
C36   O28   1.398758 S    
O17   V3    2.004836 S    
C24   C26   1.411384 A    
C29   H7    1.083668 S    
C9    C14   1.550682 S    
C10   C13   1.550563 S    
C12   C14   1.528648 S    
N4    O31   1.300775 A    
C13   C15   1.550262 S    
O8    C4    1.300766 A    
C38   O35   1.222769 D    
C19   C21   1.406255 A    
C1    O11   1.295614 A    
C8    C13   1.501452 S    
O15   V3    2.004548 S    
C18   C21   1.420216 A    
C9    H1    1.109286 S    
N1    O21   1.299220 A    
N1    O22   1.300069 A    
C32   C34   1.418431 A    
C11   C13   1.532347 S    
O26   H9    1.013774 S    
C2    C27   1.490057 S    
C38   O36   1.397403 S    
C5    C21   1.493069 S    
C11   N1    1.459010 S    
C7    C14   1.501999 S    
O10   V2    2.005636 S    
O1    V3    2.004598 S    
C20   H6    1.084447 S    
C30   C33   1.404742 A    
O18   V4    2.004835 S    
N6    O40   1.301402 A    
O15   C5    1.298702 A    
O16   C6    1.298682 A    
O1    C3    1.295894 A    
C35   O26   1.398723 S    
V2    O20   1.709362 S    
O16   V4    2.004551 S    
C10   H2    1.110286 S    
C29   C31   1.405686 A    
C14   C16   1.551127 S    
C18   C36   1.484516 S    
C23   C28   1.413883 A    
N5    O38   1.301402 A    
O5    V1    2.001054 S    
O17   C7    1.295670 A    
O6    V2    2.001054 S    
O10   C6    1.297924 A    
O18   C8    1.295428 A    
C17   C22   1.420401 A    
O2    V4    2.004601 S    
C30   C32   1.405710 A    
C9    C15   1.559282 S    
C25   C27   1.416776 A    
V3    O19   2.155047 S    
V4    O20   2.155044 S    
O9    C5    1.297850 A    
O13   V1    2.160407 S    
C4    C33   1.490348 S    
C26   C28   1.418903 A    
O14   V2    2.160409 S    
C25   C37   1.483396 S    
O2    C4    1.295881 A    
C23   N3    1.434874 S    
O28   H10   1.013920 S    
O4    V2    2.004065 S    
C20   C22   1.406473 A    
N6    O39   1.301404 A    
C37   O34   1.396699 S    
N2    O24   1.300343 A    
O34   H11   1.010601 S    
C24   C27   1.413808 A    
