data_mof_unit_26881.cif
_audit_creation_date              2012-12-10T17:53:24-0500
_audit_creation_method            fapswitch 2.2
_symmetry_space_group_name_H-M    P1
_symmetry_Int_Tables_number       1
_space_group_crystal_system       triclinic
_cell_length_a                    23.419459
_cell_length_b                    10.624906
_cell_length_c                    9.912386
_cell_angle_alpha                 89.895028
_cell_angle_beta                  90.106716
_cell_angle_gamma                 91.749679
_cell_volume                      2465.33641393

loop_
_atom_site_label
_atom_site_type_symbol
_atom_type_description
_atom_site_fract_x
_atom_site_fract_y
_atom_site_fract_z
_atom_type_partial_charge
Br1   Br    Br    0.329652 0.648603 0.249223 -0.495620
C1    C     C_R   0.501416 0.260718 0.500138 0.849669
C2    C     C_R   0.120960 0.593028 0.552695 0.525580
C3    C     C_R   0.236197 0.548816 0.401491 -0.180589
C4    C     C_R   0.389455 0.501234 0.499767 0.906624
C5    C     C_R   0.295499 0.555073 0.396148 0.250273
C6    C     C_R   0.327205 0.498767 0.500162 -0.126084
C7    C     C_R   0.298755 0.438332 0.607919 -0.308745
C8    C     C_R   0.239335 0.432848 0.612731 0.167551
C9    C     C_R   0.208295 0.488230 0.508883 0.275743
C10   C     C_R   0.761440 0.491500 0.626272 -0.105342
C11   C     C_R   0.702289 0.494706 0.624777 -0.239857
C12   C     C_R   0.966920 0.270221 0.434284 -0.154866
C13   C     C_R   0.672839 0.497504 0.501332 -0.037899
C14   C     C_R   0.703316 0.496805 0.379546 -0.209140
C15   C     C_R   0.762544 0.493582 0.381447 -0.101890
C16   C     C_R   0.501606 0.739449 0.499855 0.882110
C17   C     C_R   0.791490 0.491082 0.504756 0.323180
C18   C     C_R   0.597437 0.137512 0.623718 -0.173721
C19   C     C_R   0.642432 0.074733 0.683439 -0.115210
C20   C     C_R   0.642504 0.943762 0.683149 -0.118226
C21   C     C_R   0.597598 0.875116 0.623061 -0.188950
C22   C     C_R   0.551286 0.937357 0.563330 0.092977
C23   C     C_R   0.026362 0.269471 0.435850 -0.155532
C24   C     C_R   0.551191 0.069288 0.563682 0.099262
C25   C     C_R   0.505268 0.128676 0.500014 -0.086967
C26   C     C_R   0.461913 0.061795 0.432895 -0.212819
C27   C     C_R   0.462014 0.933220 0.432560 -0.173468
C28   C     C_R   0.610614 0.499940 0.500182 0.838786
C29   C     C_R   0.505466 0.871997 0.499345 -0.107945
C30   C     C_R   0.424864 0.335296 0.140108 -0.121664
C31   C     C_R   0.387864 0.254083 0.069911 -0.164839
C32   C     C_R   0.388000 0.253743 0.930272 -0.190058
C33   C     C_R   0.425139 0.334622 0.860032 -0.155337
C34   C     C_R   0.058185 0.377422 0.475005 -0.024468
C35   C     C_R   0.463072 0.418594 0.927729 0.176047
C36   C     C_R   0.463006 0.418791 0.072318 0.183975
C37   C     C_R   0.535400 0.577736 0.071492 -0.098708
C38   C     C_R   0.535372 0.577745 0.928362 -0.107885
C39   C     C_R   0.882043 0.596047 0.546262 0.503462
C40   C     C_R   0.878765 0.382366 0.470123 0.502531
C41   C     C_R   0.938343 0.378969 0.471744 -0.015504
C42   C     C_R   0.969906 0.487560 0.511981 -0.018598
C43   C     C_R   0.941645 0.597152 0.549939 -0.015171
C44   C     C_R   0.029878 0.486764 0.513709 -0.020797
C45   C     C_R   0.061409 0.595574 0.553415 -0.023262
C46   C     C_R   0.032850 0.704038 0.591754 -0.152505
C47   C     C_R   0.973444 0.704847 0.589950 -0.157000
C48   C     C_R   0.117852 0.379693 0.475454 0.537940
H1    H     H_    0.943505 0.185640 0.403284 0.194944
H2    H     H_    0.427497 0.881049 0.382691 0.187710
H3    H     H_    0.564331 0.641253 0.125228 0.145830
H4    H     H_    0.047239 0.184373 0.405922 0.194649
H5    H     H_    0.422287 0.329770 0.247071 0.193981
H6    H     H_    0.358962 0.190915 0.124388 0.162841
H7    H     H_    0.359170 0.190384 0.875825 0.159184
H8    H     H_    0.422816 0.328570 0.753070 0.199368
H9    H     H_    0.564267 0.641307 0.874540 0.143408
H10   H     H_    0.056259 0.788656 0.622672 0.195850
H11   H     H_    0.952584 0.790043 0.619630 0.193853
H12   H     H_    0.679757 0.494902 0.720070 0.162227
H13   H     H_    0.211421 0.592550 0.322869 0.177493
H14   H     H_    0.322534 0.394514 0.688203 0.167431
H15   H     H_    0.784050 0.489452 0.721598 0.140157
H16   H     H_    0.223877 0.416554 0.812247 0.204066
H17   H     H_    0.222964 0.278855 0.727218 0.204054
H18   H     H_    0.681529 0.498830 0.283154 0.161680
H19   H     H_    0.786045 0.493646 0.287478 0.140257
H20   H     H_    0.427344 0.109410 0.383155 0.145904
H21   H     H_    0.599809 0.239232 0.623414 0.153783
H22   H     H_    0.677613 0.127928 0.728876 0.149569
H23   H     H_    0.677739 0.895185 0.728379 0.152174
H24   H     H_    0.600089 0.773671 0.622138 0.142852
N1    N     N_R   0.852192 0.489799 0.506822 -0.359799
N2    N     N_R   0.147585 0.486496 0.513455 -0.343075
N3    N     N_R   0.499460 0.498800 0.142780 -0.117423
N4    N     N_R   0.499440 0.498720 0.857170 -0.120872
N5    N     N_3   0.210279 0.372287 0.723190 -0.430829
O1    O     O_R   0.500000 0.316780 0.614690 -0.642670
O2    O     O_R   0.583850 0.500050 0.614640 -0.637387
O3    O     O_R   0.583840 0.500030 0.385310 -0.618556
O4    O     O_2   0.853977 0.700257 0.580859 -0.555079
O5    O     O_2   0.847498 0.279313 0.433035 -0.552428
O6    O     O_2   0.146089 0.276801 0.437353 -0.547875
O7    O     O_2   0.152198 0.695890 0.590552 -0.539722
O8    O     O_R   0.500000 0.316750 0.385360 -0.634703
O9    O     O_R   0.416160 0.499970 0.614690 -0.631358
O10   O     O_R   0.416150 0.499950 0.385360 -0.597976
O11   O     O_R   0.500000 0.683250 0.614640 -0.611186
O12   O     O_R   0.500000 0.683220 0.385310 -0.598504
Zn1   Zn    Zn3+2 0.500000 0.500020 0.653130 0.941761
Zn2   Zn    Zn3+2 0.500000 0.499980 0.346870 0.967370

loop_
_geom_bond_atom_site_label_1
_geom_bond_atom_site_label_2
_ccdc_geom_bond_type
C10   C17   A    
O9    Zn1   S    
C2    O7    S    
C40   C41   A    
C18   C19   A    
C6    C7    A    
C37   N3    A    
C44   C45   A    
C25   C26   A    
C38   N4    A    
C48   O6    S    
C35   C36   A    
C35   N4    A    
C37   C38   A    
C27   H2    S    
C37   H3    S    
C14   C15   A    
C40   O5    S    
C3    H13   S    
C1    O1    A    
C40   N1    A    
C4    O10   A    
O10   Zn2   S    
C7    C8    A    
C34   C48   A    
C33   H8    S    
C48   N2    A    
C19   H22   S    
C15   H19   S    
O11   Zn1   S    
C2    N2    A    
C8    C9    A    
C31   H6    S    
O1    Zn1   S    
C26   H20   S    
C32   H7    S    
C17   N1    S    
C20   C21   A    
C16   C29   S    
O3    Zn2   S    
C12   C41   A    
C47   H11   S    
H17   N5    S    
C23   C34   A    
C20   H23   S    
Br1   C5    S    
C22   C29   A    
C39   O4    S    
C16   O11   A    
C3    C5    A    
C10   H15   S    
C4    C6    S    
C24   C25   A    
C38   H9    S    
C30   C36   A    
C12   C23   A    
C42   C43   A    
C28   O3    A    
C9    N2    S    
O12   Zn2   S    
C46   C47   A    
C14   H18   S    
C32   C33   A    
C1    C25   S    
C42   C44   A    
N3    Zn2   S    
C36   N3    A    
C11   C13   A    
C41   C42   A    
C13   C28   S    
C3    C9    A    
C34   C44   A    
C45   C46   A    
N4    Zn1   S    
H16   N5    S    
C21   C22   A    
C30   C31   A    
C16   O12   A    
C10   C11   A    
C5    C6    A    
C2    C45   A    
C31   C32   A    
O2    Zn1   S    
C27   C29   A    
C23   H4    S    
O8    Zn2   S    
C11   H12   S    
C28   O2    A    
C39   N1    A    
C1    O8    A    
C33   C35   A    
C8    N5    S    
C22   C24   A    
C30   H5    S    
C18   C24   A    
C7    H14   S    
C46   H10   S    
C12   H1    S    
C4    O9    A    
C39   C43   A    
C19   C20   A    
C15   C17   A    
C26   C27   A    
C13   C14   A    
C18   H21   S    
C21   H24   S    
C43   C47   A    
