data_mof_unit_39033.cif
_audit_creation_date              2013-03-05T16:15:04-0500
_audit_creation_method            fapswitch 2.2
_symmetry_space_group_name_H-M    P1
_symmetry_Int_Tables_number       1
_space_group_crystal_system       triclinic
_cell_length_a                    23.493405
_cell_length_b                    10.603162
_cell_length_c                    9.445218
_cell_angle_alpha                 89.660525
_cell_angle_beta                  90.410966
_cell_angle_gamma                 90.22473
_cell_volume                      2352.7256354

loop_
_atom_site_label
_atom_site_type_symbol
_atom_site_description
_atom_site_fract_x
_atom_site_fract_y
_atom_site_fract_z
_atom_type_partial_charge
O1    O     O_R   0.500030 0.316850 0.620870 -0.587996
O2    O     O_R   0.499970 0.683150 0.379130 -0.577035
O3    O     O_R   0.500000 0.316860 0.379090 -0.560657
O4    O     O_R   0.500000 0.683140 0.620910 -0.562002
C1    C     C_R   0.499948 0.259514 0.500423 0.804422
C2    C     C_R   0.499969 0.740480 0.499582 0.830537
O5    O     O_R   0.417890 0.499960 0.620920 -0.537130
O6    O     O_R   0.582110 0.500040 0.379080 -0.546698
O7    O     O_R   0.417870 0.499970 0.379140 -0.587498
O8    O     O_R   0.582130 0.500030 0.620860 -0.586662
C3    C     C_R   0.391175 0.496869 0.499542 0.827416
C4    C     C_R   0.608813 0.503653 0.500426 0.858166
Cu1   Cu    Cu3+1 0.500010 0.499990 0.643150 1.001338
Cu2   Cu    Cu3+1 0.499990 0.500010 0.356850 1.000118
C5    C     C_R   0.881974 0.610338 0.540938 0.630052
C6    C     C_R   0.118068 0.383755 0.438342 0.618749
N1    N     N_R   0.851836 0.505541 0.501318 -0.444707
N2    N     N_R   0.148212 0.487952 0.480025 -0.448010
C7    C     C_R   0.878213 0.399172 0.454919 0.601216
C8    C     C_R   0.121691 0.593778 0.527673 0.601582
C9    C     C_R   0.937709 0.393170 0.452002 -0.021232
C10   C     C_R   0.062225 0.600209 0.528793 -0.018137
C11   C     C_R   0.969915 0.500012 0.490599 -0.005011
C12   C     C_R   0.030048 0.493664 0.489194 -0.006266
C13   C     C_R   0.942037 0.612902 0.530338 -0.088768
C14   C     C_R   0.057969 0.380999 0.448924 -0.088886
C15   C     C_R   0.965224 0.281348 0.414828 -0.178723
C16   C     C_R   0.034750 0.712179 0.565523 -0.171634
C17   C     C_R   0.024606 0.272413 0.416689 -0.026400
C18   C     C_R   0.975412 0.721479 0.562450 -0.027541
O9    O     O_2   0.853653 0.709140 0.594957 -0.478186
O10   O     O_2   0.146385 0.285703 0.382670 -0.478491
O11   O     O_2   0.846765 0.298926 0.413587 -0.517951
O12   O     O_2   0.152998 0.693125 0.572325 -0.518805
H1    H     H_    0.940303 0.198064 0.389526 0.203335
H2    H     H_    0.059688 0.795349 0.591212 0.203410
C19   C     C_R   0.240555 0.561690 0.381134 0.018467
C20   C     C_R   0.760528 0.442565 0.613496 0.015502
C21   C     C_R   0.300026 0.565255 0.393671 -0.251286
C22   C     C_R   0.700841 0.443413 0.608305 -0.266375
H3    H     H_    0.324540 0.623928 0.321960 0.213830
H4    H     H_    0.676963 0.391457 0.687419 0.212961
C23   C     C_R   0.328676 0.492933 0.496457 -0.182353
C24   C     C_R   0.671308 0.510134 0.502302 -0.180191
C25   C     C_R   0.297342 0.412484 0.586651 0.314862
C26   C     C_R   0.701943 0.580203 0.400085 0.312839
C27   C     C_R   0.238051 0.410287 0.576279 -0.140756
C28   C     C_R   0.761414 0.575756 0.402199 -0.154197
H5    H     H_    0.213819 0.350710 0.647581 0.193447
H6    H     H_    0.785479 0.627676 0.323516 0.196115
C29   C     C_R   0.209344 0.485495 0.476834 0.207392
C30   C     C_R   0.790810 0.507973 0.506929 0.215745
C31   C     C_3   0.502634 0.039681 0.634780 -0.127846
C32   C     C_3   0.497246 0.960296 0.365238 -0.113447
C33   C     C_3   0.548004 0.957930 0.561689 -0.109417
C34   C     C_3   0.451875 0.042049 0.438329 -0.124137
H7    H     H_    0.587468 0.920644 0.611442 0.177745
H8    H     H_    0.412399 0.079295 0.388604 0.176388
H9    H     H_    0.504836 0.074702 0.745231 0.157011
H10   H     H_    0.495052 0.925255 0.254794 0.156792
C35   C     C_3   0.499963 0.877457 0.498697 -0.009952
C36   C     C_3   0.499919 0.122525 0.501318 -0.013239
C37   C     C_3   0.454587 0.956909 0.571641 -0.161412
C38   C     C_3   0.545293 0.043063 0.428376 -0.148761
H11   H     H_    0.417485 0.918431 0.630105 0.167142
H12   H     H_    0.582394 0.081527 0.369899 0.162881
C39   C     C_3   0.503042 0.614130 0.050108 -0.098547
C40   C     C_3   0.496924 0.385847 0.949970 -0.085290
C41   C     C_3   0.456990 0.562796 0.947825 -0.052554
C42   C     C_3   0.542974 0.437179 0.052269 -0.071082
H13   H     H_    0.420784 0.614930 0.899471 0.167796
H14   H     H_    0.579175 0.385072 0.100694 0.163169
H15   H     H_    0.506162 0.710077 0.095940 0.154933
H16   H     H_    0.493804 0.289880 0.904192 0.151378
N3    N     N_3   0.500040 0.499970 0.858290 -0.200692
N4    N     N_3   0.499960 0.500030 0.141710 -0.204321
C43   C     C_3   0.545516 0.550752 0.951640 0.074898
C44   C     C_3   0.454465 0.449239 0.048579 0.084287
C45   C     C_2   0.598239 0.611809 0.895191 0.928394
O13   O     O_2   0.644475 0.562102 0.914976 -0.557982
O14   O     O_R   0.594294 0.725632 0.820772 -0.755772
H17   H     H_    0.632708 0.757099 0.787037 0.339218
C46   C     C_2   0.401986 0.388254 0.106635 0.942410
O15   O     O_2   0.355904 0.440061 0.092442 -0.559719
O16   O     O_R   0.406053 0.272464 0.177050 -0.761853
H18   H     H_    0.367858 0.241304 0.212599 0.335073
C47   C     C_2   0.048937 0.145236 0.395180 0.940864
O17   O     O_2   0.033293 0.081662 0.294399 -0.548843
O18   O     O_R   0.087295 0.095343 0.494397 -0.695104
H19   H     H_    0.100043 0.007023 0.469385 0.353093
C48   C     C_2   0.951170 0.848858 0.583138 0.942056
O19   O     O_2   0.966607 0.912610 0.683966 -0.549254
O20   O     O_R   0.913135 0.898696 0.483119 -0.694776
H20   H     H_    0.900382 0.987112 0.507676 0.352695
C49   C     C_2   0.212697 0.636374 0.266268 0.930670
O21   O     O_2   0.164163 0.611692 0.227528 -0.565852
O22   O     O_R   0.242668 0.734012 0.199585 -0.741985
H21   H     H_    0.219494 0.777307 0.122601 0.362002
C50   C     C_2   0.789853 0.374194 0.731224 0.931802
O23   O     O_2   0.764029 0.294677 0.800073 -0.558122
O24   O     O_R   0.846477 0.401741 0.766112 -0.747233
H22   H     H_    0.861224 0.348895 0.848215 0.357043
N5    N     N_R   0.324829 0.327676 0.683647 0.120346
O25   O     O_R   0.350857 0.371807 0.794738 -0.330775
O26   O     O_R   0.313225 0.207732 0.678099 -0.338312
N6    N     N_R   0.673861 0.660528 0.298315 0.133994
O27   O     O_R   0.631803 0.731708 0.336998 -0.376235
O28   O     O_R   0.696439 0.679611 0.174592 -0.303486

loop_
_geom_bond_atom_site_label_1
_geom_bond_atom_site_label_2
_geom_bond_distance
_ccdc_geom_bond_type
C47   O17   1.223199 D    
C37   H11   1.110236 S    
O20   H20   1.014009 S    
C15   C17   1.398667 A    
C31   C33   1.545636 S    
C49   O21   1.222831 D    
C39   C43   1.529150 S    
O22   H21   1.013998 S    
C31   H9    1.110211 S    
C27   H5    1.083666 S    
C32   H10   1.110209 S    
O16   H18   1.013800 S    
C40   N3    1.485690 S    
O5    C3    1.303561 A    
O24   H22   1.013861 S    
N6    O28   1.301206 A    
O1    C1    1.293057 A    
C2    C35   1.452367 S    
C7    C9    1.399951 A    
N4    C44   1.481147 S    
C28   C30   1.399173 A    
C19   C29   1.415506 A    
C5    C13   1.415484 A    
C20   C30   1.413647 A    
N6    O27   1.301428 A    
C40   H16   1.109906 S    
C26   N6    1.438826 S    
C19   C49   1.488695 S    
C35   C37   1.531425 S    
O4    Cu1   1.952059 S    
C41   H13   1.110315 S    
C36   C38   1.531451 S    
C25   N5    1.432229 S    
C44   C46   1.496042 S    
Cu1   N3    2.032037 S    
C11   C12   1.414761 A    
C3    C23   1.468840 S    
C39   H15   1.109926 S    
C34   C36   1.531314 S    
C8    O12   1.350260 S    
C43   C45   1.495570 S    
C9    C15   1.400407 A    
C10   C16   1.400220 A    
Cu1   Cu2   2.704162 S    
C42   C43   1.530948 S    
C6    C14   1.416353 A    
C41   C44   1.531534 S    
O2    C2    1.293086 A    
N1    C30   1.435392 S    
C24   C26   1.413980 A    
N2    C29   1.437073 S    
O14   H17   1.013795 S    
C26   C28   1.398173 A    
C25   C27   1.395793 A    
C40   C44   1.529804 S    
C32   C34   1.545677 S    
C21   H3    1.084100 S    
C7    O11   1.350062 S    
C48   O19   1.223181 D    
C45   O14   1.396107 S    
C18   C48   1.482396 S    
C21   C23   1.403373 A    
C15   H1    1.084492 S    
C39   C41   1.544913 S    
C38   H12   1.110222 S    
O7    Cu2   1.942230 S    
C48   O20   1.398518 S    
C23   C25   1.410930 A    
C31   C36   1.533260 S    
C46   O15   1.222081 D    
C22   C24   1.403496 A    
O6    C4    1.303337 A    
C33   C38   1.546041 S    
C34   C37   1.546070 S    
N5    O26   1.300907 A    
C6    N2    1.368267 A    
C28   H6    1.083395 S    
O7    C3    1.302808 A    
O3    Cu2   1.952059 S    
O8    C4    1.303050 A    
O4    C2    1.294073 A    
C46   O16   1.396119 S    
C8    C10   1.399112 A    
C33   H7    1.109571 S    
C42   N4    1.484325 S    
C10   C12   1.407775 A    
O1    Cu1   1.954475 S    
C13   C18   1.423319 A    
C5    N1    1.367875 A    
O6    Cu2   1.939169 S    
C50   O24   1.398336 S    
C12   C14   1.420258 A    
C20   C50   1.489988 S    
O3    C1    1.294149 A    
O8    Cu1   1.942228 S    
C27   C29   1.399740 A    
C49   O22   1.398993 S    
C5    O9    1.348031 S    
C32   C35   1.533205 S    
C6    O10   1.347925 S    
C50   O23   1.223510 D    
C9    C11   1.408179 A    
C16   C18   1.398003 A    
C19   C21   1.401720 A    
C20   C22   1.402809 A    
C31   C37   1.545583 S    
C32   C38   1.545556 S    
C33   C35   1.531261 S    
C22   H4    1.084101 S    
N1    C7    1.365045 A    
C34   H8    1.109541 S    
C1    C36   1.452490 S    
C41   N3    1.485284 S    
N2    C8    1.365768 A    
C11   C13   1.420435 A    
O2    Cu2   1.954475 S    
C17   C47   1.482359 S    
C45   O13   1.221906 D    
O5    Cu1   1.939174 S    
C16   H2    1.084554 S    
C14   C17   1.423481 A    
C40   C42   1.544980 S    
N3    C43   1.482023 S    
N5    O25   1.299316 A    
C47   O18   1.398529 S    
C4    C24   1.469553 S    
C42   H14   1.110338 S    
C39   N4    1.485021 S    
O18   H19   1.014067 S    
Cu2   N4    2.032037 S    
