data_mof_unit_59169.cif
_audit_creation_date              2012-12-10T18:46:19-0500
_audit_creation_method            fapswitch 2.2
_symmetry_space_group_name_H-M    P1
_symmetry_Int_Tables_number       1
_space_group_crystal_system       triclinic
_cell_length_a                    9.845262
_cell_length_b                    10.702844
_cell_length_c                    13.135986
_cell_angle_alpha                 90.161375
_cell_angle_beta                  69.975256
_cell_angle_gamma                 90.156396
_cell_volume                      1300.48146517

loop_
_atom_site_label
_atom_site_type_symbol
_atom_type_description
_atom_site_fract_x
_atom_site_fract_y
_atom_site_fract_z
_atom_type_partial_charge
C1    C     C_R   0.500013 0.740001 0.500440 0.909366
C2    C     C_R   0.367489 0.482032 0.821939 -0.072728
C3    C     C_R   0.630905 0.936347 0.463778 -0.145360
C4    C     C_R   0.419890 0.493084 0.704138 0.870663
C5    C     C_R   0.630132 0.064393 0.464023 -0.233147
C6    C     C_R   0.498076 0.127353 0.502786 -0.178602
C7    C     C_R   0.366382 0.062864 0.542555 0.644509
C8    C     C_R   0.367564 0.934782 0.541639 -0.260456
C9    C     C_R   0.499582 0.872269 0.501917 -0.119011
C10   C     C_R   0.958574 0.422291 0.432615 -0.166321
C11   C     C_R   0.102429 0.422328 0.432629 -0.038146
C12   C     C_R   0.430541 0.470982 0.984539 0.104304
C13   C     C_R   0.041474 0.577579 0.567466 -0.155767
C14   C     C_R   0.897656 0.577719 0.567431 0.700125
C15   C     C_R   0.499187 0.259886 0.501127 0.905490
C16   C     C_R   0.580246 0.498846 0.295590 0.898174
C17   C     C_R   0.776858 0.371186 0.018097 -0.211985
C18   C     C_R   0.628818 0.480026 0.179002 -0.178145
C19   C     C_R   0.231387 0.530688 0.881996 -0.175633
C20   C     C_R   0.191839 0.544142 0.993511 -0.096438
C21   C     C_R   0.291349 0.518013 0.044470 -0.142941
C22   C     C_R   0.460236 0.437976 0.875371 -0.000193
C23   C     C_R   0.541355 0.455652 0.029127 0.014865
C24   C     C_R   0.669284 0.388916 0.971550 -0.071763
C25   C     C_R   0.686129 0.339654 0.869481 0.638206
C26   C     C_R   0.582694 0.363719 0.822094 -0.255943
C27   C     C_R   0.529453 0.507983 0.128722 -0.294563
C28   C     C_R   0.755539 0.414393 0.122684 0.583749
F1    F     F_    0.854203 0.386293 0.170242 -0.679373
F2    F     F_    0.237597 0.122922 0.583857 -0.628980
F3    F     F_    0.799469 0.656053 0.634873 -0.645732
F4    F     F_    0.804079 0.270623 0.814248 -0.641181
H1    H     H_    0.874730 0.319987 0.975473 0.221718
H2    H     H_    0.071740 0.639583 0.621338 0.155535
H3    H     H_    0.255328 0.532249 0.131003 0.136334
H4    H     H_    0.598787 0.322176 0.743660 0.189334
H5    H     H_    0.439916 0.567986 0.171174 0.174129
H6    H     H_    0.157378 0.561776 0.842414 0.165163
H7    H     H_    0.086035 0.580223 0.040007 0.169387
H8    H     H_    0.733349 0.887718 0.432461 0.179430
H9    H     H_    0.732205 0.113904 0.432687 0.194640
H10   H     H_    0.265850 0.884707 0.572896 0.186891
H11   H     H_    0.928502 0.360206 0.378712 0.196887
H12   H     H_    0.181311 0.360214 0.378701 0.160911
N1    N     N_R   0.142790 0.500030 0.500030 -0.106432
N2    N     N_R   0.857180 0.499940 0.500010 -0.137673
O1    O     O_R   0.385370 0.683250 0.500010 -0.635053
O2    O     O_R   0.614700 0.683220 0.500010 -0.578237
O3    O     O_R   0.328400 0.499990 0.653620 -0.608481
O4    O     O_R   0.557730 0.499960 0.653620 -0.569039
O5    O     O_R   0.385300 0.316780 0.499990 -0.553842
O6    O     O_R   0.614630 0.316750 0.499990 -0.634852
O7    O     O_R   0.442270 0.500040 0.346380 -0.634715
O8    O     O_R   0.671600 0.500010 0.346380 -0.569917
Zn1   Zn    Zn3+2 0.346870 0.500020 0.500000 0.991546
Zn2   Zn    Zn3+2 0.653130 0.499980 0.500000 1.029292

loop_
_geom_bond_atom_site_label_1
_geom_bond_atom_site_label_2
_ccdc_geom_bond_type
C10   N2    A    
C2    C4    S    
C23   C24   A    
C1    O2    A    
C2    C22   A    
C6    C7    A    
C3    C9    A    
C19   H6    S    
C15   O5    A    
C4    O3    A    
C19   C20   A    
C4    O4    A    
C14   F3    S    
C25   F4    S    
C25   C26   A    
C1    C9    S    
C11   H12   S    
C14   N2    A    
C7    F2    S    
O3    Zn1   S    
C15   O6    A    
C24   C25   A    
C13   N1    A    
C12   C23   A    
C17   H1    S    
C27   H5    S    
C21   H3    S    
C26   H4    S    
C28   F1    S    
C8    H10   S    
C3    H8    S    
O5    Zn1   S    
C23   C27   A    
O7    Zn1   S    
C5    C6    A    
O8    Zn2   S    
C11   N1    A    
C17   C24   A    
C10   C11   A    
C12   C22   A    
C7    C8    A    
C18   C28   A    
C20   C21   A    
N1    Zn1   S    
O1    Zn1   S    
C22   C26   A    
C16   O8    A    
N2    Zn2   S    
O2    Zn2   S    
C20   H7    S    
C5    H9    S    
C16   O7    A    
C1    O1    A    
C13   H2    S    
C13   C14   A    
C6    C15   S    
C2    C19   A    
C17   C28   A    
C12   C21   A    
C16   C18   S    
O4    Zn2   S    
C18   C27   A    
O6    Zn2   S    
C10   H11   S    
C8    C9    A    
C3    C5    A    
