data_mof_unit_24002.cif
_audit_creation_date              2012-12-11T15:54:55-0500
_audit_creation_method            fapswitch 2.2
_symmetry_space_group_name_H-M    P1
_symmetry_Int_Tables_number       1
_space_group_crystal_system       triclinic
_cell_length_a                    17.613558
_cell_length_b                    24.31916
_cell_length_c                    15.1666
_cell_angle_alpha                 89.971457
_cell_angle_beta                  126.352087
_cell_angle_gamma                 90.034272
_cell_volume                      5232.26719289

loop_
_atom_site_label
_atom_site_type_symbol
_atom_type_description
_atom_site_fract_x
_atom_site_fract_y
_atom_site_fract_z
_atom_type_partial_charge
Br1   Br    Br    0.769946 0.056120 0.410701 -0.585980
Br2   Br    Br    0.796707 0.918540 0.425256 -0.563436
Br3   Br    Br    0.269939 0.556106 0.410727 -0.586002
Br4   Br    Br    0.296736 0.418525 0.425270 -0.563422
Br5   Br    Br    0.339928 0.775959 0.238455 -0.658780
Br6   Br    Br    0.338240 0.224991 0.238769 -0.651417
Br7   Br    Br    0.839936 0.275963 0.238453 -0.658774
Br8   Br    Br    0.838241 0.724991 0.238769 -0.651426
C1    C     C_R   0.903422 0.874257 0.090897 -0.131020
C2    C     C_R   0.150583 0.848510 0.091689 -0.109232
C3    C     C_R   0.313482 0.637420 0.999233 0.016800
C4    C     C_R   0.697394 0.000309 0.632983 0.048269
C5    C     C_R   0.197391 0.500309 0.632987 0.048271
C6    C     C_R   0.012144 0.999187 0.331701 0.059378
C7    C     C_R   0.512128 0.499187 0.331687 0.059385
C8    C     C_R   0.268033 0.954164 0.247007 -0.139146
C9    C     C_R   0.267398 0.046424 0.246948 -0.137421
C10   C     C_R   0.768033 0.454165 0.247006 -0.139151
C11   C     C_R   0.767397 0.546425 0.246948 -0.137420
C12   C     C_R   0.955833 0.045682 0.698980 -0.135429
C13   C     C_R   0.649786 0.651761 0.091450 -0.110806
C14   C     C_R   0.955814 0.953555 0.700013 -0.133195
C15   C     C_R   0.455840 0.545682 0.698983 -0.135412
C16   C     C_R   0.455820 0.453554 0.700017 -0.133186
C17   C     C_R   0.650587 0.348511 0.091690 -0.109233
C18   C     C_R   0.323973 0.000555 0.273341 0.003213
C19   C     C_R   0.823974 0.500556 0.273342 0.003218
C20   C     C_R   0.944013 0.999280 0.639668 0.125575
C21   C     C_R   0.444025 0.499279 0.639674 0.125565
C22   C     C_R   0.127411 0.819242 0.001219 0.002033
C23   C     C_R   0.126249 0.181151 0.000946 0.001720
C24   C     C_R   0.627417 0.319244 0.001220 0.002038
C25   C     C_R   0.903466 0.125425 0.091127 -0.128136
C26   C     C_R   0.626251 0.681151 0.000946 0.001722
C27   C     C_3   0.915617 0.043608 0.380061 -0.451842
C28   C     C_3   0.947792 0.942200 0.408090 -0.459843
C29   C     C_3   0.415580 0.543591 0.380034 -0.451847
C30   C     C_3   0.447830 0.442190 0.408125 -0.459857
C31   C     C_3   0.902563 0.047626 0.471003 0.258344
C32   C     C_3   0.926249 0.942006 0.491645 0.256343
C33   C     C_3   0.402549 0.547618 0.470994 0.258341
C34   C     C_3   0.426276 0.442000 0.491669 0.256322
C35   C     C_3   0.082378 0.009363 0.524337 -0.405346
C36   C     C_R   0.403423 0.374256 0.090897 -0.131022
C37   C     C_3   0.582366 0.509388 0.524318 -0.405352
C38   C     C_3   0.990319 0.998650 0.409890 0.278688
C39   C     C_3   0.490311 0.498650 0.409882 0.278689
C40   C     C_3   0.954952 0.998704 0.552234 0.147565
C41   C     C_3   0.454959 0.498703 0.552238 0.147582
C42   C     C_R   0.809340 0.123524 0.907490 -0.145711
C43   C     C_R   0.809331 0.876411 0.907339 -0.144168
C44   C     C_R   0.309340 0.623525 0.907490 -0.145712
C45   C     C_R   0.309332 0.376410 0.907339 -0.144167
C46   C     C_3   0.062606 0.006653 0.609488 -0.546581
C47   C     C_R   0.403467 0.625427 0.091126 -0.128138
C48   C     C_3   0.562607 0.506666 0.609480 -0.546593
C49   C     C_3   0.653077 0.181071 0.899199 -0.414355
C50   C     C_3   0.652834 0.818847 0.898202 -0.414633
C51   C     C_3   0.153077 0.681072 0.899195 -0.414357
C52   C     C_3   0.152835 0.318847 0.898201 -0.414634
C53   C     C_3   0.100697 0.728173 0.910689 -0.461122
C54   C     C_3   0.100072 0.271952 0.909693 -0.461638
C55   C     C_3   0.600700 0.228174 0.910693 -0.461120
C56   C     C_3   0.600072 0.771952 0.909694 -0.461640
C57   C     C_3   0.304046 0.736304 0.995231 -0.375769
C58   C     C_R   0.064402 0.850108 0.908880 -0.143379
C59   C     C_3   0.303826 0.263631 0.995898 -0.376904
C60   C     C_3   0.804047 0.236303 0.995228 -0.375765
C61   C     C_3   0.803826 0.763632 0.995898 -0.376905
C62   C     C_3   0.759540 0.181318 0.103205 -0.436589
C63   C     C_3   0.758278 0.819190 0.102221 -0.431516
C64   C     C_3   0.259535 0.681315 0.103201 -0.436591
C65   C     C_3   0.258278 0.319190 0.102220 -0.431512
C66   C     C_3   0.758227 0.182382 0.999341 0.343675
C67   C     C_3   0.757771 0.817668 0.998921 0.340448
C68   C     C_3   0.258225 0.682382 0.999339 0.343680
C69   C     C_R   0.063800 0.150083 0.908754 -0.141600
C70   C     C_3   0.257771 0.317667 0.998921 0.340446
C71   C     C_3   0.173714 0.768693 0.003047 0.283307
C72   C     C_3   0.172764 0.231615 0.002757 0.280152
C73   C     C_3   0.673719 0.268695 0.003047 0.283305
C74   C     C_3   0.672765 0.731615 0.002757 0.280154
C75   C     C_3   0.244745 0.785906 0.979869 -0.350519
C76   C     C_3   0.244317 0.214134 0.980591 -0.349654
C77   C     C_3   0.744748 0.285905 0.979866 -0.350521
C78   C     C_3   0.744318 0.714135 0.980592 -0.349655
C79   C     C_3   0.227200 0.737486 0.115856 0.178103
C80   C     C_R   0.564406 0.350109 0.908880 -0.143381
C81   C     C_3   0.225726 0.263134 0.115198 0.180670
C82   C     C_3   0.727206 0.237489 0.115858 0.178102
C83   C     C_3   0.725727 0.763134 0.115199 0.180669
C84   C     C_3   0.477859 0.951995 0.354878 -0.390580
C85   C     C_3   0.474245 0.054824 0.365883 -0.377237
C86   C     C_3   0.977865 0.452004 0.354869 -0.390598
C87   C     C_3   0.974240 0.554832 0.365905 -0.377233
C88   C     C_R   0.743941 0.954375 0.695610 -0.133279
C89   C     C_R   0.744759 0.045952 0.695803 -0.135589
C90   C     C_R   0.243939 0.454374 0.695611 -0.133280
C91   C     C_R   0.563800 0.650082 0.908754 -0.141600
C92   C     C_R   0.244758 0.545952 0.695805 -0.135583
C93   C     C_3   0.582849 0.953188 0.453275 -0.342369
C94   C     C_3   0.576454 0.055794 0.469093 -0.375131
C95   C     C_3   0.082858 0.453203 0.453256 -0.342336
C96   C     C_3   0.076442 0.555804 0.469126 -0.375167
C97   C     C_3   0.433386 0.995793 0.470177 -0.376002
C98   C     C_3   0.933385 0.495781 0.470178 -0.376019
C99   C     C_3   0.425386 0.000833 0.362877 0.341470
C100  C     C_3   0.925385 0.500835 0.362880 0.341482
C101  C     C_3   0.600810 0.000602 0.532258 0.332154
C102  C     C_R   0.149786 0.151761 0.091450 -0.110804
C103  C     C_3   0.100809 0.500602 0.532262 0.332175
C104  C     C_3   0.536141 0.993220 0.568850 -0.409931
C105  C     C_3   0.036139 0.493193 0.568847 -0.409948
C106  C     C_R   0.022950 0.045652 0.288281 -0.153376
C107  C     C_R   0.022648 0.953454 0.286986 -0.154112
C108  C     C_R   0.522939 0.545652 0.288272 -0.153374
C109  C     C_R   0.522639 0.453453 0.286978 -0.154114
C110  C     C_R   0.813386 0.862448 0.998952 0.017858
C111  C     C_R   0.813482 0.137418 0.999234 0.016800
C112  C     C_R   0.313387 0.362447 0.998952 0.017859
H1    H     H_    0.935836 0.861499 0.173748 0.105036
H2    H     H_    0.970961 0.909073 0.551407 0.074921
H3    H     H_    0.533834 0.411409 0.314466 0.099258
H4    H     H_    0.289964 0.911696 0.263256 0.132059
H5    H     H_    0.287410 0.089144 0.261387 0.130621
H6    H     H_    0.789967 0.411697 0.263257 0.132063
H7    H     H_    0.787406 0.589145 0.261381 0.130621
H8    H     H_    0.947895 0.088284 0.674637 0.104845
H9    H     H_    0.946164 0.910703 0.677127 0.116697
H10   H     H_    0.447901 0.588283 0.674638 0.104845
H11   H     H_    0.446167 0.410703 0.677131 0.116706
H12   H     H_    0.026831 0.838426 0.823988 0.096027
H13   H     H_    0.435992 0.586800 0.515420 0.084426
H14   H     H_    0.026186 0.161668 0.823793 0.093815
H15   H     H_    0.526836 0.338427 0.823989 0.096028
H16   H     H_    0.526187 0.661668 0.823792 0.093815
H17   H     H_    0.185039 0.166169 0.174212 0.145816
H18   H     H_    0.186314 0.834212 0.174614 0.144722
H19   H     H_    0.685039 0.666169 0.174212 0.145815
H20   H     H_    0.686319 0.334213 0.174615 0.144719
H21   H     H_    0.937162 0.084779 0.370278 0.146077
H22   H     H_    0.998651 0.908357 0.430186 0.145635
H23   H     H_    0.437084 0.584765 0.370204 0.146082
H24   H     H_    0.470993 0.409071 0.551442 0.074912
H25   H     H_    0.498721 0.408360 0.430255 0.145634
H26   H     H_    0.111090 0.050629 0.526916 0.170646
H27   H     H_    0.136639 0.978172 0.543987 0.171506
H28   H     H_    0.611034 0.550665 0.526867 0.170646
H29   H     H_    0.636651 0.478214 0.543971 0.171511
H30   H     H_    0.088848 0.045173 0.658824 0.185127
H31   H     H_    0.103395 0.972063 0.666997 0.186890
H32   H     H_    0.588839 0.545187 0.658813 0.185128
H33   H     H_    0.935968 0.137541 0.174344 0.104340
H34   H     H_    0.603409 0.472078 0.666983 0.186898
H35   H     H_    0.646109 0.186938 0.821973 0.166495
H36   H     H_    0.646410 0.812641 0.821388 0.166423
H37   H     H_    0.146111 0.686940 0.821972 0.166495
H38   H     H_    0.146410 0.312640 0.821388 0.166423
H39   H     H_    0.620441 0.140851 0.893868 0.163418
H40   H     H_    0.620101 0.859138 0.892051 0.163363
H41   H     H_    0.120440 0.640851 0.893861 0.163416
H42   H     H_    0.120101 0.359138 0.892051 0.163363
H43   H     H_    0.554312 0.211018 0.931165 0.166084
H44   H     H_    0.435838 0.361495 0.173747 0.105035
H45   H     H_    0.553355 0.789325 0.929452 0.166053
H46   H     H_    0.054308 0.711016 0.931158 0.166083
H47   H     H_    0.053355 0.289326 0.929452 0.166053
H48   H     H_    0.054474 0.748756 0.829947 0.173542
H49   H     H_    0.054148 0.251182 0.829130 0.172187
H50   H     H_    0.554476 0.248756 0.829950 0.173543
H51   H     H_    0.554149 0.751182 0.829130 0.172186
H52   H     H_    0.310829 0.735425 0.926751 0.148694
H53   H     H_    0.311144 0.264245 0.927819 0.149491
H54   H     H_    0.810828 0.235422 0.926746 0.148694
H55   H     H_    0.435969 0.637546 0.174343 0.104339
H56   H     H_    0.811144 0.764246 0.927820 0.149491
H57   H     H_    0.752484 0.131288 0.822754 0.094968
H58   H     H_    0.752524 0.868682 0.822589 0.094816
H59   H     H_    0.252485 0.631289 0.822754 0.094968
H60   H     H_    0.252525 0.368682 0.822589 0.094816
H61   H     H_    0.206414 0.801329 0.894317 0.152488
H62   H     H_    0.206420 0.198473 0.895266 0.152765
H63   H     H_    0.706415 0.301327 0.894312 0.152488
H64   H     H_    0.706421 0.698474 0.895266 0.152764
H65   H     H_    0.828690 0.171106 0.179893 0.192193
H66   H     H_    0.847802 0.033197 0.300474 0.212772
H67   H     H_    0.827177 0.829668 0.179067 0.194716
H68   H     H_    0.328685 0.671103 0.179890 0.192188
H69   H     H_    0.327177 0.329668 0.179066 0.194716
H70   H     H_    0.710971 0.148679 0.094085 0.155066
H71   H     H_    0.709440 0.851872 0.092157 0.156472
H72   H     H_    0.210966 0.648676 0.094078 0.155060
H73   H     H_    0.209440 0.351872 0.092156 0.156471
H74   H     H_    0.678855 0.230845 0.139363 0.097051
H75   H     H_    0.676982 0.769946 0.138069 0.100993
H76   H     H_    0.178847 0.730841 0.139359 0.097049
H77   H     H_    0.883087 0.933550 0.324405 0.204303
H78   H     H_    0.176982 0.269947 0.138069 0.100995
H79   H     H_    0.376382 0.741068 0.072465 0.199879
H80   H     H_    0.375952 0.258973 0.073507 0.198894
H81   H     H_    0.876385 0.241067 0.072460 0.199879
H82   H     H_    0.875953 0.758975 0.073508 0.198895
H83   H     H_    0.291538 0.819829 0.034744 0.196918
H84   H     H_    0.290927 0.180313 0.036035 0.196116
H85   H     H_    0.791542 0.319829 0.034737 0.196917
H86   H     H_    0.790928 0.680314 0.036035 0.196116
H87   H     H_    0.447604 0.912011 0.355415 0.185937
H88   H     H_    0.347765 0.533157 0.300470 0.212794
H89   H     H_    0.438974 0.091896 0.368445 0.180970
H90   H     H_    0.947620 0.412016 0.355409 0.185947
H91   H     H_    0.938962 0.591899 0.368466 0.180964
H92   H     H_    0.470858 0.954426 0.277090 0.178329
H93   H     H_    0.472477 0.057874 0.291470 0.183099
H94   H     H_    0.970855 0.454440 0.277075 0.178322
H95   H     H_    0.972486 0.557889 0.291501 0.183111
H96   H     H_    0.627194 0.959213 0.424104 0.231801
H97   H     H_    0.624951 0.063261 0.446337 0.221226
H98   H     H_    0.127193 0.459248 0.424077 0.231815
H99   H     H_    0.383136 0.433516 0.324444 0.204291
H100  H     H_    0.124947 0.563295 0.446390 0.221199
H101  H     H_    0.730023 0.911932 0.669639 0.098549
H102  H     H_    0.732926 0.088428 0.670062 0.098785
H103  H     H_    0.230020 0.411932 0.669639 0.098548
H104  H     H_    0.232926 0.588429 0.670063 0.098787
H105  H     H_    0.601410 0.912623 0.494860 0.159008
H106  H     H_    0.583807 0.090768 0.520876 0.154930
H107  H     H_    0.101442 0.412633 0.494825 0.159017
H108  H     H_    0.083775 0.590765 0.520923 0.154927
H109  H     H_    0.396855 0.958121 0.469104 0.161120
H110  H     H_    0.936008 0.086805 0.515445 0.084412
H111  H     H_    0.399065 0.031695 0.478918 0.162417
H112  H     H_    0.896843 0.458111 0.469088 0.161119
H113  H     H_    0.899076 0.531683 0.478938 0.162424
H114  H     H_    0.550133 0.952899 0.610853 0.160436
H115  H     H_    0.550041 0.025930 0.628190 0.160342
H116  H     H_    0.050124 0.452860 0.610806 0.160444
H117  H     H_    0.050042 0.525884 0.628222 0.160341
H118  H     H_    0.033468 0.087401 0.317525 0.097115
H119  H     H_    0.033843 0.911410 0.314472 0.099256
H120  H     H_    0.533452 0.587401 0.317516 0.097112
N1    N     N_R   0.950530 0.896220 0.057200 -0.040739
N2    N     N_R   0.818150 0.028600 0.792440 -0.036560
N3    N     N_R   0.318150 0.471400 0.792440 -0.036393
N4    N     N_R   0.318150 0.528600 0.792440 -0.036562
N5    N     N_R   0.025710 0.028600 0.207560 -0.035203
N6    N     N_R   0.025710 0.971400 0.207560 -0.035449
N7    N     N_R   0.525710 0.528600 0.207560 -0.035203
N8    N     N_R   0.525710 0.471400 0.207560 -0.035450
N9    N     N_R   0.181850 0.971400 0.207560 -0.041213
N10   N     N_R   0.181850 0.028600 0.207560 -0.041161
N11   N     N_R   0.681850 0.471400 0.207560 -0.041214
N12   N     N_R   0.950530 0.103780 0.057200 -0.040668
N13   N     N_R   0.681850 0.528600 0.207560 -0.041161
N14   N     N_R   0.974290 0.028600 0.792440 -0.042135
N15   N     N_R   0.974290 0.971400 0.792440 -0.043723
N16   N     N_R   0.474290 0.528600 0.792440 -0.042135
N17   N     N_R   0.474290 0.471400 0.792440 -0.043724
N18   N     N_R   0.049470 0.896220 0.942800 -0.038233
N19   N     N_R   0.049470 0.103780 0.942800 -0.038052
N20   N     N_R   0.549470 0.396220 0.942800 -0.038233
N21   N     N_R   0.549470 0.603780 0.942800 -0.038052
N22   N     N_R   0.106670 0.103780 0.057200 -0.043660
N23   N     N_R   0.450530 0.396220 0.057200 -0.040739
N24   N     N_R   0.106670 0.896220 0.057200 -0.043493
N25   N     N_R   0.606670 0.603780 0.057200 -0.043660
N26   N     N_R   0.606670 0.396220 0.057200 -0.043492
N27   N     N_R   0.450530 0.603780 0.057200 -0.040667
N28   N     N_R   0.893330 0.103780 0.942800 -0.038885
N29   N     N_R   0.893330 0.896220 0.942800 -0.038733
N30   N     N_R   0.393330 0.603780 0.942800 -0.038884
N31   N     N_R   0.393330 0.396220 0.942800 -0.038733
N32   N     N_R   0.818150 0.971400 0.792440 -0.036393
Ni1   Ni    Ni4+2 0.065600 0.934400 0.131190 0.215777
Ni2   Ni    Ni4+2 0.065600 0.065600 0.131190 0.216998
Ni3   Ni    Ni4+2 0.565600 0.434400 0.131190 0.215776
Ni4   Ni    Ni4+2 0.565600 0.565600 0.131190 0.216998
Ni5   Ni    Ni4+2 0.934400 0.065600 0.868810 0.218666
Ni6   Ni    Ni4+2 0.934400 0.934400 0.868810 0.221189
Ni7   Ni    Ni4+2 0.434400 0.565600 0.868810 0.218668
Ni8   Ni    Ni4+2 0.434400 0.434400 0.868810 0.221192

loop_
_geom_bond_atom_site_label_1
_geom_bond_atom_site_label_2
_ccdc_geom_bond_type
N21   N25   A    
C49   C66   S    
C105  H116  S    
C71   C75   S    
N29   Ni6   S    
C60   C77   S    
C98   H113  S    
C65   H73   S    
C26   C74   S    
C37   H28   S    
C87   H95   S    
N16   Ni7   S    
C70   C112  S    
C32   H2    S    
N7    Ni4   S    
C66   C111  S    
C7    C39   S    
C64   C68   S    
N19   N22   A    
C1    N1    A    
C78   H86   S    
C36   N23   A    
C33   H13   S    
C17   N26   A    
C45   C112  A    
C77   H85   S    
C23   C72   S    
C6    C38   S    
C21   C41   S    
C40   C46   S    
C81   H78   S    
C49   H35   S    
C86   C100  S    
N9    N10   A    
C56   H45   S    
C57   C68   S    
C98   C100  S    
C55   C73   S    
C29   C33   S    
C51   H41   S    
C9    C18   A    
C97   H111  S    
C53   C71   S    
C93   H105  S    
N1    N29   A    
C52   H38   S    
C79   H76   S    
C12   H8    S    
C95   H107  S    
C3    C68   S    
N20   Ni8   S    
N14   Ni5   S    
C25   H33   S    
N11   N13   A    
C106  N5    A    
C92   H104  S    
C93   H96   S    
C60   C66   S    
N3    N4    A    
C24   C80   A    
C56   H51   S    
C9    N10   A    
C94   H106  S    
C43   C110  A    
C83   H75   S    
C89   H102  S    
C75   H61   S    
C52   C54   S    
C53   H46   S    
N1    Ni1   S    
C5    C90   A    
C84   H92   S    
C28   H22   S    
C16   C21   A    
C96   H100  S    
C96   H108  S    
C3    C44   A    
N25   Ni4   S    
C94   H97   S    
C4    C89   A    
C89   N2    A    
C57   H79   S    
C80   N20   A    
C11   N13   A    
C44   N30   A    
C37   C48   S    
C2    N24   A    
C45   N31   A    
C82   H74   S    
N18   Ni6   S    
C52   H42   S    
C65   C70   S    
C35   H27   S    
C23   C69   A    
C6    C107  A    
C61   H56   S    
C48   H32   S    
C43   H58   S    
C11   C19   A    
C34   H24   S    
C55   H43   S    
C85   H89   S    
C62   H65   S    
C13   N25   A    
C106  H118  S    
C107  N6    A    
C12   N14   A    
C76   H84   S    
C17   C24   A    
N23   N31   A    
C54   H47   S    
C72   C81   S    
C61   H82   S    
C77   H63   S    
C14   C20   A    
N5    N6    A    
C90   H103  S    
C50   C56   S    
C1    C110  A    
C20   C40   S    
C62   C82   S    
C59   C70   S    
C71   C79   S    
C4    C101  S    
N12   N28   A    
C50   C67   S    
C49   C55   S    
C58   H12   S    
C37   C39   S    
C8    C18   A    
N22   Ni2   S    
C42   N28   A    
N27   Ni4   S    
C51   C53   S    
C86   H94   S    
C57   H52   S    
C85   H93   S    
C42   C111  A    
C36   C112  A    
C28   C32   S    
C42   H57   S    
C47   N27   A    
C28   H77   S    
C31   H110  S    
C46   H30   S    
C59   H80   S    
C101  C104  S    
C72   C76   S    
C60   H54   S    
C55   H50   S    
C13   C26   A    
C12   C20   A    
C74   C78   S    
Br7   C82   S    
N28   Ni5   S    
N4    Ni7   S    
C74   C83   S    
C7    C109  A    
C15   H10   S    
N5    Ni2   S    
N2    N32   A    
N30   Ni7   S    
C85   C94   S    
C25   N12   A    
C27   C31   S    
C50   H40   S    
C30   H25   S    
C62   C66   S    
N14   N15   A    
C24   C73   S    
C67   C110  S    
C97   C99   S    
C2    C22   A    
C35   C46   S    
C1    H1    S    
N21   Ni7   S    
C108  N7    A    
N26   Ni3   S    
N7    N8    A    
C84   C99   S    
C52   C70   S    
N16   N17   A    
C17   H20   S    
C98   C105  S    
C26   C91   A    
C14   N15   A    
C103  C105  S    
Br8   C83   S    
C28   C38   S    
C47   H55   S    
C30   C39   S    
C22   C58   A    
C50   H36   S    
C84   C93   S    
N8    Ni3   S    
C22   C71   S    
C48   H34   S    
N31   Ni8   S    
C97   C104  S    
C27   H21   S    
C86   C95   S    
C86   H90   S    
N23   Ni3   S    
C43   N29   A    
N15   Ni6   S    
C64   H68   S    
C29   H88   S    
N9    Ni1   S    
N19   Ni5   S    
C29   C39   S    
C69   H14   S    
C73   C82   S    
N20   N26   A    
C104  H115  S    
C45   H60   S    
C15   C21   A    
N11   Ni3   S    
C64   C79   S    
C3    C47   A    
C87   C96   S    
C62   H70   S    
C91   N21   A    
C109  N8    A    
C54   C72   S    
C32   C40   S    
C54   H49   S    
Br3   C33   S    
N32   Ni6   S    
C56   C74   S    
C29   H23   S    
C60   H81   S    
C30   H99   S    
C78   H64   S    
N6    Ni1   S    
N18   N24   A    
C10   C19   A    
C94   C101  S    
C80   H15   S    
C63   H67   S    
C15   N16   A    
C58   N18   A    
N13   Ni4   S    
C92   N4    A    
C18   C99   S    
C96   C103  S    
C8    N9    A    
C25   C111  A    
C46   H31   S    
C75   H83   S    
C95   C103  S    
C88   N32   A    
Br6   C81   S    
C36   H44   S    
C108  H120  S    
C65   H69   S    
N24   Ni1   S    
N2    Ni5   S    
C53   H48   S    
C87   H91   S    
C5    C92   A    
C76   H62   S    
C109  H3    S    
C44   H59   S    
C65   C81   S    
C5    C103  S    
C41   C48   S    
C6    C106  A    
C10   H6    S    
C63   C67   S    
C51   H37   S    
C16   H11   S    
C9    H5    S    
N3    Ni8   S    
Br4   C34   S    
C19   C100  S    
C59   H53   S    
C27   H66   S    
C104  H114  S    
N12   Ni2   S    
C16   N17   A    
C11   H7    S    
N27   N30   A    
C23   C102  A    
C98   H112  S    
C91   H16   S    
C61   C67   S    
C37   H29   S    
C102  H17   S    
C33   C41   S    
C49   H39   S    
C35   C38   S    
C73   C77   S    
C102  N22   A    
C57   C75   S    
C87   C100  S    
Br1   C31   S    
C95   H98   S    
Br5   C79   S    
C30   C34   S    
Br2   C32   S    
C59   C76   S    
C63   C83   S    
C105  H117  S    
C107  H119  S    
N17   Ni8   S    
C88   H101  S    
C69   N19   A    
C14   H9    S    
C84   H87   S    
C13   H19   S    
C7    C108  A    
C4    C88   A    
N10   Ni2   S    
C90   N3    A    
C2    H18   S    
C10   N11   A    
C63   H71   S    
C34   C41   S    
C8    H4    S    
C27   C38   S    
C93   C101  S    
C51   C68   S    
C64   H72   S    
C85   C99   S    
C61   C78   S    
C35   H26   S    
C97   H109  S    
C31   C40   S    
