data_mof_unit_65011.cif
_audit_creation_date              2012-12-10T16:59:21-0500
_audit_creation_method            fapswitch 2.2
_symmetry_space_group_name_H-M    P1
_symmetry_Int_Tables_number       1
_space_group_crystal_system       triclinic
_cell_length_a                    13.149127
_cell_length_b                    13.154632
_cell_length_c                    17.902756
_cell_angle_alpha                 110.323613
_cell_angle_beta                  72.983975
_cell_angle_gamma                 91.113358
_cell_volume                      2765.07507248

loop_
_atom_site_label
_atom_site_type_symbol
_atom_type_description
_atom_site_fract_x
_atom_site_fract_y
_atom_site_fract_z
_atom_type_partial_charge
C1    C     C_R   0.217090 0.543603 0.531595 0.885237
C2    C     C_R   0.552038 0.373648 0.903667 -0.258260
C3    C     C_R   0.596802 0.306945 0.933313 0.639162
C4    C     C_R   0.781796 0.456145 0.468330 0.836455
C5    C     C_R   0.584053 0.337853 0.018578 -0.058269
C6    C     C_R   0.522374 0.436466 0.075623 -0.086873
C7    C     C_R   0.632498 0.271458 0.047673 -0.113713
C8    C     C_R   0.622210 0.302836 0.132298 -0.322115
C9    C     C_R   0.525371 0.473064 0.159115 0.669267
C10   C     C_2   0.895505 0.440342 0.455153 -0.264562
C11   C     C_2   0.938063 0.499059 0.513805 -0.147285
C12   C     C_R   0.341957 0.672879 0.871134 -0.180070
C13   C     C_2   0.101521 0.558348 0.547721 -0.322615
C14   C     C_2   0.053859 0.488031 0.497474 -0.124098
C15   C     C_2   0.537327 0.896501 0.535156 -0.283590
C16   C     C_R   0.471236 0.217383 0.475232 0.856319
C17   C     C_2   0.505323 0.937375 0.486343 -0.134623
C18   C     C_2   0.463504 0.101260 0.461645 -0.316596
C19   C     C_2   0.508837 0.053893 0.500650 -0.139918
C20   C     C_R   0.528609 0.782438 0.524735 0.864577
C21   C     C_R   0.551731 0.432883 0.276827 0.890104
C22   C     C_R   0.448434 0.566296 0.723691 0.799659
C23   C     C_R   0.471389 0.526470 0.843734 -0.209047
C24   C     C_R   0.421031 0.590260 0.814319 -0.035969
C25   C     C_R   0.570383 0.404191 0.187554 -0.135009
C26   C     C_R   0.312252 0.690158 0.956131 -0.152277
C27   C     C_1   0.238694 0.716509 0.131254 0.287515
C28   C     C_R   0.439901 0.539088 0.929064 0.112387
C29   C     C_R   0.359704 0.623673 0.986268 0.021481
C30   C     C_R   0.486733 0.470297 0.958740 -0.098446
C31   C     C_R   0.463249 0.495730 0.046294 -0.072523
C32   C     C_R   0.375904 0.572972 0.100820 0.672220
C33   C     C_R   0.326226 0.637629 0.071721 -0.197507
F1    F     F_    0.492763 0.577448 0.211842 -0.629172
F2    F     F_    0.655303 0.212899 0.877705 -0.671594
F3    F     F_    0.328796 0.576661 0.180293 -0.615052
H1    H     H_    0.676940 0.194396 0.005335 0.208975
H2    H     H_    0.656073 0.248890 0.154586 0.167058
H3    H     H_    0.250698 0.755059 0.997820 0.147927
H4    H     H_    0.302145 0.723701 0.849867 0.168072
H5    H     H_    0.536359 0.468351 0.798651 0.159207
H6    H     H_    0.565324 0.343709 0.837106 0.172268
H7    H     H_    0.101012 0.421388 0.442654 0.191687
H8    H     H_    0.887642 0.557240 0.572556 0.156396
H9    H     H_    0.054921 0.626189 0.601710 0.159419
H10   H     H_    0.945739 0.386669 0.394442 0.140954
H11   H     H_    0.549064 0.101918 0.544599 0.192474
H12   H     H_    0.474474 0.885202 0.437359 0.177489
H13   H     H_    0.421748 0.053942 0.418699 0.168056
H14   H     H_    0.563236 0.948848 0.586906 0.144289
N1    N     N_1   0.168757 0.779513 0.178886 -0.178493
O1    O     O_3   0.500000 0.500000 0.500000 -0.498029
O2    O     O_R   0.474570 0.394560 0.317400 -0.635498
O3    O     O_R   0.403380 0.624270 0.695980 -0.647869
O4    O     O_R   0.609140 0.497770 0.314440 -0.618206
O5    O     O_R   0.512900 0.483390 0.672170 -0.644014
O6    O     O_R   0.526170 0.271940 0.521690 -0.640192
O7    O     O_R   0.451880 0.756290 0.574830 -0.634390
O8    O     O_R   0.271960 0.460780 0.472050 -0.633652
O9    O     O_R   0.749980 0.510990 0.431420 -0.633516
O10   O     O_R   0.262540 0.611050 0.579000 -0.639627
O11   O     O_R   0.715520 0.417170 0.517520 -0.631320
O12   O     O_R   0.426070 0.262540 0.438550 -0.642504
O13   O     O_R   0.595870 0.709230 0.464930 -0.616365
Zn1   Zn    Zn3+2 0.562560 0.419520 0.551940 0.969428
Zn2   Zn    Zn3+2 0.419550 0.406100 0.433160 1.000223
Zn3   Zn    Zn3+2 0.611810 0.553570 0.428930 1.014362
Zn4   Zn    Zn3+2 0.406080 0.620810 0.585960 0.990189

loop_
_geom_bond_atom_site_label_1
_geom_bond_atom_site_label_2
_ccdc_geom_bond_type
C12   H4    S    
O4    Zn3   S    
C23   C24   A    
C20   O13   A    
C10   H10   S    
O9    Zn3   S    
C8    C25   A    
C16   O12   A    
C29   C33   A    
C5    C7    A    
C12   C24   A    
C31   C32   A    
O1    Zn4   S    
C17   H12   S    
C3    F2    S    
C2    C30   A    
C32   C33   A    
C4    O9    A    
C6    C9    A    
C28   C30   A    
C2    C3    A    
C7    H1    S    
O12   Zn2   S    
C9    C25   A    
C7    C8    A    
C22   O3    A    
C23   C28   A    
C27   C33   S    
C21   O2    A    
O2    Zn2   S    
O10   Zn4   S    
C30   C31   A    
O1    Zn3   S    
C8    H2    S    
C2    H6    S    
C5    C6    A    
C32   F3    S    
O7    Zn4   S    
C28   C29   A    
C17   C19   S    
C27   N1    T    
C9    F1    S    
C6    C31   A    
C22   C24   S    
C16   O6    A    
C1    O8    A    
O8    Zn2   S    
C15   C20   S    
C11   C14   S    
C19   H11   S    
C26   H3    S    
C23   H5    S    
C1    C13   S    
C10   C11   D    
C20   O7    A    
O5    Zn1   S    
O13   Zn3   S    
C4    O11   A    
C11   H8    S    
O1    Zn2   S    
O3    Zn4   S    
C13   H9    S    
C26   C29   A    
C16   C18   S    
C18   C19   D    
C15   H14   S    
C12   C26   A    
C21   O4    A    
C21   C25   S    
C22   O5    A    
O11   Zn1   S    
C15   C17   D    
C4    C10   S    
O1    Zn1   S    
C18   H13   S    
O6    Zn1   S    
C14   H7    S    
C3    C5    A    
C13   C14   D    
C1    O10   A    
