data_mof_unit_68031.cif
_audit_creation_date              2012-12-11T14:31:10-0500
_audit_creation_method            fapswitch 2.2
_symmetry_space_group_name_H-M    P1
_symmetry_Int_Tables_number       1
_space_group_crystal_system       triclinic
_cell_length_a                    6.932806
_cell_length_b                    14.424433
_cell_length_c                    16.40424
_cell_angle_alpha                 89.999974
_cell_angle_beta                  90.000035
_cell_angle_gamma                 90.0001
_cell_volume                      1640.45345625

loop_
_atom_site_label
_atom_site_type_symbol
_atom_type_description
_atom_site_fract_x
_atom_site_fract_y
_atom_site_fract_z
_atom_type_partial_charge
O1    O     O_R   0.469910 0.836130 0.163900 -0.535750
O2    O     O_R   0.530090 0.163870 0.836100 -0.544405
O3    O     O_R   0.530090 0.163870 0.663900 -0.535749
O4    O     O_R   0.469910 0.836130 0.336100 -0.544405
O5    O     O_R   0.969910 0.663870 0.336100 -0.535748
O6    O     O_R   0.030090 0.336130 0.663900 -0.544404
O7    O     O_R   0.030090 0.336130 0.836100 -0.535749
O8    O     O_R   0.969910 0.663870 0.163900 -0.544405
O9    O     O_R   0.140100 0.847470 0.335520 -0.537217
O10   O     O_R   0.859900 0.152530 0.664480 -0.552575
O11   O     O_R   0.859900 0.152530 0.835520 -0.537218
O12   O     O_R   0.140100 0.847470 0.164480 -0.552576
O13   O     O_R   0.640100 0.652530 0.164480 -0.537219
O14   O     O_R   0.359900 0.347470 0.835520 -0.552577
O15   O     O_R   0.359900 0.347470 0.664480 -0.537219
O16   O     O_R   0.640100 0.652530 0.335520 -0.552576
C1    C     C_R   0.310456 0.867364 0.365932 0.730389
C2    C     C_R   0.689819 0.126619 0.640221 0.762229
C3    C     C_R   0.689544 0.132637 0.865933 0.730387
C4    C     C_R   0.310181 0.873382 0.140222 0.762231
C5    C     C_R   0.810455 0.632637 0.134067 0.730387
C6    C     C_R   0.189820 0.373381 0.859779 0.762227
C7    C     C_R   0.189544 0.367363 0.634067 0.730390
C8    C     C_R   0.810181 0.626618 0.359778 0.762231
O17   O     O_3   0.303300 0.689750 0.250000 -0.376427
O18   O     O_3   0.696700 0.310250 0.750000 -0.376427
O19   O     O_3   0.803300 0.810250 0.250000 -0.376425
O20   O     O_3   0.196700 0.189750 0.750000 -0.376425
V1    V     V_3+5 0.028490 0.761170 0.250000 1.459884
V2    V     V_3+5 0.971510 0.238830 0.750000 1.459885
V3    V     V_3+5 0.528490 0.738830 0.250000 1.459882
V4    V     V_3+5 0.471510 0.261170 0.750000 1.459882
C9    C     C_2   0.826586 0.540403 0.409033 -0.126710
C10   C     C_2   0.170931 0.437613 0.566405 -0.124988
C11   C     C_2   0.173414 0.459597 0.909033 -0.126710
C12   C     C_2   0.829070 0.562387 0.066405 -0.124993
C13   C     C_2   0.326587 0.959597 0.090967 -0.126706
C14   C     C_2   0.670930 0.062386 0.933594 -0.124988
C15   C     C_2   0.673412 0.040404 0.590967 -0.126706
C16   C     C_2   0.329072 0.937616 0.433592 -0.124987
C17   C     C_2   0.953299 0.535954 0.473824 -0.085485
C18   C     C_2   0.000339 0.449531 0.523447 -0.079921
C19   C     C_2   0.046705 0.464046 0.973826 -0.085477
C20   C     C_2   0.999663 0.550469 0.023447 -0.079918
C21   C     C_2   0.453298 0.964046 0.026175 -0.085487
C22   C     C_2   0.500337 0.050469 0.976552 -0.079922
C23   C     C_2   0.546702 0.035956 0.526174 -0.085484
C24   C     C_2   0.499663 0.949534 0.476551 -0.079928
C25   C     C_1   0.854572 0.377799 0.529419 0.314257
N1    N     N_1   0.741201 0.319240 0.534936 -0.360804
C26   C     C_1   0.027751 0.623960 0.503803 0.308415
N2    N     N_1   0.084817 0.694803 0.526577 -0.372119
C27   C     C_1   0.145430 0.622202 0.029419 0.314261
N3    N     N_1   0.258799 0.680763 0.034935 -0.360807
C28   C     C_1   0.972258 0.376040 0.003807 0.308416
N4    N     N_1   0.915195 0.305197 0.026583 -0.372118
C29   C     C_1   0.354568 0.122199 0.970579 0.314262
N5    N     N_1   0.241194 0.180758 0.965061 -0.360807
C30   C     C_1   0.527744 0.876040 0.996194 0.308421
N6    N     N_1   0.584806 0.805197 0.973418 -0.372116
C31   C     C_1   0.645435 0.877804 0.470578 0.314256
N7    N     N_1   0.758810 0.819246 0.465060 -0.360799
C32   C     C_1   0.472255 0.123963 0.496195 0.308414
N8    N     N_1   0.415193 0.194806 0.473419 -0.372115
C33   C     C_3   0.349911 0.493504 0.547213 -0.338639
C34   C     C_3   0.393149 0.563249 0.615136 -0.315026
C35   C     C_3   0.534709 0.637092 0.586606 -0.717263
H1    H     H_    0.682600 0.608187 0.585692 0.221742
H2    H     H_    0.496738 0.663879 0.525187 0.246600
H3    H     H_    0.529570 0.695915 0.629513 0.223016
H4    H     H_    0.258360 0.597321 0.635750 0.217843
H5    H     H_    0.455039 0.526780 0.668787 0.188956
H6    H     H_    0.473542 0.445672 0.542155 0.193707
H7    H     H_    0.338567 0.527680 0.486766 0.182850
C36   C     C_3   0.711116 0.459412 0.374819 -0.360959
C37   C     C_3   0.836552 0.390630 0.327536 -0.291186
C38   C     C_3   0.713644 0.309908 0.296867 -0.795802
H8    H     H_    0.662626 0.267337 0.348925 0.261585
H9    H     H_    0.585402 0.335928 0.263781 0.230417
H10   H     H_    0.799168 0.265846 0.254843 0.223402
H11   H     H_    0.902764 0.426526 0.274478 0.178217
H12   H     H_    0.954776 0.363585 0.366415 0.208635
H13   H     H_    0.623332 0.425171 0.421808 0.198248
H14   H     H_    0.600679 0.485357 0.331291 0.164884
C39   C     C_3   0.650089 0.506497 0.047210 -0.338630
C40   C     C_3   0.606846 0.436750 0.115131 -0.315024
C41   C     C_3   0.465318 0.362896 0.086595 -0.717266
H15   H     H_    0.317412 0.391779 0.085700 0.221737
H16   H     H_    0.503270 0.336134 0.025167 0.246595
H17   H     H_    0.470516 0.304061 0.129487 0.223027
H18   H     H_    0.741636 0.402687 0.135753 0.217839
H19   H     H_    0.544930 0.473214 0.168777 0.188954
H20   H     H_    0.526458 0.554329 0.042151 0.193701
H21   H     H_    0.661438 0.472324 0.986762 0.182845
C42   C     C_3   0.288875 0.540590 0.874817 -0.360949
C43   C     C_3   0.163429 0.609367 0.827533 -0.291192
C44   C     C_3   0.286322 0.690097 0.796870 -0.795814
H22   H     H_    0.337328 0.732667 0.848929 0.261581
H23   H     H_    0.414569 0.664085 0.763786 0.230421
H24   H     H_    0.200795 0.734156 0.754848 0.223412
H25   H     H_    0.097234 0.573469 0.774472 0.178217
H26   H     H_    0.045194 0.636404 0.866409 0.208632
H27   H     H_    0.376656 0.574835 0.921806 0.198247
H28   H     H_    0.399318 0.514646 0.831290 0.164877
C45   C     C_3   0.849909 0.006495 0.952788 -0.338631
C46   C     C_3   0.893152 0.936751 0.884864 -0.315036
C47   C     C_3   0.034700 0.862905 0.913396 -0.717277
H29   H     H_    0.182593 0.891803 0.914307 0.221745
H30   H     H_    0.996730 0.836124 0.974816 0.246603
H31   H     H_    0.029546 0.804080 0.870492 0.223022
H32   H     H_    0.758365 0.902682 0.864246 0.217843
H33   H     H_    0.955053 0.973219 0.831217 0.188958
H34   H     H_    0.973540 0.054328 0.957848 0.193704
H35   H     H_    0.838563 0.972319 0.013234 0.182848
C48   C     C_3   0.211126 0.040589 0.125182 -0.360947
C49   C     C_3   0.336572 0.109368 0.172464 -0.291200
C50   C     C_3   0.213685 0.190104 0.203116 -0.795780
H36   H     H_    0.162692 0.232670 0.151050 0.261584
H37   H     H_    0.085428 0.164098 0.236200 0.230420
H38   H     H_    0.299212 0.234167 0.245137 0.223408
H39   H     H_    0.402755 0.073475 0.225530 0.178215
H40   H     H_    0.454817 0.136398 0.133588 0.208627
H41   H     H_    0.123343 0.074831 0.078192 0.198247
H42   H     H_    0.100685 0.014646 0.168711 0.164871
C51   C     C_3   0.150093 0.993509 0.452781 -0.338638
C52   C     C_3   0.106857 0.063249 0.384854 -0.315035
C53   C     C_3   0.965257 0.137078 0.413374 -0.717294
H43   H     H_    0.817380 0.108158 0.414280 0.221747
H44   H     H_    0.003198 0.163869 0.474795 0.246603
H45   H     H_    0.970386 0.195900 0.370466 0.223019
H46   H     H_    0.241639 0.097333 0.364250 0.217847
H47   H     H_    0.045001 0.026775 0.331200 0.188962
H48   H     H_    0.026461 0.945677 0.457842 0.193713
H49   H     H_    0.161436 0.027689 0.513226 0.182849
C54   C     C_3   0.788877 0.959412 0.625180 -0.360956
C55   C     C_3   0.663434 0.890627 0.672458 -0.291191
C56   C     C_3   0.786336 0.809903 0.703126 -0.795784
H50   H     H_    0.837360 0.767334 0.651067 0.261579
H51   H     H_    0.914577 0.835922 0.736215 0.230413
H52   H     H_    0.700807 0.765840 0.745148 0.223404
H53   H     H_    0.597218 0.926521 0.725517 0.178221
H54   H     H_    0.545214 0.863585 0.633576 0.208632
H55   H     H_    0.876669 0.925173 0.578192 0.198245
H56   H     H_    0.899308 0.985355 0.668713 0.164880

loop_
_geom_bond_atom_site_label_1
_geom_bond_atom_site_label_2
_ccdc_geom_bond_type
C51   H49   S    
O17   V3    S    
C41   H15   S    
O18   V4    S    
C52   C53   S    
C43   H26   S    
O12   V1    S    
O19   V1    S    
C17   C18   S    
C42   C43   S    
C10   C18   D    
C28   N4    T    
C44   H22   S    
C24   C31   S    
C54   C55   S    
C5    C12   S    
C15   C54   S    
C38   H8    S    
O16   V3    S    
C6    C11   S    
C56   H51   S    
O11   C3    A    
C49   H40   S    
O8    V1    S    
C45   H34   S    
C40   H18   S    
C50   H37   S    
C23   C32   S    
C36   H14   S    
C46   C47   S    
C16   C51   S    
C48   C49   S    
O1    V3    S    
C33   H6    S    
C49   C50   S    
O3    C2    A    
O2    V4    S    
C25   N1    T    
C2    C15   S    
C55   H54   S    
C39   H20   S    
C20   C27   S    
C9    C36   S    
C34   H5    S    
C34   H4    S    
O11   V2    S    
C47   H29   S    
C11   C19   D    
O9    V1    S    
O15   C7    A    
C34   C35   S    
C30   N6    T    
O16   C8    A    
O7    V2    S    
C43   H25   S    
C47   H30   S    
C31   N7    T    
C10   C33   S    
C44   H23   S    
C42   H27   S    
O5    V1    S    
C46   H32   S    
C38   H9    S    
O17   V1    S    
C56   H52   S    
C48   H41   S    
C49   H39   S    
O19   V3    S    
C26   N2    T    
C45   H35   S    
O20   V4    S    
C37   C38   S    
C50   H38   S    
C37   H12   S    
C40   C41   S    
C46   H33   S    
C21   C22   S    
C33   H7    S    
C35   H1    S    
C35   H2    S    
C1    C16   S    
C36   C37   S    
C53   H44   S    
C55   H53   S    
C3    C14   S    
C39   H21   S    
O10   V2    S    
C23   C24   S    
C52   H47   S    
C7    C10   S    
C43   C44   S    
O12   C4    A    
O8    C5    A    
O13   C5    A    
C39   C40   S    
C13   C48   S    
O4    C1    A    
O9    C1    A    
C54   H56   S    
O6    V2    S    
O18   V2    S    
C41   H16   S    
C19   C20   S    
C51   C52   S    
C47   H31   S    
C12   C20   D    
C13   C21   D    
C53   H43   S    
C44   H24   S    
C42   H28   S    
C15   C23   D    
C45   C46   S    
C38   H10   S    
C51   H48   S    
C16   C24   D    
C21   C30   S    
O1    C4    A    
C48   H42   S    
O2    C3    A    
O13   V3    S    
O14   V4    S    
C55   C56   S    
O15   V4    S    
C37   H11   S    
C27   N3    T    
C19   C28   S    
C11   C42   S    
C12   C39   S    
O7    C6    A    
C56   H50   S    
C8    C9    S    
C35   H3    S    
C9    C17   D    
O14   C6    A    
C14   C45   S    
O20   V2    S    
C53   H45   S    
C22   C29   S    
C40   H19   S    
C50   H36   S    
C4    C13   S    
C36   H13   S    
C29   N5    T    
O5    C8    A    
C52   H46   S    
O10   C2    A    
O6    C7    A    
C54   H55   S    
O3    V4    S    
C14   C22   D    
O4    V3    S    
C18   C25   S    
C32   N8    T    
C33   C34   S    
C41   H17   S    
C17   C26   S    
