data_mof_unit_65816.cif
_audit_creation_date              2012-10-26T18:37:03-0400
_audit_creation_method            fapswitch 2.2
_symmetry_space_group_name_H-M    P1
_symmetry_Int_Tables_number       1
_space_group_crystal_system       triclinic
_cell_length_a                    12.749219
_cell_length_b                    13.901339
_cell_length_c                    19.372461
_cell_angle_alpha                 90.15892
_cell_angle_beta                  93.079255
_cell_angle_gamma                 98.029569
_cell_volume                      3394.6521105

loop_
_atom_site_label
_atom_site_type_symbol
_atom_type_description
_atom_site_fract_x
_atom_site_fract_y
_atom_site_fract_z
_atom_type_partial_charge
C1    C     C_R   0.483507 0.315799 0.499268 0.547258
C2    C     C_2   0.971139 0.521954 0.522733 0.191687
C3    C     C_1   0.854320 0.517667 0.515256 0.278522
C4    C     C_1   0.145679 0.482333 0.484744 0.278521
C5    C     C_R   0.500371 0.499927 0.367182 0.538729
C6    C     C_R   0.499629 0.500073 0.632817 0.538728
C7    C     C_R   0.405090 0.494785 0.251302 -0.118509
C8    C     C_R   0.594910 0.505215 0.748698 -0.118508
C9    C     C_R   0.405025 0.494757 0.179431 -0.108342
C10   C     C_R   0.594975 0.505243 0.820569 -0.108340
C11   C     C_R   0.500753 0.499740 0.146121 0.031080
C12   C     C_R   0.516493 0.684201 0.500732 0.547257
C13   C     C_R   0.499246 0.500260 0.853878 0.031078
C14   C     C_R   0.596611 0.504668 0.186194 -0.105536
C15   C     C_R   0.403389 0.495332 0.813806 -0.105536
C16   C     C_R   0.596656 0.504702 0.258162 -0.113556
C17   C     C_R   0.403344 0.495298 0.741838 -0.113556
C18   C     C_R   0.500865 0.499816 0.291304 0.008789
C19   C     C_R   0.499135 0.500184 0.708696 0.008787
C20   C     C_R   0.499586 0.500152 0.929968 0.349117
C21   C     C_R   0.500413 0.499848 0.070031 0.349117
C22   C     C_1   0.525998 0.787573 0.501151 0.017335
C23   C     C_1   0.474002 0.212427 0.498849 0.017336
C24   C     C_2   0.543581 0.978494 0.501904 -0.106263
C25   C     C_2   0.456419 0.021506 0.498095 -0.106263
C26   C     C_1   0.465478 0.125347 0.498480 -0.021028
C27   C     C_1   0.534522 0.874653 0.501520 -0.021029
C28   C     C_2   0.028861 0.478046 0.477266 0.191684
Cu1   Cu    Cu3+1 0.395330 0.493960 0.495610 1.075004
Cu2   Cu    Cu3+1 0.604670 0.506040 0.504390 1.075003
H1    H     H_    0.329972 0.490903 0.275467 0.160629
H2    H     H_    0.622040 0.020955 0.505319 0.157528
H3    H     H_    0.986959 0.666172 0.681582 0.377814
H4    H     H_    0.013050 0.333897 0.318385 0.377810
H5    H     H_    0.670028 0.509097 0.724533 0.160635
H6    H     H_    0.329815 0.490858 0.150081 0.152045
H7    H     H_    0.670185 0.509142 0.849919 0.152048
H8    H     H_    0.671732 0.508536 0.162072 0.155773
H9    H     H_    0.328268 0.491464 0.837928 0.155775
H10   H     H_    0.671676 0.508556 0.287767 0.176128
H11   H     H_    0.328324 0.491444 0.712233 0.176128
H12   H     H_    0.377960 0.979045 0.494680 0.157528
N1    N     N_R   0.592517 0.504701 0.037394 -0.217158
N2    N     N_R   0.407482 0.495299 0.962606 -0.217158
N3    N     N_R   0.592097 0.504845 0.968738 -0.217926
N4    N     N_R   0.407903 0.495155 0.031262 -0.217926
N5    N     N_1   0.238030 0.484880 0.489000 -0.165338
N6    N     N_1   0.761970 0.515120 0.511000 -0.165338
O1    O     O_R   0.399110 0.356330 0.495750 -0.488355
O2    O     O_2   0.113119 0.669790 0.570900 -0.274245
O3    O     O_3   0.945191 0.631529 0.642165 -0.516607
O4    O     O_2   0.886879 0.330213 0.429095 -0.274204
O5    O     O_2   0.906526 0.479290 0.360907 -0.293455
O6    O     O_3   0.054808 0.368471 0.357833 -0.516602
O7    O     O_R   0.600890 0.643670 0.504250 -0.488357
O8    O     O_R   0.575900 0.366540 0.503170 -0.481438
O9    O     O_R   0.424100 0.633460 0.496830 -0.481437
O10   O     O_R   0.411580 0.494880 0.396430 -0.499345
O11   O     O_R   0.588420 0.505120 0.603570 -0.499344
O12   O     O_R   0.588360 0.505090 0.403850 -0.489732
O13   O     O_R   0.411640 0.494910 0.596150 -0.489732
O14   O     O_2   0.093478 0.520717 0.639092 -0.293414
S1    S     S_3+6 0.035190 0.587267 0.595195 -0.000649
S2    S     S_3+6 0.964811 0.412735 0.404803 -0.000647

loop_
_geom_bond_atom_site_label_1
_geom_bond_atom_site_label_2
_ccdc_geom_bond_type
C25   H12   S    
C9    H6    S    
C24   H2    S    
C1    C23   S    
O14   S1    D    
C6    C19   S    
C14   H8    S    
C9    C11   A    
Cu2   O7    S    
C20   N3    A    
C13   C20   S    
C24   C27   S    
C7    C18   A    
Cu2   O11   S    
C2    C3    S    
C10   C13   A    
Cu1   O13   S    
Cu1   O1    S    
C24   C25   D    
O2    S1    D    
N1    N3    A    
C15   H9    S    
Cu1   Cu2   S    
O6    S2    S    
C5    O10   A    
C16   H10   S    
C10   H7    S    
C12   O9    A    
C28   S2    S    
C6    O13   A    
Cu2   N6    S    
C20   N2    A    
C1    O8    A    
Cu1   N5    S    
H4    O6    S    
C14   C16   A    
C22   C27   T    
C13   C15   A    
O5    S2    D    
C17   H11   S    
C12   O7    A    
C7    H1    S    
Cu1   O9    S    
C11   C21   S    
Cu2   O8    S    
C8    C19   A    
C12   C22   S    
C3    N6    T    
O3    S1    S    
Cu1   O10   S    
C16   C18   A    
C21   N4    A    
O4    S2    D    
C23   C26   T    
C11   C14   A    
C15   C17   A    
C7    C9    A    
C2    S1    S    
C17   C19   A    
C2    C28   D    
C5    C18   S    
C5    O12   A    
C4    C28   S    
C25   C26   S    
C21   N1    A    
C1    O1    A    
C6    O11   A    
C4    N5    T    
C8    C10   A    
H3    O3    S    
N2    N4    A    
C8    H5    S    
Cu2   O12   S    
