data_mof_unit_30111.cif
_audit_creation_date              2012-12-10T16:43:22-0500
_audit_creation_method            fapswitch 2.2
_symmetry_space_group_name_H-M    P1
_symmetry_Int_Tables_number       1
_space_group_crystal_system       triclinic
_cell_length_a                    10.760966
_cell_length_b                    8.715099
_cell_length_c                    7.44623
_cell_angle_alpha                 103.004002
_cell_angle_beta                  94.010069
_cell_angle_gamma                 92.914485
_cell_volume                      677.159617095

loop_
_atom_site_label
_atom_site_type_symbol
_atom_type_description
_atom_site_fract_x
_atom_site_fract_y
_atom_site_fract_z
_atom_type_partial_charge
C1    C     C_R   0.489165 0.199777 0.453235 0.758807
C2    C     C_R   0.077824 0.643011 0.627527 0.052039
C3    C     C_R   0.129647 0.515956 0.509079 -0.059024
C4    C     C_R   0.053706 0.401006 0.382357 -0.190384
C5    C     C_R   0.925881 0.404753 0.377000 -0.191860
C6    C     C_R   0.871679 0.525917 0.494785 -0.104344
C7    C     C_2   0.470953 0.031098 0.426407 0.215146
C8    C     C_2   0.502897 0.967597 0.569142 -0.382963
C9    C     C_R   0.262832 0.504711 0.503378 0.764235
C10   C     C_R   0.499819 0.799916 0.546349 0.920865
C11   C     C_R   0.737595 0.508011 0.498504 0.816514
C12   C     C_R   0.153546 0.763020 0.753710 -0.168750
C13   C     C_R   0.100750 0.887104 0.867995 -0.227905
C14   C     C_R   0.972905 0.900855 0.850522 -0.124337
C15   C     C_R   0.896136 0.790601 0.718910 0.401061
C16   C     C_R   0.946482 0.652865 0.614291 -0.013374
Cu1   Cu    Cu3+1 0.513920 0.517380 0.684380 0.987053
Cu2   Cu    Cu3+1 0.486080 0.482620 0.315620 0.979237
H1    H     H_    0.093769 0.304974 0.290253 0.141309
H2    H     H_    0.597861 0.622167 0.051358 0.242235
H3    H     H_    0.254053 0.764239 0.765827 0.173716
H4    H     H_    0.933889 0.003201 0.932535 0.154034
H5    H     H_    0.868669 0.309562 0.284058 0.152768
H6    H     H_    0.536975 0.039795 0.704263 0.156339
H7    H     H_    0.402099 0.377893 0.948646 0.220697
N1    N     N_2   0.465100 0.456430 0.038520 -0.211649
N2    N     N_2   0.534900 0.543570 0.961480 -0.194028
O1    O     O_R   0.509050 0.286130 0.619770 -0.602467
O2    O     O_R   0.485540 0.256780 0.308360 -0.592618
O3    O     O_R   0.331410 0.514680 0.655740 -0.602013
O4    O     O_R   0.307900 0.485330 0.344330 -0.574020
O5    O     O_R   0.514460 0.743220 0.691640 -0.565979
O6    O     O_R   0.490950 0.713870 0.380230 -0.522851
O7    O     O_R   0.692100 0.514670 0.655670 -0.542210
O8    O     O_R   0.668590 0.485320 0.344260 -0.598920
H8    H     H_    0.159943 0.976654 0.965640 0.153902
O9    O     O_3   0.776019 0.829399 0.685822 -0.735791
H9    H     H_    0.758346 0.806934 0.549662 0.292417
O10   O     O_3   0.419937 0.937933 0.258191 -0.702297
H10   H     H_    0.391313 0.005447 0.175035 0.325408

loop_
_geom_bond_atom_site_label_1
_geom_bond_atom_site_label_2
_ccdc_geom_bond_type
C1    O1    A    
O9    H9    S    
C3    C9    S    
H2    N2    S    
C2    C16   A    
Cu2   O8    S    
Cu2   N1    S    
C2    C12   A    
C14   H4    S    
C1    O2    A    
C2    C3    A    
C7    C8    D    
Cu2   O2    S    
C13   C14   A    
Cu1   O3    S    
Cu1   O1    S    
N1    N2    D    
C9    O3    A    
C11   O8    A    
C8    H6    S    
Cu1   Cu2   S    
C10   O6    A    
C5    C6    A    
Cu2   O6    S    
Cu1   O7    S    
C9    O4    A    
C6    C16   A    
C3    C4    A    
Cu1   N2    S    
C10   O5    A    
C6    C11   S    
C12   C13   A    
C13   H8    S    
C8    C10   S    
O10   H10   S    
Cu1   O5    S    
C7    O10   S    
C14   C15   A    
C15   O9    S    
Cu2   O4    S    
H7    N1    S    
C1    C7    S    
C4    H1    S    
C12   H3    S    
C11   O7    A    
C15   C16   A    
C4    C5    A    
C5    H5    S    
