data_mof_unit_49784.cif
_audit_creation_date              2012-12-10T18:33:45-0500
_audit_creation_method            fapswitch 2.2
_symmetry_space_group_name_H-M    P1
_symmetry_Int_Tables_number       1
_space_group_crystal_system       triclinic
_cell_length_a                    10.47991
_cell_length_b                    15.040855
_cell_length_c                    15.411368
_cell_angle_alpha                 81.410961
_cell_angle_beta                  90.89172
_cell_angle_gamma                 103.989089
_cell_volume                      2330.22746783

loop_
_atom_site_label
_atom_site_type_symbol
_atom_type_description
_atom_site_fract_x
_atom_site_fract_y
_atom_site_fract_z
_atom_type_partial_charge
C1    C     C_R   0.483662 0.441689 0.662319 0.866490
C2    C     C_R   0.594687 0.493432 0.044007 0.080614
C3    C     C_R   0.601135 0.401502 0.075473 -0.251059
C4    C     C_R   0.612191 0.615553 0.919677 -0.258908
C5    C     C_R   0.583987 0.335066 0.019756 -0.172751
C6    C     C_R   0.631380 0.682067 0.975275 -0.178402
C7    C     C_R   0.654333 0.826669 0.661667 -0.303831
C8    C     C_R   0.275851 0.154649 0.379830 -0.279618
C9    C     C_R   0.640746 0.744575 0.627812 -0.004958
C10   C     C_R   0.322845 0.245720 0.393800 0.002800
C11   C     C_R   0.519579 0.797651 0.507315 0.072380
C12   C     C_R   0.522555 0.558377 0.337740 0.867619
C13   C     C_R   0.486699 0.204077 0.489335 0.057193
C14   C     C_R   0.519053 0.879134 0.543602 -0.009474
C15   C     C_R   0.434807 0.108585 0.484036 -0.015404
C16   C     C_R   0.742311 0.500758 0.500284 0.854368
C17   C     C_R   0.257680 0.499239 0.499715 0.862769
C18   C     C_R   0.593339 0.894094 0.620115 0.151815
C19   C     C_R   0.331312 0.085745 0.424724 0.148325
C20   C     C_R   0.449003 0.946168 0.507598 0.090905
C21   C     C_R   0.481354 0.035220 0.533926 0.089367
C22   C     C_R   0.548846 0.044963 0.613249 -0.164833
C23   C     C_R   0.512171 0.471354 0.813364 -0.258004
C24   C     C_R   0.340252 0.925257 0.452612 -0.156404
C25   C     C_R   0.603302 0.975298 0.655759 -0.187118
C26   C     C_R   0.282044 0.993920 0.412283 -0.179009
C27   C     C_3   0.934590 0.431520 0.561114 -0.152776
C28   C     C_3   0.065344 0.568447 0.438895 -0.192559
C29   C     C_3   0.049175 0.512156 0.579588 -0.187083
C30   C     C_3   0.950750 0.487803 0.420415 -0.156795
C31   C     C_3   0.121843 0.498077 0.499495 0.002145
C32   C     C_3   0.878102 0.501885 0.500513 0.021452
C33   C     C_3   0.009914 0.417377 0.481006 -0.091759
C34   C     C_R   0.561301 0.530871 0.188843 -0.257434
C35   C     C_3   0.990016 0.582579 0.519001 -0.137504
C36   C     C_R   0.493297 0.407275 0.755477 -0.052894
C37   C     C_R   0.555684 0.594065 0.245068 -0.065624
C38   C     C_R   0.521922 0.288241 0.874286 0.003156
C39   C     C_R   0.624821 0.721213 0.125049 -0.010381
C40   C     C_R   0.498499 0.315881 0.785660 -0.298751
C41   C     C_R   0.590445 0.689005 0.213649 -0.282004
C42   C     C_2   0.612192 0.237880 0.531793 0.422190
C43   C     C_2   0.475040 0.785498 0.417829 0.381663
C44   C     C_2   0.513647 0.188078 0.901838 0.383443
C45   C     C_R   0.551525 0.449979 0.898933 0.067537
C46   C     C_2   0.664734 0.823223 0.098507 0.388738
C47   C     C_R   0.596138 0.559748 0.100460 0.067153
C48   C     C_R   0.551456 0.356327 0.931716 0.134014
C49   C     C_R   0.620145 0.655722 0.066532 0.148038
C50   C     C_R   0.585967 0.519963 0.953211 0.086498
H1    H     H_    0.876605 0.376095 0.610976 0.144522
H2    H     H_    0.482651 0.265726 0.740412 0.139764
H3    H     H_    0.093984 0.521764 0.644339 0.143795
H4    H     H_    0.905851 0.478189 0.355687 0.146029
H5    H     H_    0.616374 0.279191 0.584064 0.072211
H6    H     H_    0.402838 0.723817 0.406373 0.095234
H7    H     H_    0.276423 0.298811 0.362704 0.144105
H8    H     H_    0.681592 0.690022 0.662186 0.140587
H9    H     H_    0.708878 0.836253 0.721281 0.154229
H10   H     H_    0.194742 0.137863 0.335871 0.160053
H11   H     H_    0.554236 0.103968 0.646467 0.115746
H12   H     H_    0.123401 0.623941 0.389115 0.134840
H13   H     H_    0.293864 0.855059 0.443603 0.127114
H14   H     H_    0.537161 0.147294 0.854591 0.061861
H15   H     H_    0.626425 0.867851 0.135044 0.111619
H16   H     H_    0.624759 0.380380 0.142725 0.159751
H17   H     H_    0.621706 0.641163 0.850213 0.146277
H18   H     H_    0.654817 0.985558 0.716390 0.152295
H19   H     H_    0.199124 0.975163 0.370133 0.154301
H20   H     H_    0.021955 0.350062 0.465523 0.166775
H21   H     H_    0.977947 0.649884 0.534485 0.150088
H22   H     H_    0.595725 0.267323 0.047345 0.208998
H23   H     H_    0.646383 0.753414 0.945030 0.198991
H24   H     H_    0.531127 0.457898 0.213937 0.171228
H25   H     H_    0.495693 0.538881 0.790290 0.162249
H26   H     H_    0.592365 0.738284 0.258379 0.201032
N1    N     N_R   0.574200 0.731700 0.552740 -0.135020
N2    N     N_R   0.425800 0.268300 0.447260 -0.136682
O1    O     O_R   0.462600 0.383110 0.605620 -0.635529
O2    O     O_2   0.517485 0.845866 0.355954 -0.587307
O3    O     O_2   0.472719 0.148638 0.974671 -0.558706
O4    O     O_2   0.746273 0.858900 0.039985 -0.568464
O5    O     O_R   0.537400 0.616890 0.394380 -0.628488
O6    O     O_R   0.510210 0.531900 0.639510 -0.624363
O7    O     O_R   0.489790 0.468100 0.360490 -0.618166
O8    O     O_R   0.662240 0.425610 0.483080 -0.622169
O9    O     O_R   0.337760 0.574390 0.516920 -0.638856
O10   O     O_R   0.709860 0.574400 0.516970 -0.619276
O11   O     O_R   0.290140 0.425600 0.483030 -0.623623
O12   O     O_2   0.712315 0.219070 0.508853 -0.576052
Zn1   Zn    Zn3+2 0.468210 0.400660 0.477370 0.934048
Zn2   Zn    Zn3+2 0.531790 0.599340 0.522630 0.929621

loop_
_geom_bond_atom_site_label_1
_geom_bond_atom_site_label_2
_ccdc_geom_bond_type
C38   C40   A    
N1    Zn2   S    
C23   C45   A    
C27   C29   S    
C34   C37   A    
C14   C18   A    
C10   N2    A    
C47   C49   A    
C27   C33   S    
C1    O6    A    
C15   C19   A    
O5    Zn2   S    
C30   H4    S    
C12   O7    A    
C24   C26   A    
C5    H22   S    
O8    Zn1   S    
C11   C14   A    
C9    H8    S    
C12   C37   S    
C19   C26   A    
C20   C24   A    
C2    C50   A    
C46   O4    D    
O10   Zn2   S    
C28   C35   S    
C22   C25   A    
C31   C33   S    
C11   C43   S    
O11   Zn1   S    
C11   N1    A    
C38   C48   A    
C35   H21   S    
C21   C22   A    
C16   O8    A    
C18   C25   A    
C7    H9    S    
C13   C42   S    
C27   H1    S    
O7    Zn1   S    
C5    C48   A    
C8    C19   A    
C32   C35   S    
C14   C20   A    
C36   C40   A    
C10   H7    S    
C17   O11   A    
C46   H15   S    
C39   C41   A    
C44   O3    D    
C43   O2    D    
C40   H2    S    
C44   H14   S    
C12   O5    A    
C4    C50   A    
C42   O12   D    
C38   C44   S    
C42   H5    S    
C7    C18   A    
C9    N1    A    
N2    Zn1   S    
C33   H20   S    
C34   H24   S    
C39   C46   S    
C4    C6    A    
C39   C49   A    
C24   H13   S    
C13   C15   A    
C1    O1    A    
C3    H16   S    
C6    H23   S    
C45   C48   A    
C7    C9    A    
C13   N2    A    
C30   C33   S    
C27   C32   S    
C17   O9    A    
O1    Zn1   S    
C28   C31   S    
C23   H25   S    
C3    C5    A    
C4    H17   S    
C25   H18   S    
C2    C47   A    
C16   C32   S    
C29   C35   S    
C28   C30   S    
C2    C3    A    
C29   C31   S    
C8    H10   S    
C22   H11   S    
C30   C32   S    
C29   H3    S    
C45   C50   A    
C17   C31   S    
C6    C49   A    
C37   C41   A    
C43   H6    S    
C15   C21   A    
C20   C21   A    
C8    C10   A    
C23   C36   A    
C16   O10   A    
C26   H19   S    
C34   C47   A    
O6    Zn2   S    
O9    Zn2   S    
C1    C36   S    
C41   H26   S    
C28   H12   S    
