data_mof_unit_9105.cif
_audit_creation_date              2012-12-10T18:07:34-0500
_audit_creation_method            fapswitch 2.2
_symmetry_space_group_name_H-M    P1
_symmetry_Int_Tables_number       1
_space_group_crystal_system       triclinic
_cell_length_a                    18.350375
_cell_length_b                    18.35044
_cell_length_c                    30.292562
_cell_angle_alpha                 89.997473
_cell_angle_beta                  89.997691
_cell_angle_gamma                 90.137367
_cell_volume                      10200.6109108

loop_
_atom_site_label
_atom_site_type_symbol
_atom_type_description
_atom_site_fract_x
_atom_site_fract_y
_atom_site_fract_z
_atom_type_partial_charge
C1    C     C_R   0.139909 0.500070 0.000100 0.865841
C2    C     C_1   0.500191 0.217454 0.999770 -0.180241
C3    C     C_R   0.132078 0.485685 0.773602 0.349374
C4    C     C_R   0.514269 0.867911 0.226397 0.349384
C5    C     C_R   0.906592 0.594269 0.227859 0.343227
C6    C     C_R   0.485726 0.132087 0.226394 0.349412
C7    C     C_R   0.093399 0.405723 0.227860 0.343193
C8    C     C_3   0.865479 0.723895 0.278909 0.116704
C9    C     C_3   0.936814 0.763118 0.265895 -0.399091
C10   C     C_3   0.921563 0.828853 0.236564 -0.922709
C11   C     C_3   0.457046 0.742490 0.275523 0.113984
C12   C     C_3   0.381037 0.761308 0.256883 -0.402631
C13   C     C_1   0.782546 0.499809 0.000231 -0.180298
C14   C     C_3   0.344817 0.694090 0.236824 -0.921227
C15   C     C_3   0.134514 0.276100 0.278917 0.116724
C16   C     C_3   0.063177 0.236876 0.265914 -0.399111
C17   C     C_3   0.078425 0.171137 0.236589 -0.922720
C18   C     C_3   0.543047 0.257481 0.275485 0.113911
C19   C     C_3   0.619034 0.238605 0.256828 -0.402759
C20   C     C_3   0.655290 0.305793 0.236748 -0.921134
C21   C     C_3   0.742508 0.457053 0.724518 0.113898
C22   C     C_3   0.761356 0.381054 0.743165 -0.402670
C23   C     C_3   0.694166 0.344845 0.763274 -0.921169
C24   C     C_1   0.499811 0.782546 0.999764 -0.180280
C25   C     C_3   0.276093 0.134501 0.721086 0.116764
C26   C     C_3   0.236874 0.063166 0.734100 -0.399131
C27   C     C_3   0.171138 0.078414 0.763429 -0.922731
C28   C     C_3   0.257535 0.542810 0.724462 0.114096
C29   C     C_3   0.238782 0.618847 0.743082 -0.402496
C30   C     C_3   0.306013 0.654981 0.763184 -0.921211
C31   C     C_3   0.723911 0.865511 0.721082 0.116745
C32   C     C_3   0.763125 0.936852 0.734082 -0.399125
C33   C     C_3   0.828866 0.921616 0.763407 -0.922727
C34   C     C_3   0.413548 0.215919 0.786392 0.064863
C35   C     C_1   0.717458 0.000109 0.499772 -0.161556
C36   C     C_3   0.473081 0.226143 0.821380 -0.309493
C37   C     C_3   0.510757 0.299926 0.816570 -0.944837
C38   C     C_3   0.794472 0.612990 0.786353 0.064665
C39   C     C_3   0.831094 0.659945 0.821866 -0.293297
C40   C     C_3   0.814313 0.740502 0.815276 -0.980706
C41   C     C_3   0.586468 0.784084 0.786404 0.064836
C42   C     C_3   0.526879 0.773892 0.821363 -0.309607
C43   C     C_3   0.489226 0.700097 0.816568 -0.944773
C44   C     C_3   0.205543 0.387034 0.786377 0.064591
C45   C     C_3   0.168919 0.340096 0.821902 -0.293322
C46   C     C_1   0.000110 0.717458 0.500232 -0.161580
C47   C     C_3   0.185717 0.259537 0.815335 -0.980605
C48   C     C_3   0.612910 0.794424 0.213631 0.064643
C49   C     C_3   0.659863 0.831075 0.178122 -0.293373
C50   C     C_3   0.740423 0.814284 0.184701 -0.980575
C51   C     C_3   0.784055 0.586455 0.213623 0.064787
C52   C     C_3   0.773926 0.526715 0.178753 -0.309744
C53   C     C_3   0.700113 0.489095 0.183557 -0.944755
C54   C     C_3   0.387075 0.205572 0.213651 0.064687
C55   C     C_3   0.340109 0.168945 0.178145 -0.293323
C56   C     C_3   0.259552 0.185730 0.184742 -0.980659
C57   C     C_1   0.282542 0.999891 0.499769 -0.161577
C58   C     C_3   0.215931 0.413565 0.213607 0.064829
C59   C     C_3   0.226091 0.473211 0.178679 -0.309638
C60   C     C_3   0.299882 0.510872 0.183480 -0.944797
C61   C     C_3   0.991831 0.323335 0.359025 0.079560
C62   C     C_3   0.922086 0.336592 0.385646 -0.381048
C63   C     C_3   0.870116 0.271860 0.382485 -0.924850
C64   C     C_3   0.619328 0.131693 0.357378 0.103997
C65   C     C_3   0.662270 0.093781 0.394027 -0.368831
C66   C     C_3   0.744156 0.102168 0.386927 -0.922920
C67   C     C_3   0.008156 0.676668 0.359014 0.079579
C68   C     C_1   0.999891 0.282542 0.500228 -0.161558
C69   C     C_3   0.077896 0.663421 0.385639 -0.381042
C70   C     C_3   0.129860 0.728158 0.382474 -0.924834
C71   C     C_3   0.380695 0.868291 0.357392 0.103929
C72   C     C_3   0.337744 0.906181 0.394046 -0.368733
C73   C     C_3   0.255858 0.897803 0.386938 -0.922929
C74   C     C_3   0.131712 0.619280 0.642617 0.103941
C75   C     C_3   0.093707 0.662237 0.606013 -0.368973
C76   C     C_3   0.102105 0.744116 0.613116 -0.922875
C77   C     C_3   0.676657 0.008177 0.640972 0.079545
C78   C     C_3   0.663387 0.077916 0.614348 -0.381066
C79   C     C_R   0.999999 0.499999 0.085864 0.895996
C80   C     C_3   0.728114 0.129890 0.617501 -0.924851
C81   C     C_3   0.868237 0.380750 0.642608 0.103947
C82   C     C_3   0.906067 0.337807 0.605930 -0.368634
C83   C     C_3   0.897641 0.255926 0.613019 -0.923026
C84   C     C_3   0.323326 0.991827 0.640986 0.079571
C85   C     C_3   0.336573 0.922090 0.614360 -0.381044
C86   C     C_3   0.271838 0.870124 0.617528 -0.924833
C87   C     C_3   0.671577 0.961661 0.864825 0.141530
C88   C     C_3   0.728257 0.921185 0.892351 -0.301109
C89   C     C_3   0.799576 0.963858 0.895223 -0.968969
C90   C     C_R   0.499998 0.000000 0.085454 0.912640
C91   C     C_3   0.158083 0.566024 0.873548 0.094088
C92   C     C_3   0.240234 0.562349 0.881626 -0.285266
C93   C     C_3   0.271579 0.636802 0.893632 -0.949314
C94   C     C_3   0.328430 0.038351 0.864833 0.141523
C95   C     C_3   0.271757 0.078823 0.892367 -0.301126
C96   C     C_3   0.200436 0.036152 0.895244 -0.968955
C97   C     C_3   0.841856 0.434147 0.873634 0.094040
C98   C     C_3   0.759680 0.437921 0.881640 -0.285245
C99   C     C_3   0.728284 0.363554 0.893846 -0.948974
C100  C     C_3   0.565950 0.158134 0.126368 0.094087
C101  C     C_R   0.000003 0.500002 0.914547 0.912646
C102  C     C_3   0.562230 0.240340 0.118405 -0.285178
C103  C     C_3   0.636632 0.271684 0.106180 -0.948835
C104  C     C_3   0.038374 0.328430 0.135173 0.141519
C105  C     C_3   0.078857 0.271763 0.107641 -0.301093
C106  C     C_3   0.036197 0.200437 0.104766 -0.968967
C107  C     C_3   0.433893 0.841925 0.126445 0.094121
C108  C     C_3   0.437523 0.759738 0.118416 -0.285168
C109  C     C_3   0.363027 0.728443 0.106380 -0.949041
C110  C     C_3   0.961631 0.671563 0.135166 0.141531
C111  C     C_3   0.921151 0.728237 0.107635 -0.301076
C112  C     C_R   0.500070 0.139909 0.999902 0.865744
C113  C     C_R   0.500001 0.000001 0.914136 0.895992
C114  C     C_3   0.963822 0.799558 0.104753 -0.968975
C115  C     C_R   0.499997 0.999998 0.585658 0.908155
C116  C     C_R   0.999998 0.499999 0.586057 0.833758
C117  C     C_R   0.500002 0.000001 0.413943 0.833774
C118  C     C_R   0.000001 0.500001 0.414342 0.908159
C119  C     C_1   0.282787 0.500176 0.000176 -0.186649
C120  C     C_1   0.500179 0.282787 0.999829 -0.186599
C121  C     C_1   0.717213 0.499820 0.000171 -0.186585
C122  C     C_1   0.499824 0.717213 0.999823 -0.186642
C123  C     C_1   0.782779 0.000109 0.499977 -0.178771
C124  C     C_R   0.860091 0.499929 0.000098 0.865745
C125  C     C_1   0.000111 0.782779 0.500028 -0.178748
C126  C     C_1   0.217221 0.999891 0.499974 -0.178758
C127  C     C_1   0.999891 0.217221 0.500023 -0.178770
C128  C     C_R   0.500104 0.360343 0.999974 0.845049
C129  C     C_R   0.639657 0.499895 0.000026 0.845074
C130  C     C_R   0.499898 0.639657 0.999972 0.845064
C131  C     C_R   0.360343 0.500102 0.000027 0.845087
C132  C     C_R   0.000080 0.860340 0.499999 0.839462
C133  C     C_R   0.139660 0.999921 0.500001 0.839453
C134  C     C_R   0.999921 0.139660 0.499997 0.839442
C135  C     C_R   0.499930 0.860091 0.999900 0.865842
C136  C     C_R   0.860340 0.000079 0.500003 0.839444
C137  C     C_R   0.027961 0.439970 0.343207 0.411565
C138  C     C_R   0.517400 0.064177 0.341463 0.420920
C139  C     C_R   0.972038 0.560029 0.343205 0.411550
C140  C     C_R   0.482615 0.935823 0.341467 0.420935
C141  C     C_R   0.064177 0.517365 0.658534 0.421008
C142  C     C_R   0.560026 0.972038 0.656793 0.411567
C143  C     C_R   0.935814 0.482630 0.658537 0.420880
C144  C     C_R   0.439964 0.027951 0.656794 0.411551
C145  C     C_R   0.553037 0.959977 0.842367 0.344753
C146  C     C_R   0.639901 0.000030 0.499547 0.817244
C147  C     C_R   0.066405 0.496918 0.844048 0.345523
C148  C     C_R   0.446969 0.040031 0.842367 0.344740
C149  C     C_R   0.933596 0.503113 0.844053 0.345508
C150  C     C_R   0.496917 0.066418 0.155947 0.345549
C151  C     C_R   0.040032 0.446969 0.157633 0.344762
C152  C     C_R   0.503057 0.933585 0.155950 0.345578
C153  C     C_R   0.959961 0.553024 0.157632 0.344803
C154  C     C_R   0.000002 0.500001 0.366072 -0.299525
C155  C     C_R   0.500004 0.000001 0.364940 -0.310420
C156  C     C_R   0.999996 0.499996 0.635060 -0.310439
C157  C     C_R   0.000030 0.639901 0.500455 0.817239
C158  C     C_R   0.499995 0.999995 0.633928 -0.299515
C159  C     C_R   0.500003 0.000003 0.865509 -0.291386
C160  C     C_R   0.000001 0.500006 0.866684 -0.274724
C161  C     C_R   0.499995 0.000002 0.133316 -0.274826
C162  C     C_R   0.999997 0.499997 0.134491 -0.291384
C163  C     C_R   0.962483 0.555636 0.296936 -0.108716
C164  C     C_R   0.493268 0.933296 0.295217 -0.115637
C165  C     C_R   0.037512 0.444360 0.296938 -0.108731
C166  C     C_R   0.506749 0.066703 0.295213 -0.115681
C167  C     C_R   0.933295 0.493277 0.704788 -0.115663
C168  C     C_R   0.360099 0.999970 0.499545 0.817246
C169  C     C_R   0.444356 0.037505 0.703063 -0.108745
C170  C     C_R   0.066702 0.506704 0.704783 -0.115613
C171  C     C_R   0.555638 0.962488 0.703062 -0.108728
C172  C     C_R   0.450275 0.044456 0.795840 -0.109080
C173  C     C_R   0.933327 0.505763 0.797507 -0.098289
C174  C     C_R   0.549729 0.955549 0.795841 -0.109092
C175  C     C_R   0.066675 0.494248 0.797503 -0.098319
C176  C     C_R   0.505728 0.933319 0.202496 -0.098382
C177  C     C_R   0.955536 0.549718 0.204159 -0.109117
C178  C     C_R   0.494263 0.066682 0.202494 -0.098319
C179  C     C_R   0.999970 0.360099 0.500454 0.817269
C180  C     C_R   0.044457 0.450275 0.204160 -0.109099
C181  C     C_R   0.999998 0.499998 0.273703 -0.156824
C182  C     C_R   0.500006 1.000000 0.272038 -0.157902
C183  C     C_R   0.999999 0.499991 0.727962 -0.157930
C184  C     C_R   0.499998 0.999997 0.726297 -0.156836
C185  C     C_R   0.500000 0.000001 0.772687 -0.137665
C186  C     C_R   0.000001 0.499996 0.774371 -0.145668
C187  C     C_R   0.500002 0.000000 0.225629 -0.145631
C188  C     C_R   0.999997 0.499997 0.227313 -0.137705
C189  C     C_R   0.916297 0.604599 0.273929 0.352963
C190  C     C_1   0.217454 0.500189 0.000236 -0.180349
C191  C     C_R   0.497315 0.866145 0.272023 0.359435
C192  C     C_R   0.083696 0.395395 0.273931 0.352981
C193  C     C_R   0.502706 0.133853 0.272014 0.359489
C194  C     C_R   0.866151 0.497347 0.727987 0.359498
C195  C     C_R   0.395389 0.083687 0.726069 0.353001
C196  C     C_R   0.133851 0.502625 0.727974 0.359368
C197  C     C_R   0.604610 0.916313 0.726069 0.352992
C198  C     C_R   0.405715 0.093391 0.772139 0.343163
C199  C     C_R   0.867928 0.514324 0.773608 0.349408
C200  C     C_R   0.594288 0.906613 0.772141 0.343178
Cu1   Cu    Cu3+1 0.000000 0.572490 0.000000 0.943917
Cu2   Cu    Cu3+1 0.500000 0.500000 0.955520 0.938500
Cu3   Cu    Cu3+1 1.000000 0.000000 0.544480 0.944510
Cu4   Cu    Cu3+1 1.000000 1.000000 0.455520 0.944504
Cu5   Cu    Cu3+1 0.427510 0.000000 0.000000 0.943897
Cu6   Cu    Cu3+1 0.000000 0.427510 0.000000 0.943879
Cu7   Cu    Cu3+1 0.572490 0.000000 0.000000 0.943874
Cu8   Cu    Cu3+1 0.500000 0.072490 0.500000 0.993003
Cu9   Cu    Cu3+1 0.927510 0.500000 0.500000 0.992961
Cu10  Cu    Cu3+1 0.500000 0.927510 0.500000 0.993001
Cu11  Cu    Cu3+1 0.072490 0.500000 0.500000 0.993027
Cu12  Cu    Cu3+1 0.500000 0.500000 0.044480 0.938550
H1    H     H_    0.838376 0.758700 0.303984 0.150614
H2    H     H_    0.345442 0.782049 0.283536 0.199411
H3    H     H_    0.369883 0.187192 0.247229 0.135378
H4    H     H_    0.357154 0.188584 0.144997 0.255613
H5    H     H_    0.347720 0.108955 0.179507 0.214814
H6    H     H_    0.241529 0.166591 0.217765 0.257019
H7    H     H_    0.226901 0.157252 0.159121 0.266220
H8    H     H_    0.249710 0.245207 0.181821 0.271657
H9    H     H_    0.262174 0.374839 0.211064 0.145979
H10   H     H_    0.218897 0.437461 0.247454 0.139395
H11   H     H_    0.222207 0.448781 0.145182 0.253684
H12   H     H_    0.182462 0.514674 0.182177 0.206327
H13   H     H_    0.384724 0.803564 0.230859 0.210999
H14   H     H_    0.305126 0.535315 0.216860 0.258618
H15   H     H_    0.304891 0.554859 0.158470 0.264502
H16   H     H_    0.344699 0.471190 0.178306 0.257399
H17   H     H_    0.015483 0.270313 0.369303 0.178039
H18   H     H_    0.977229 0.318532 0.323498 0.124169
H19   H     H_    0.936239 0.345489 0.420632 0.241570
H20   H     H_    0.893804 0.385857 0.373062 0.214680
H21   H     H_    0.854647 0.261840 0.347548 0.251618
H22   H     H_    0.820008 0.283638 0.401728 0.261823
H23   H     H_    0.896025 0.222141 0.396263 0.266947
H24   H     H_    0.378747 0.671870 0.209632 0.265128
H25   H     H_    0.632589 0.190744 0.358551 0.166194
H26   H     H_    0.637896 0.111206 0.324557 0.108439
H27   H     H_    0.647503 0.118478 0.426228 0.250571
H28   H     H_    0.648639 0.034804 0.394738 0.201727
H29   H     H_    0.760637 0.076545 0.355252 0.255334
H30   H     H_    0.774042 0.075209 0.414218 0.275519
H31   H     H_    0.759277 0.160709 0.386423 0.259050
H32   H     H_    0.984496 0.729688 0.369286 0.178038
H33   H     H_    0.022764 0.681467 0.323487 0.124160
H34   H     H_    0.063736 0.654527 0.420625 0.241556
H35   H     H_    0.290657 0.709006 0.223248 0.256088
H36   H     H_    0.106187 0.614157 0.373061 0.214675
H37   H     H_    0.145337 0.738175 0.347536 0.251605
H38   H     H_    0.179965 0.716388 0.401720 0.261828
H39   H     H_    0.103943 0.777876 0.396245 0.266954
H40   H     H_    0.367448 0.809237 0.358565 0.166166
H41   H     H_    0.362122 0.888780 0.324571 0.108445
H42   H     H_    0.352499 0.881458 0.426242 0.250547
H43   H     H_    0.351378 0.965157 0.394771 0.201731
H44   H     H_    0.239381 0.923514 0.355288 0.255350
H45   H     H_    0.225964 0.924682 0.414255 0.275505
H46   H     H_    0.337068 0.651436 0.262427 0.252620
H47   H     H_    0.240743 0.839263 0.386377 0.259026
H48   H     H_    0.190757 0.632542 0.641384 0.166151
H49   H     H_    0.111314 0.637829 0.675462 0.108495
H50   H     H_    0.118325 0.647486 0.573788 0.250594
H51   H     H_    0.034730 0.648604 0.605356 0.201727
H52   H     H_    0.076558 0.760587 0.644815 0.255310
H53   H     H_    0.075070 0.774014 0.585856 0.275504
H54   H     H_    0.160641 0.759250 0.613564 0.259058
H55   H     H_    0.729681 0.984530 0.630692 0.178044
H56   H     H_    0.681461 0.022782 0.676497 0.124170
H57   H     H_    0.161620 0.241298 0.303993 0.150613
H58   H     H_    0.654484 0.063758 0.579364 0.241587
H59   H     H_    0.614123 0.106196 0.626936 0.214682
H60   H     H_    0.738141 0.145366 0.652436 0.251611
H61   H     H_    0.716325 0.179994 0.598255 0.261830
H62   H     H_    0.777833 0.103986 0.603720 0.266969
H63   H     H_    0.809176 0.367535 0.641458 0.166182
H64   H     H_    0.888750 0.362145 0.675417 0.108442
H65   H     H_    0.881327 0.352607 0.573747 0.250588
H66   H     H_    0.965051 0.351402 0.605187 0.201731
H67   H     H_    0.923383 0.239399 0.644650 0.255379
H68   H     H_    0.174304 0.277684 0.251602 0.181240
H69   H     H_    0.924459 0.226037 0.585678 0.275479
H70   H     H_    0.839092 0.240853 0.613610 0.259031
H71   H     H_    0.270304 0.015486 0.630714 0.178041
H72   H     H_    0.318529 0.977219 0.676512 0.124158
H73   H     H_    0.345462 0.936250 0.579373 0.241555
H74   H     H_    0.385839 0.893802 0.626937 0.214681
H75   H     H_    0.261825 0.854647 0.652466 0.251615
H76   H     H_    0.283608 0.820020 0.598281 0.261818
H77   H     H_    0.222118 0.896039 0.603758 0.266938
H78   H     H_    0.664094 0.017360 0.878753 0.130575
H79   H     H_    0.035249 0.217100 0.296102 0.201789
H80   H     H_    0.692556 0.966897 0.830524 0.139115
H81   H     H_    0.706748 0.912425 0.926256 0.230633
H82   H     H_    0.738910 0.867074 0.877193 0.229211
H83   H     H_    0.822021 0.973958 0.861742 0.260948
H84   H     H_    0.840007 0.932126 0.914505 0.262416
H85   H     H_    0.790543 0.016890 0.912011 0.258079
H86   H     H_    0.131346 0.591235 0.902684 0.151807
H87   H     H_    0.148578 0.601548 0.844200 0.117540
H88   H     H_    0.251656 0.523434 0.908764 0.230625
H89   H     H_    0.267933 0.542116 0.851442 0.244434
H90   H     H_    0.025565 0.273626 0.247950 0.197860
H91   H     H_    0.261359 0.676452 0.866634 0.256653
H92   H     H_    0.331321 0.632161 0.898703 0.267689
H93   H     H_    0.246458 0.657118 0.924628 0.261145
H94   H     H_    0.335914 0.982649 0.878760 0.130584
H95   H     H_    0.307444 0.033123 0.830535 0.139127
H96   H     H_    0.293272 0.087573 0.926270 0.230636
H97   H     H_    0.261104 0.132938 0.877212 0.229204
H98   H     H_    0.177985 0.026065 0.861765 0.260951
H99   H     H_    0.160010 0.067880 0.914533 0.262412
H100  H     H_    0.209469 0.983115 0.912029 0.258079
H101  H     H_    0.103877 0.189086 0.205174 0.274734
H102  H     H_    0.868501 0.409028 0.902830 0.151929
H103  H     H_    0.851406 0.398503 0.844344 0.117426
H104  H     H_    0.748210 0.477063 0.908652 0.230728
H105  H     H_    0.732071 0.457918 0.851367 0.244303
H106  H     H_    0.738572 0.323676 0.866984 0.256561
H107  H     H_    0.668522 0.368259 0.898832 0.267697
H108  H     H_    0.753279 0.343501 0.924944 0.261142
H109  H     H_    0.591036 0.131519 0.097150 0.151965
H110  H     H_    0.601607 0.148508 0.155645 0.117291
H111  H     H_    0.523067 0.251888 0.091415 0.230726
H112  H     H_    0.825685 0.722310 0.251597 0.181220
H113  H     H_    0.026484 0.142747 0.228816 0.254069
H114  H     H_    0.542293 0.267909 0.148707 0.244251
H115  H     H_    0.676533 0.261318 0.133019 0.256524
H116  H     H_    0.631978 0.331464 0.101233 0.267611
H117  H     H_    0.656624 0.246731 0.075054 0.261118
H118  H     H_    0.982670 0.335903 0.121249 0.130572
H119  H     H_    0.033149 0.307443 0.169472 0.139124
H120  H     H_    0.087608 0.293281 0.073737 0.230642
H121  H     H_    0.132973 0.261117 0.122795 0.229206
H122  H     H_    0.026108 0.177981 0.138246 0.260944
H123  H     H_    0.067933 0.160017 0.085478 0.262415
H124  H     H_    0.115266 0.132347 0.253675 0.254810
H125  H     H_    0.983159 0.209463 0.087982 0.258078
H126  H     H_    0.408722 0.868621 0.097281 0.151861
H127  H     H_    0.398346 0.851512 0.155776 0.117375
H128  H     H_    0.476474 0.748233 0.091308 0.230608
H129  H     H_    0.457681 0.732094 0.148640 0.244362
H130  H     H_    0.323345 0.738735 0.133350 0.256614
H131  H     H_    0.367625 0.668681 0.101350 0.267566
H132  H     H_    0.342783 0.753512 0.075348 0.261099
H133  H     H_    0.017333 0.664085 0.121238 0.130581
H134  H     H_    0.966861 0.692546 0.169465 0.139103
H135  H     H_    0.551409 0.299538 0.301378 0.155349
H136  H     H_    0.912392 0.706723 0.073733 0.230641
H137  H     H_    0.867040 0.738891 0.122795 0.229206
H138  H     H_    0.973928 0.822003 0.138232 0.260947
H139  H     H_    0.932085 0.839986 0.085472 0.262419
H140  H     H_    0.016852 0.790525 0.087958 0.258082
H141  H     H_    0.508582 0.284897 0.250546 0.171941
H142  H     H_    0.654629 0.217849 0.283476 0.199439
H143  H     H_    0.615305 0.196345 0.230810 0.210996
H144  H     H_    0.621355 0.328036 0.209566 0.265059
H145  H     H_    0.709425 0.290830 0.223153 0.256108
H146  H     H_    0.663095 0.348442 0.262344 0.252628
H147  H     H_    0.700443 0.448717 0.698627 0.155318
H148  H     H_    0.964745 0.782899 0.296079 0.201779
H149  H     H_    0.715111 0.491523 0.749462 0.171972
H150  H     H_    0.782055 0.345449 0.716506 0.199411
H151  H     H_    0.803652 0.384750 0.769164 0.210960
H152  H     H_    0.671997 0.378780 0.790478 0.265090
H153  H     H_    0.709102 0.290687 0.776847 0.256086
H154  H     H_    0.651468 0.337095 0.737701 0.252595
H155  H     H_    0.241289 0.161599 0.696008 0.150604
H156  H     H_    0.277672 0.174297 0.748396 0.181233
H157  H     H_    0.217095 0.035232 0.703916 0.201780
H158  H     H_    0.273627 0.025558 0.752065 0.197870
H159  H     H_    0.974425 0.726366 0.247932 0.197861
H160  H     H_    0.189090 0.103868 0.794841 0.274741
H161  H     H_    0.142748 0.026475 0.771208 0.254073
H162  H     H_    0.132347 0.115254 0.746343 0.254803
H163  H     H_    0.299599 0.551077 0.698559 0.155308
H164  H     H_    0.284909 0.508330 0.749409 0.171914
H165  H     H_    0.218145 0.654460 0.716408 0.199391
H166  H     H_    0.196468 0.615226 0.769076 0.210943
H167  H     H_    0.328115 0.621045 0.790409 0.265155
H168  H     H_    0.291151 0.709179 0.776727 0.256071
H169  H     H_    0.348739 0.662636 0.737616 0.252594
H170  H     H_    0.896107 0.810898 0.205153 0.274737
H171  H     H_    0.758715 0.838409 0.696005 0.150614
H172  H     H_    0.722336 0.825722 0.748398 0.181241
H173  H     H_    0.782898 0.964780 0.703893 0.201788
H174  H     H_    0.726371 0.974461 0.752046 0.197869
H175  H     H_    0.810921 0.896166 0.794824 0.274746
H176  H     H_    0.857250 0.973560 0.771178 0.254071
H177  H     H_    0.867660 0.884779 0.746322 0.254811
H178  H     H_    0.374798 0.262153 0.788867 0.145922
H179  H     H_    0.437553 0.218849 0.752570 0.139326
H180  H     H_    0.448540 0.222319 0.854852 0.253643
H181  H     H_    0.973502 0.857242 0.228783 0.254065
H182  H     H_    0.514555 0.182508 0.817962 0.206392
H183  H     H_    0.535326 0.305102 0.783218 0.258595
H184  H     H_    0.554649 0.304987 0.841635 0.264530
H185  H     H_    0.471052 0.344750 0.821654 0.257377
H186  H     H_    0.734799 0.622933 0.787515 0.146051
H187  H     H_    0.812868 0.630182 0.752779 0.135374
H188  H     H_    0.811447 0.642894 0.855011 0.255632
H189  H     H_    0.891082 0.652332 0.820508 0.214831
H190  H     H_    0.833450 0.758531 0.782254 0.257032
H191  H     H_    0.842792 0.773147 0.840899 0.266226
H192  H     H_    0.884723 0.867644 0.253649 0.254806
H193  H     H_    0.754836 0.750346 0.818198 0.271667
H194  H     H_    0.625210 0.737851 0.788917 0.145960
H195  H     H_    0.562519 0.781128 0.752570 0.139366
H196  H     H_    0.551361 0.777762 0.854846 0.253680
H197  H     H_    0.485402 0.817515 0.817898 0.206353
H198  H     H_    0.464727 0.694869 0.783202 0.258615
H199  H     H_    0.445282 0.695063 0.841604 0.264528
H200  H     H_    0.528926 0.655286 0.821707 0.257389
H201  H     H_    0.265216 0.377098 0.787544 0.146041
H202  H     H_    0.187157 0.369818 0.752807 0.135381
H203  H     H_    0.448727 0.700436 0.301427 0.155348
H204  H     H_    0.188552 0.357173 0.855042 0.255630
H205  H     H_    0.108929 0.347697 0.820538 0.214794
H206  H     H_    0.166588 0.241483 0.782319 0.257023
H207  H     H_    0.157241 0.226903 0.840967 0.266212
H208  H     H_    0.245196 0.249707 0.818259 0.271669
H209  H     H_    0.622843 0.734750 0.212447 0.146044
H210  H     H_    0.630115 0.812781 0.247208 0.135398
H211  H     H_    0.642805 0.811459 0.144974 0.255615
H212  H     H_    0.652254 0.891063 0.179497 0.214771
H213  H     H_    0.758459 0.833406 0.217723 0.257012
H214  H     H_    0.491517 0.715087 0.250582 0.171925
H215  H     H_    0.773065 0.842774 0.159079 0.266212
H216  H     H_    0.750264 0.754808 0.181772 0.271636
H217  H     H_    0.737819 0.625180 0.211024 0.146010
H218  H     H_    0.781055 0.562654 0.247494 0.139451
H219  H     H_    0.777869 0.551050 0.145231 0.253707
H220  H     H_    0.817532 0.485244 0.182316 0.206263
H221  H     H_    0.694804 0.464755 0.216963 0.258578
H222  H     H_    0.695128 0.445034 0.158596 0.264488
H223  H     H_    0.655321 0.528779 0.178312 0.257411
H224  H     H_    0.377142 0.265247 0.212481 0.146050
O1    O     O_R   0.105780 0.561220 0.000020 -0.603113
O2    O     O_R   0.938780 0.605780 0.500020 -0.561967
O3    O     O_R   0.394220 0.938780 0.500020 -0.614813
O4    O     O_R   0.061220 0.394220 0.500020 -0.561976
O5    O     O_R   0.605780 0.938780 0.499980 -0.561978
O6    O     O_R   0.938780 0.394220 0.499980 -0.614842
O7    O     O_R   0.394220 0.061220 0.499980 -0.561977
O8    O     O_R   0.061220 0.605780 0.499980 -0.614813
O9    O     O_R   0.999940 0.561230 0.064880 -0.581034
O10   O     O_R   0.438770 0.999940 0.064880 -0.599095
O11   O     O_R   0.000060 0.438770 0.064880 -0.581024
O12   O     O_R   0.438780 0.105780 0.000020 -0.577251
O13   O     O_R   0.561230 0.000060 0.064880 -0.599155
O14   O     O_R   0.999940 0.438770 0.935120 -0.599151
O15   O     O_R   0.438770 0.000060 0.935120 -0.581028
O16   O     O_R   0.000060 0.561230 0.935120 -0.599083
O17   O     O_R   0.561230 0.999940 0.935120 -0.581015
O18   O     O_R   0.499940 0.061230 0.564880 -0.578499
O19   O     O_R   0.938770 0.499940 0.564880 -0.546817
O20   O     O_R   0.500060 0.938770 0.564880 -0.578488
O21   O     O_R   0.061230 0.500060 0.564880 -0.546777
O22   O     O_R   0.499940 0.938770 0.435120 -0.546785
O23   O     O_R   0.894220 0.438780 0.000020 -0.603184
O24   O     O_R   0.938770 0.500060 0.435120 -0.578489
O25   O     O_R   0.500060 0.061230 0.435120 -0.546797
O26   O     O_R   0.061230 0.499940 0.435120 -0.578488
O27   O     O_R   0.499980 0.394200 0.037580 -0.588168
O28   O     O_R   0.605800 0.499980 0.037580 -0.583133
O29   O     O_R   0.500020 0.605800 0.037580 -0.588147
O30   O     O_R   0.394200 0.500020 0.037580 -0.583119
O31   O     O_R   0.499980 0.605800 0.962420 -0.583130
O32   O     O_R   0.605800 0.500020 0.962420 -0.588187
O33   O     O_R   0.500020 0.394200 0.962420 -0.583158
O34   O     O_R   0.561220 0.894220 0.000020 -0.577255
O35   O     O_R   0.394200 0.499980 0.962420 -0.588155
O36   O     O_R   0.999980 0.894200 0.537580 -0.587631
O37   O     O_R   0.105800 0.999980 0.537580 -0.584865
O38   O     O_R   0.000020 0.105800 0.537580 -0.587578
O39   O     O_R   0.894200 0.000020 0.537580 -0.584872
O40   O     O_R   0.999980 0.105800 0.462420 -0.584871
O41   O     O_R   0.105800 0.000020 0.462420 -0.587609
O42   O     O_R   0.000020 0.894200 0.462420 -0.584866
O43   O     O_R   0.894200 0.999980 0.462420 -0.587615
O44   O     O_3   0.875102 0.654131 0.298580 -0.579040
O45   O     O_R   0.105780 0.438780 0.999980 -0.577258
O46   O     O_3   0.494727 0.801280 0.296152 -0.582195
O47   O     O_3   0.124892 0.345865 0.298584 -0.579020
O48   O     O_3   0.505337 0.198723 0.296132 -0.582175
O49   O     O_3   0.801278 0.494745 0.703871 -0.582183
O50   O     O_3   0.345859 0.124881 0.701417 -0.579010
O51   O     O_3   0.198713 0.505171 0.703839 -0.582190
O52   O     O_3   0.654142 0.875121 0.701417 -0.579013
O53   O     O_3   0.373637 0.151003 0.794262 -0.599648
O54   O     O_3   0.805805 0.538030 0.795068 -0.601795
O55   O     O_3   0.626371 0.849005 0.794268 -0.599652
O56   O     O_R   0.438780 0.894220 0.999980 -0.603128
O57   O     O_3   0.194201 0.461999 0.795069 -0.601730
O58   O     O_3   0.537946 0.805780 0.204934 -0.601732
O59   O     O_3   0.848980 0.626341 0.205732 -0.599625
O60   O     O_3   0.462035 0.194220 0.204936 -0.601790
O61   O     O_3   0.151017 0.373655 0.205734 -0.599648
O62   O     O_3   0.045372 0.377772 0.366883 -0.558784
O63   O     O_3   0.543170 0.124511 0.364209 -0.537484
O64   O     O_3   0.954620 0.622225 0.366878 -0.558779
O65   O     O_3   0.456852 0.875486 0.364219 -0.537471
O66   O     O_3   0.124515 0.543126 0.635784 -0.537477
O67   O     O_R   0.894220 0.561220 0.999980 -0.577237
O68   O     O_3   0.622225 0.954630 0.633117 -0.558779
O69   O     O_3   0.875463 0.456906 0.635790 -0.537472
O70   O     O_3   0.377766 0.045364 0.633121 -0.558785
O71   O     O_3   0.605435 0.921915 0.865814 -0.568530
O72   O     O_3   0.130883 0.494436 0.867811 -0.587949
O73   O     O_3   0.394573 0.078096 0.865814 -0.568538
O74   O     O_3   0.869121 0.505696 0.867820 -0.587987
O75   O     O_3   0.494378 0.130906 0.132183 -0.587951
O76   O     O_3   0.078106 0.394580 0.134186 -0.568525
O77   O     O_3   0.505502 0.869094 0.132190 -0.587902
O78   O     O_R   0.561220 0.105780 0.999980 -0.603195
O79   O     O_3   0.921892 0.605417 0.134185 -0.568498
O80   O     O_R   0.605780 0.061220 0.500020 -0.614818

loop_
_geom_bond_atom_site_label_1
_geom_bond_atom_site_label_2
_ccdc_geom_bond_type
C106  H122  S    
C71   H40   S    
C19   C20   S    
C166  C193  A    
C12   H2    S    
C55   C56   S    
C168  O3    A    
Cu6   O45   S    
C56   H6    S    
Cu8   O25   S    
C89   H85   S    
C18   O48   S    
C98   H105  S    
C15   H68   S    
C191  O46   S    
C83   H67   S    
Cu4   O43   S    
C73   H45   S    
C147  C160  A    
C108  C109  S    
C179  O4    A    
C90   O10   A    
C27   H162  S    
C1    O45   A    
C61   O62   S    
C110  C111  S    
C93   H92   S    
C145  O71   S    
Cu5   O56   S    
C48   O58   S    
Cu1   Cu6   S    
C196  O51   S    
C164  C191  A    
C64   H26   S    
C40   H190  S    
C77   O68   S    
C1    C190  S    
C26   H157  S    
C59   C60   S    
C103  H115  S    
C21   C22   S    
C4    C191  A    
C150  O75   S    
C34   H179  S    
C142  C158  A    
C9    H148  S    
C134  O40   A    
C104  C105  S    
C45   C47   S    
C75   H51   S    
Cu11  O8    S    
C111  H136  S    
C51   C52   S    
C30   H167  S    
C11   H214  S    
C121  C129  S    
C165  C192  A    
C13   C124  S    
C4    O58   S    
C51   O59   S    
C139  C154  A    
C36   H182  S    
C144  C169  A    
C17   H101  S    
C151  O76   S    
C80   H60   S    
C75   C76   S    
C56   H7    S    
C53   H222  S    
C87   H80   S    
C78   H59   S    
C99   H107  S    
C70   H37   S    
C37   H185  S    
Cu4   O40   S    
C128  O27   A    
Cu8   O7    S    
C62   H20   S    
C74   O66   S    
C7    C192  A    
C135  O34   A    
C72   H43   S    
C56   H8    S    
C51   H217  S    
C150  C161  A    
C192  O47   S    
C72   C73   S    
C37   H184  S    
C29   H165  S    
C67   H32   S    
C73   H47   S    
C141  C156  A    
C10   H181  S    
C74   H48   S    
Cu2   O35   S    
C100  O75   S    
C42   H196  S    
C128  O33   A    
C47   H207  S    
C27   H160  S    
C33   H175  S    
C5    C189  A    
C148  O73   S    
C32   C33   S    
C175  C186  A    
C34   O53   S    
C194  O49   S    
C19   H142  S    
C60   H14   S    
C69   C70   S    
C23   H153  S    
C116  C156  S    
C59   H12   S    
C96   H99   S    
C140  O65   S    
C74   H49   S    
Cu3   O36   S    
C42   H197  S    
C88   C89   S    
C98   C99   S    
C94   H94   S    
C199  O54   S    
C107  H126  S    
C22   C23   S    
C41   H194  S    
C81   H63   S    
C149  O74   S    
C134  O38   A    
C133  O37   A    
C195  O50   S    
C58   O61   S    
C76   H54   S    
C112  O12   A    
C166  C182  A    
C127  C134  S    
C21   O49   S    
C31   O52   S    
C97   C98   S    
C151  C180  A    
C169  C195  A    
C57   C168  S    
C85   C86   S    
C139  O64   S    
C28   O51   S    
C177  C188  A    
C3    O57   S    
Cu1   O67   S    
C137  O62   S    
C36   C37   S    
C138  O63   S    
C8    H112  S    
C38   C39   S    
C145  C159  A    
C78   C80   S    
C66   H31   S    
C87   H78   S    
C184  C185  A    
C88   H81   S    
C144  O70   S    
C92   C93   S    
C5    O59   S    
Cu3   O38   S    
C114  H140  S    
C95   H97   S    
C101  C160  S    
Cu2   O32   S    
C28   H163  S    
C117  C155  S    
C119  C131  S    
C107  C108  S    
C103  H117  S    
C172  C198  A    
C111  C114  S    
C9    C10   S    
C152  C161  A    
C76   H52   S    
C99   H108  S    
C82   H66   S    
C23   H152  S    
C100  C102  S    
C58   H9    S    
C40   H193  S    
Cu5   Cu7   S    
Cu2   O33   S    
C84   H71   S    
C153  C177  A    
C85   H74   S    
C115  C158  S    
C33   H177  S    
C48   H210  S    
C183  C186  A    
C91   C92   S    
C64   O63   S    
C114  H139  S    
C2    C120  T    
C91   H86   S    
C25   C26   S    
C21   H149  S    
C53   H221  S    
C60   H16   S    
C169  C184  A    
C29   C30   S    
Cu8   O80   S    
C73   H44   S    
C13   C121  T    
C31   C32   S    
C157  O8    A    
C172  C185  A    
C32   H174  S    
C11   H203  S    
C113  C159  S    
Cu12  O27   S    
C143  C167  A    
C55   H4    S    
C18   H135  S    
C118  O26   A    
Cu11  O4    S    
C49   H211  S    
C16   H79   S    
C4    C176  A    
C97   H102  S    
C6    C193  A    
C20   H146  S    
C104  H119  S    
C52   C53   S    
C14   H35   S    
C106  H123  S    
C45   H205  S    
C54   C55   S    
C25   H156  S    
C112  O78   A    
C106  H125  S    
C152  O77   S    
Cu1   O9    S    
C72   H42   S    
C89   H84   S    
C50   H215  S    
C132  O36   A    
C66   H29   S    
C140  C164  A    
C68   C179  S    
C77   H56   S    
C138  C166  A    
C81   H64   S    
C109  H132  S    
C139  C163  A    
C71   C72   S    
C83   H70   S    
C114  H138  S    
C63   H22   S    
C170  C196  A    
C44   H201  S    
C38   H186  S    
C45   H204  S    
C31   H172  S    
Cu5   O10   S    
C64   C65   S    
C80   H61   S    
C7    C180  A    
C118  C154  S    
C34   C36   S    
C27   H161  S    
C61   C62   S    
C149  C160  A    
C147  O72   S    
C131  O35   A    
C39   C40   S    
C145  C174  A    
C49   C50   S    
C1    O1    A    
C100  H109  S    
C6    O60   S    
C96   H98   S    
C142  C171  A    
C109  H131  S    
C138  C155  A    
C87   C88   S    
C26   H158  S    
C105  H121  S    
C100  H110  S    
C92   H89   S    
C173  C199  A    
C41   C42   S    
C46   C125  T    
C108  H129  S    
C119  C190  T    
C131  O30   A    
C137  C165  A    
C143  C156  A    
C55   H5    S    
C77   C78   S    
C129  O32   A    
C86   H75   S    
C52   H219  S    
C2    C112  S    
C26   C27   S    
Cu9   O2    S    
C28   C29   S    
C30   H168  S    
Cu9   O24   S    
C142  O68   S    
C174  C185  A    
C110  H134  S    
C147  C175  A    
C163  C181  A    
C157  O2    A    
C43   H200  S    
C101  O14   A    
C18   C19   S    
C197  O52   S    
Cu12  O29   S    
C71   H41   S    
C180  C188  A    
C116  O21   A    
Cu10  O3    S    
C118  O24   A    
C193  O48   S    
C81   O69   S    
C16   C17   S    
C20   H144  S    
C61   H17   S    
C67   O64   S    
C65   H28   S    
Cu10  O20   S    
C115  O20   A    
C70   H38   S    
C104  O76   S    
Cu3   O39   S    
C107  O77   S    
C124  O67   A    
C54   O60   S    
C110  O79   S    
C86   H77   S    
C6    C178  A    
C7    O61   S    
C136  O43   A    
C11   O46   S    
C181  C188  A    
C54   H224  S    
C141  O66   S    
C50   H213  S    
C54   H3    S    
C21   H147  S    
C171  C184  A    
C84   C85   S    
C8    H1    S    
C14   H46   S    
C113  O17   A    
C58   C59   S    
Cu5   O12   S    
Cu6   O11   S    
C10   H192  S    
C97   O74   S    
C148  C159  A    
C197  C200  A    
C17   H113  S    
C62   C63   S    
Cu9   O6    S    
Cu7   O13   S    
C91   H87   S    
C151  C162  A    
C24   C122  T    
Cu5   O15   S    
C163  C189  A    
C39   H188  S    
C68   C127  T    
C64   H25   S    
C59   H11   S    
C96   H100  S    
C178  C187  A    
C3    C175  A    
C48   C49   S    
C94   H95   S    
C37   H183  S    
C42   C43   S    
C34   H178  S    
C79   C162  S    
C95   H96   S    
C44   C45   S    
C176  C187  A    
C110  H133  S    
Cu2   Cu12  S    
C104  H118  S    
C120  C128  S    
C43   H198  S    
C105  C106  S    
C174  C200  A    
C3    C196  A    
C101  O16   A    
Cu11  O21   S    
C153  C162  A    
C102  H111  S    
C168  O7    A    
C79   O11   A    
C130  O31   A    
C53   H223  S    
C35   C123  T    
C141  C170  A    
C137  C154  A    
Cu11  O26   S    
C88   H82   S    
C91   O72   S    
C78   H58   S    
C94   C95   S    
C17   H124  S    
C115  O18   A    
C164  C182  A    
Cu3   O37   S    
C140  C155  A    
C63   H23   S    
C69   H34   S    
C82   C83   S    
C28   H164  S    
C35   C146  S    
Cu7   O34   S    
C15   C16   S    
C15   O47   S    
C51   H218  S    
Cu3   Cu4   S    
C170  C183  A    
C113  O15   A    
C95   C96   S    
C29   H166  S    
C39   H189  S    
C14   H24   S    
C81   C82   S    
C58   H10   S    
C67   H33   S    
C84   H72   S    
C85   H73   S    
C92   H88   S    
C47   H208  S    
C33   H176  S    
C108  H128  S    
C71   O65   S    
Cu10  O5    S    
C117  O22   A    
C153  O79   S    
Cu6   O23   S    
Cu10  O22   S    
C23   H154  S    
C143  O69   S    
C40   H191  S    
C148  C172  A    
C167  C183  A    
C126  C133  S    
C8    C9    S    
C198  O53   S    
C41   H195  S    
Cu1   O1    S    
Cu12  O28   S    
C150  C178  A    
Cu4   O42   S    
C75   H50   S    
C76   H53   S    
C44   O57   S    
C102  C103  S    
C90   O13   A    
C61   H18   S    
C25   O50   S    
C173  C186  A    
C74   C75   S    
C25   H155  S    
C90   C161  S    
C79   O9    A    
C57   C126  T    
C135  O56   A    
C89   H83   S    
C130  O29   A    
C50   H216  S    
C66   H30   S    
C10   H170  S    
C46   C157  S    
C62   H19   S    
C77   H55   S    
C67   C69   S    
C9    H159  S    
Cu9   O19   S    
C99   H106  S    
C38   O54   S    
C83   H69   S    
Cu4   O41   S    
C63   H21   S    
C44   H202  S    
C38   H187  S    
C69   H36   S    
C146  O80   A    
C194  C199  A    
C200  O55   S    
C31   H171  S    
Cu2   O31   S    
C146  O5    A    
C80   H62   S    
C189  O44   S    
C179  O6    A    
C87   O71   S    
C5    C177  A    
C132  O42   A    
C24   C135  S    
C12   C14   S    
C117  O25   A    
Cu6   O14   S    
C167  C194  A    
C82   H65   S    
C144  C158  A    
C22   H151  S    
C109  H130  S    
Cu1   O16   S    
C129  O28   A    
C93   H93   S    
C105  H120  S    
C19   H143  S    
C47   H206  S    
C86   H76   S    
C93   H91   S    
C48   H209  S    
C133  O41   A    
C11   C12   S    
Cu7   O17   S    
C18   H141  S    
C52   H220  S    
C8    O44   S    
C123  C136  S    
C103  H116  S    
C60   H15   S    
C165  C181  A    
C30   H169  S    
Cu8   O18   S    
C171  C197  A    
C22   H150  S    
C125  C132  S    
C12   H13   S    
C43   H199  S    
C36   H180  S    
C32   H173  S    
Cu9   Cu11  S    
C149  C173  A    
C182  C187  A    
C102  H114  S    
Cu12  O30   S    
C107  H127  S    
C124  O23   A    
C84   O70   S    
C152  C176  A    
C195  C198  A    
C49   H212  S    
Cu8   Cu10  S    
C65   C66   S    
C111  H137  S    
C94   O73   S    
C16   H90   S    
C97   H103  S    
C116  O19   A    
C65   H27   S    
C98   H104  S    
C20   H145  S    
C41   O55   S    
C15   H57   S    
Cu7   O78   S    
C136  O39   A    
C70   H39   S    
C122  C130  S    
