data_mof_unit_17332.cif
_audit_creation_date              2012-12-10T18:57:08-0500
_audit_creation_method            fapswitch 2.2
_symmetry_space_group_name_H-M    P1
_symmetry_Int_Tables_number       1
_space_group_crystal_system       triclinic
_cell_length_a                    10.698894
_cell_length_b                    9.890734
_cell_length_c                    10.690526
_cell_angle_alpha                 90.553833
_cell_angle_beta                  93.193823
_cell_angle_gamma                 91.658328
_cell_volume                      1128.96826717

loop_
_atom_site_label
_atom_site_type_symbol
_atom_type_description
_atom_site_fract_x
_atom_site_fract_y
_atom_site_fract_z
_atom_type_partial_charge
C1    C     C_R   0.259345 0.498400 0.494266 0.951400
C2    C     C_R   0.738367 0.501801 0.485676 0.963724
C3    C     C_R   0.579221 0.076513 0.579784 -0.086592
C4    C     C_R   0.423407 0.069142 0.417936 -0.084177
C5    C     C_R   0.581169 0.933824 0.578746 0.181851
C6    C     C_R   0.421291 0.926328 0.418735 0.209381
C7    C     C_R   0.493088 0.499194 0.259901 0.884709
C8    C     C_R   0.495398 0.500229 0.740055 0.876940
C9    C     C_R   0.468069 0.620736 0.064725 0.172302
C10   C     C_R   0.471268 0.621355 0.937022 0.090796
C11   C     C_R   0.468470 0.498433 0.127722 -0.085728
C12   C     C_R   0.472537 0.499793 0.870512 -0.116957
C13   C     C_R   0.445367 0.376776 0.060945 -0.178770
C14   C     C_R   0.447048 0.377540 0.931354 -0.209723
C15   C     C_3   0.564174 0.736957 0.941390 -0.445088
C16   C     C_3   0.558107 0.738423 0.081649 -0.473722
C17   C     C_R   0.057382 0.398288 0.407481 0.122179
C18   C     C_R   0.926640 0.396985 0.404949 0.134188
C19   C     C_R   0.868953 0.507630 0.459019 -0.386808
C20   C     C_R   0.125008 0.497903 0.481591 -0.345622
C21   C     C_R   0.940221 0.625490 0.491139 0.406016
C22   C     C_R   0.063825 0.610884 0.528052 0.399079
H1    H     H_    0.435942 0.280956 0.108279 0.187781
H2    H     H_    0.437944 0.282089 0.880656 0.181554
H3    H     H_    0.657266 0.705393 0.912901 0.228999
H4    H     H_    0.514357 0.830399 0.117582 0.230904
H5    H     H_    0.525615 0.828991 0.896642 0.224580
H6    H     H_    0.647707 0.711839 0.131683 0.193081
H7    H     H_    0.643107 0.134664 0.642840 0.169652
H8    H     H_    0.364773 0.121010 0.350390 0.181740
N1    N     N_R   0.500000 0.857200 0.500000 -0.123709
N2    N     N_R   0.500000 0.142810 0.500000 -0.105656
O1    O     O_R   0.316770 0.614620 0.499990 -0.562209
O2    O     O_R   0.683230 0.614620 0.500010 -0.580059
O3    O     O_R   0.316800 0.385290 0.500000 -0.600982
O4    O     O_R   0.683200 0.385290 0.500000 -0.587846
O5    O     O_R   0.500000 0.614690 0.316780 -0.618778
O6    O     O_R   0.500000 0.614690 0.683220 -0.604013
O7    O     O_R   0.500020 0.385360 0.316780 -0.610655
O8    O     O_R   0.499980 0.385360 0.683220 -0.626158
Zn1   Zn    Zn3+2 0.500000 0.653120 0.500000 1.001672
Zn2   Zn    Zn3+2 0.500000 0.346880 0.500000 0.987332
I1    I     I_    0.147350 0.268614 0.281440 -0.350493
I2    I     I_    0.818229 0.241551 0.303121 -0.342224
O9    O     O_3   0.891096 0.753473 0.494764 -0.565739
C23   C     C_3   0.847848 0.792908 0.372694 0.152287
H9    H     H_    0.783149 0.877613 0.383303 0.185225
H10   H     H_    0.792974 0.711347 0.320084 0.115744
C24   C     C_3   0.955985 0.841968 0.295393 -0.352248
H11   H     H_    0.006822 0.928352 0.344631 0.285933
H12   H     H_    0.021240 0.758037 0.284706 0.235819
C25   C     C_3   0.909161 0.885465 0.164835 -0.883844
H13   H     H_    0.865356 0.797765 0.111705 0.246053
H14   H     H_    0.989144 0.925600 0.113095 0.296516
H15   H     H_    0.839037 0.965298 0.170932 0.290620
O10   O     O_3   0.126195 0.717086 0.593297 -0.572489
C26   C     C_3   0.162675 0.676664 0.716635 0.134716
H16   H     H_    0.245300 0.740853 0.749277 0.176010
H17   H     H_    0.193210 0.569969 0.722150 0.092602
C27   C     C_3   0.057711 0.698103 0.805836 -0.358846
H18   H     H_    0.030221 0.805580 0.803285 0.265313
H19   H     H_    0.974677 0.633365 0.775547 0.228833
C28   C     C_3   0.100023 0.661976 0.939875 -0.910943
H20   H     H_    0.130344 0.555550 0.944148 0.275631
H21   H     H_    0.021165 0.673085 0.001876 0.276797
H22   H     H_    0.178970 0.730182 0.974718 0.277619
I3    I     I_    0.721658 0.852332 0.697643 -0.357287
I4    I     I_    0.293630 0.829681 0.287116 -0.388210

loop_
_geom_bond_atom_site_label_1
_geom_bond_atom_site_label_2
_ccdc_geom_bond_type
C16   H6    S    
C22   O10   S    
C28   H21   S    
C18   I2    S    
C9    C11   A    
C9    C10   A    
O4    Zn2   S    
C25   H15   S    
C5    I3    S    
C8    C12   S    
C24   C25   S    
O1    Zn1   S    
C2    O2    A    
C24   H12   S    
O8    Zn2   S    
C17   C18   A    
C7    O5    A    
C28   H22   S    
C1    O1    A    
N1    Zn1   S    
O9    C23   S    
C25   H13   S    
C27   H19   S    
C7    C11   S    
C3    H7    S    
C11   C13   A    
C23   C24   S    
C1    O3    A    
C26   H16   S    
C4    N2    A    
O2    Zn1   S    
C10   C12   A    
C27   C28   S    
C1    C20   S    
C6    I4    S    
C19   C21   A    
C9    C16   S    
C12   C14   A    
C25   H14   S    
C6    N1    A    
O7    Zn2   S    
C21   O9    S    
C10   C15   S    
C8    O6    A    
O5    Zn1   S    
C3    N2    A    
C23   H10   S    
C15   H3    S    
C26   H17   S    
C2    O4    A    
C28   H20   S    
C17   C20   A    
O10   C26   S    
C13   H1    S    
O6    Zn1   S    
C4    C6    A    
C18   C19   A    
C14   H2    S    
C17   I1    S    
C24   H11   S    
O3    Zn2   S    
C7    O7    A    
C23   H9    S    
C26   C27   S    
N2    Zn2   S    
C8    O8    A    
C13   C14   A    
C5    N1    A    
C2    C19   S    
C21   C22   A    
C15   H5    S    
C4    H8    S    
C15   C16   S    
C20   C22   A    
C27   H18   S    
C3    C5    A    
C16   H4    S    
