data_mof_unit_48119.cif
_audit_creation_date              2012-12-10T17:30:36-0500
_audit_creation_method            fapswitch 2.2
_symmetry_space_group_name_H-M    P1
_symmetry_Int_Tables_number       1
_space_group_crystal_system       triclinic
_cell_length_a                    18.344388
_cell_length_b                    18.321941
_cell_length_c                    60.003315
_cell_angle_alpha                 89.658727
_cell_angle_beta                  90.170906
_cell_angle_gamma                 89.603576
_cell_volume                      20166.4691876

loop_
_atom_site_label
_atom_site_type_symbol
_atom_type_description
_atom_site_fract_x
_atom_site_fract_y
_atom_site_fract_z
_atom_type_partial_charge
C1    C     C_R   0.499883 0.000048 0.189807 0.790645
C2    C     C_R   0.500232 0.999310 0.810399 0.780202
C3    C     C_R   0.999467 0.500346 0.189604 0.784769
C4    C     C_R   0.000200 0.499805 0.810199 0.791345
C5    C     C_R   0.999930 0.500309 0.689790 0.789670
C6    C     C_R   0.000188 0.499535 0.310357 0.787086
C7    C     C_R   0.499652 0.000286 0.689650 0.795563
C8    C     C_R   0.499718 0.999763 0.310225 0.790946
C9    C     C_R   0.495370 0.998392 0.381863 0.287075
C10   C     C_R   0.493494 0.002156 0.617743 0.299764
C11   C     C_R   0.001309 0.492586 0.382295 0.296835
C12   C     C_R   0.999568 0.503668 0.618163 0.282874
C13   C     C_R   0.002520 0.500266 0.881705 0.289538
C14   C     C_R   0.993281 0.504218 0.117523 0.295255
C15   C     C_R   0.503005 0.987749 0.882490 0.290057
C16   C     C_R   0.500665 0.999171 0.118278 0.287975
C17   C     C_R   0.492868 0.000306 0.452501 -0.072365
C18   C     C_R   0.492093 0.002938 0.547279 -0.072844
C19   C     C_R   0.994608 0.495777 0.452678 -0.074205
C20   C     C_R   0.992817 0.500906 0.547544 -0.073823
C21   C     C_R   0.002516 0.508117 0.952210 -0.075273
C22   C     C_R   0.997949 0.504821 0.047004 -0.074507
C23   C     C_R   0.511160 0.989682 0.953010 -0.074831
C24   C     C_R   0.509502 0.995151 0.047777 -0.073313
C25   C     C_R   0.427389 0.012484 0.440396 -0.061359
C26   C     C_R   0.557899 0.015025 0.559164 -0.065332
C27   C     C_R   0.989502 0.428275 0.441231 -0.065221
C28   C     C_R   0.982156 0.567730 0.559005 -0.061797
C29   C     C_R   0.558801 0.987199 0.440867 -0.065120
C30   C     C_R   0.426389 0.990996 0.559133 -0.062404
C31   C     C_R   0.002940 0.561800 0.440440 -0.064777
C32   C     C_R   0.005801 0.435630 0.559791 -0.065611
C33   C     C_R   0.938323 0.526547 0.940093 -0.061163
C34   C     C_R   0.063992 0.507723 0.059359 -0.063693
C35   C     C_R   0.506187 0.922224 0.941587 -0.065985
C36   C     C_R   0.493712 0.061235 0.059029 -0.066064
C37   C     C_R   0.067121 0.489415 0.940622 -0.065710
C38   C     C_R   0.930053 0.501887 0.058338 -0.066975
C39   C     C_R   0.514868 0.055972 0.940730 -0.066489
C40   C     C_R   0.522976 0.930417 0.060238 -0.061211
C41   C     C_R   0.361253 0.021739 0.452301 0.008169
C42   C     C_R   0.623997 0.022121 0.547156 0.012153
C43   C     C_R   0.979333 0.363219 0.453801 0.009606
C44   C     C_R   0.969978 0.632463 0.546352 0.005690
C45   C     C_R   0.624876 0.980708 0.453077 0.013793
C46   C     C_R   0.360569 0.982167 0.546971 0.007933
C47   C     C_R   0.006537 0.628803 0.452167 0.008521
C48   C     C_R   0.012022 0.368619 0.548177 0.012910
C49   C     C_R   0.874317 0.545571 0.952010 0.006640
C50   C     C_R   0.131252 0.509330 0.047660 0.007513
C51   C     C_R   0.500858 0.856658 0.954251 0.011245
C52   C     C_R   0.485873 0.126681 0.046467 0.014471
C53   C     C_R   0.132452 0.477491 0.952879 0.013914
C54   C     C_R   0.864810 0.497046 0.045604 0.012556
C55   C     C_R   0.524760 0.122417 0.952353 0.014186
C56   C     C_R   0.536299 0.864281 0.048720 0.008028
C57   C     C_R   0.498536 0.999106 0.334848 -0.092715
C58   C     C_R   0.497806 0.001120 0.664842 -0.103482
C59   C     C_R   0.000762 0.497383 0.335198 -0.105861
C60   C     C_R   0.999837 0.501399 0.665177 -0.094112
C61   C     C_R   0.001252 0.499450 0.834772 -0.091400
C62   C     C_R   0.997263 0.501565 0.164709 -0.107512
C63   C     C_R   0.501168 0.995742 0.835309 -0.108627
C64   C     C_R   0.499614 0.000192 0.165226 -0.091575
C65   C     C_R   0.933908 0.510405 0.010974 0.039871
C66   C     C_R   0.067562 0.497108 0.988090 0.040237
C67   C     C_R   0.520137 0.926696 0.012758 0.041507
C68   C     C_R   0.512396 0.058417 0.988108 0.040697
C69   C     C_R   0.067026 0.502891 0.011803 0.040589
C70   C     C_R   0.935865 0.519486 0.987462 0.041686
C71   C     C_R   0.504969 0.059524 0.011701 0.040173
C72   C     C_R   0.513698 0.924942 0.989097 0.039657
C73   C     C_R   0.425476 0.998620 0.511609 0.041400
C74   C     C_R   0.558978 0.997720 0.488216 0.039908
C75   C     C_R   0.996519 0.432295 0.512383 0.040809
C76   C     C_R   0.993075 0.564438 0.487852 0.041065
C77   C     C_R   0.558743 0.006135 0.511786 0.040211
C78   C     C_R   0.425655 0.005706 0.487926 0.041274
C79   C     C_R   0.985788 0.565346 0.511474 0.040007
C80   C     C_R   0.990230 0.431061 0.488725 0.040380
C81   C     C_R   0.999681 0.505827 0.023241 0.073052
C82   C     C_R   0.002063 0.508363 0.975947 0.072263
C83   C     C_R   0.511610 0.993792 0.024051 0.072078
C84   C     C_R   0.512472 0.990976 0.976763 0.072435
C85   C     C_R   0.492080 0.002580 0.523530 0.072542
C86   C     C_R   0.492482 0.001281 0.476245 0.072309
C87   C     C_R   0.991534 0.499484 0.523777 0.072966
C88   C     C_R   0.992476 0.497122 0.476437 0.073198
C89   C     C_R   0.867726 0.502976 0.022428 -0.272337
C90   C     C_R   0.131575 0.480594 0.976137 -0.269575
C91   C     C_R   0.534976 0.863329 0.025468 -0.273566
C92   C     C_R   0.521975 0.122797 0.975579 -0.272574
C93   C     C_R   0.131730 0.506748 0.024407 -0.272439
C94   C     C_R   0.873636 0.540890 0.975204 -0.274301
C95   C     C_R   0.490588 0.124623 0.023267 -0.268322
C96   C     C_R   0.505716 0.859047 0.977483 -0.271322
C97   C     C_R   0.360871 0.986574 0.523711 -0.272933
C98   C     C_R   0.623859 0.985515 0.476279 -0.268705
C99   C     C_R   0.008376 0.368175 0.524953 -0.270814
C100  C     C_R   0.002290 0.628980 0.475364 -0.272083
C101  C     C_R   0.623310 0.018176 0.523944 -0.269352
C102  C     C_R   0.361159 0.017803 0.475573 -0.273065
C103  C     C_R   0.972114 0.630282 0.523138 -0.272390
C104  C     C_R   0.980360 0.365615 0.477024 -0.272166
C105  C     C_R   0.639717 0.860100 0.250032 0.797278
C106  C     C_R   0.360221 0.139861 0.749951 0.804306
C107  C     C_R   0.139919 0.639972 0.249980 0.793917
C108  C     C_R   0.860069 0.360008 0.750016 0.810717
C109  C     C_R   0.360153 0.139718 0.249981 0.795915
C110  C     C_R   0.639898 0.860314 0.750000 0.804256
C111  C     C_R   0.860116 0.360144 0.250003 0.789175
C112  C     C_R   0.139925 0.639849 0.750004 0.807914
C113  C     C_R   0.639926 0.139975 0.749983 0.794589
C114  C     C_R   0.360046 0.860017 0.250018 0.812218
C115  C     C_R   0.139761 0.360153 0.750051 0.797183
C116  C     C_R   0.860273 0.639903 0.249967 0.804650
C117  C     C_R   0.360091 0.860169 0.749996 0.790523
C118  C     C_R   0.639885 0.139882 0.249998 0.806820
C119  C     C_R   0.860103 0.639658 0.750008 0.795764
C120  C     C_R   0.139842 0.360266 0.250024 0.802725
C121  C     C_R   0.209491 0.897268 0.258305 -0.155904
C122  C     C_R   0.789630 0.103268 0.740564 -0.150179
C123  C     C_R   0.120793 0.227746 0.274895 -0.162710
C124  C     C_R   0.878841 0.771574 0.724866 -0.154126
C125  C     C_R   0.790147 0.102846 0.259184 -0.155661
C126  C     C_R   0.210017 0.897146 0.740672 -0.147791
C127  C     C_R   0.880090 0.771790 0.274646 -0.164232
C128  C     C_R   0.120199 0.228819 0.725124 -0.153588
C129  C     C_R   0.227270 0.120159 0.725544 -0.143697
C130  C     C_R   0.770770 0.878136 0.275470 -0.154299
C131  C     C_R   0.102781 0.790763 0.741491 -0.156281
C132  C     C_R   0.896448 0.210211 0.260024 -0.149914
C133  C     C_R   0.772210 0.880634 0.725471 -0.143318
C134  C     C_R   0.229336 0.120534 0.275297 -0.156009
C135  C     C_R   0.897009 0.209508 0.741453 -0.157012
C136  C     C_R   0.103273 0.789876 0.259261 -0.151679
C137  C     C_R   0.709831 0.397054 0.758753 -0.155599
C138  C     C_R   0.289595 0.603266 0.240542 -0.151362
C139  C     C_R   0.620665 0.727774 0.774840 -0.170391
C140  C     C_R   0.378201 0.271217 0.224535 -0.154736
C141  C     C_R   0.290691 0.602498 0.758443 -0.155699
C142  C     C_R   0.710444 0.396830 0.240068 -0.150852
C143  C     C_R   0.380258 0.271850 0.774560 -0.175500
C144  C     C_R   0.620900 0.729323 0.224740 -0.155954
C145  C     C_R   0.728278 0.620943 0.225053 -0.166328
C146  C     C_R   0.271182 0.378460 0.775299 -0.155375
C147  C     C_R   0.603070 0.290542 0.240961 -0.155230
C148  C     C_R   0.396736 0.710029 0.759581 -0.150831
C149  C     C_R   0.271561 0.380278 0.225215 -0.169857
C150  C     C_R   0.729191 0.620542 0.775295 -0.155950
C151  C     C_R   0.397072 0.709376 0.241625 -0.156691
C152  C     C_R   0.603447 0.289780 0.759499 -0.152582
C153  C     C_R   0.137194 0.915983 0.262504 -0.164507
C154  C     C_R   0.862089 0.084200 0.736777 -0.152929
C155  C     C_R   0.111822 0.164251 0.287465 -0.175631
C156  C     C_R   0.888651 0.835766 0.712714 -0.166022
C157  C     C_R   0.862361 0.084141 0.263712 -0.163844
C158  C     C_R   0.137460 0.916311 0.736904 -0.151434
C159  C     C_R   0.889171 0.834673 0.287283 -0.177086
C160  C     C_R   0.110199 0.165084 0.712976 -0.165795
C161  C     C_R   0.163414 0.110750 0.713280 -0.181275
C162  C     C_R   0.834552 0.887571 0.287758 -0.159919
C163  C     C_R   0.083984 0.863293 0.737346 -0.164095
C164  C     C_R   0.915331 0.137684 0.264177 -0.151500
C165  C     C_R   0.835631 0.890268 0.713096 -0.180440
C166  C     C_R   0.165997 0.110863 0.287701 -0.159506
C167  C     C_R   0.915637 0.137144 0.737257 -0.163558
C168  C     C_R   0.084263 0.862409 0.263043 -0.152129
C169  C     C_R   0.637595 0.415747 0.763051 -0.163069
C170  C     C_R   0.362044 0.584177 0.236737 -0.151777
C171  C     C_R   0.611729 0.664405 0.787470 -0.170183
C172  C     C_R   0.387490 0.335060 0.212160 -0.157702
C173  C     C_R   0.363013 0.583752 0.762789 -0.164272
C174  C     C_R   0.638045 0.415876 0.235955 -0.151663
C175  C     C_R   0.389360 0.334680 0.787216 -0.168018
C176  C     C_R   0.611528 0.666104 0.212288 -0.158072
C177  C     C_R   0.665026 0.612034 0.212465 -0.173683
C178  C     C_R   0.334946 0.387796 0.787604 -0.155325
C179  C     C_R   0.584494 0.362912 0.236446 -0.164203
C180  C     C_R   0.415851 0.637393 0.763426 -0.151504
C181  C     C_R   0.334390 0.389496 0.212535 -0.173381
C182  C     C_R   0.665890 0.610997 0.787728 -0.157535
C183  C     C_R   0.415656 0.637056 0.237331 -0.164248
C184  C     C_R   0.584577 0.362243 0.763467 -0.151355
C185  C     C_R   0.176143 0.769524 0.254183 0.064213
C186  C     C_R   0.823862 0.230318 0.745956 0.067810
C187  C     C_R   0.239829 0.184741 0.262458 0.071188
C188  C     C_R   0.760720 0.815618 0.737814 0.067648
C189  C     C_R   0.823684 0.230560 0.254622 0.065303
C190  C     C_R   0.176041 0.769794 0.745979 0.067264
C191  C     C_R   0.760226 0.814608 0.262534 0.071187
C192  C     C_R   0.239033 0.184798 0.737834 0.069443
C193  C     C_R   0.184562 0.239557 0.737765 0.068554
C194  C     C_R   0.815342 0.760514 0.262253 0.069802
C195  C     C_R   0.230476 0.824029 0.745739 0.064499
C196  C     C_R   0.769497 0.176074 0.254372 0.068433
C197  C     C_R   0.814917 0.760587 0.737618 0.068515
C198  C     C_R   0.185074 0.239233 0.262370 0.070094
C199  C     C_R   0.769366 0.176179 0.745670 0.065110
C200  C     C_R   0.230318 0.823984 0.253920 0.067271
C201  C     C_R   0.676257 0.269462 0.754343 0.065070
C202  C     C_R   0.323879 0.730260 0.246037 0.067514
C203  C     C_R   0.739721 0.684697 0.762436 0.072485
C204  C     C_R   0.260427 0.315464 0.237696 0.069159
C205  C     C_R   0.323855 0.730451 0.754339 0.064581
C206  C     C_R   0.676175 0.269698 0.245710 0.068238
C207  C     C_R   0.260444 0.314797 0.762439 0.073725
C208  C     C_R   0.739479 0.685134 0.237615 0.069093
C209  C     C_R   0.684918 0.739809 0.237566 0.071440
C210  C     C_R   0.315486 0.260623 0.762171 0.068491
C211  C     C_R   0.730657 0.323892 0.245450 0.064867
C212  C     C_R   0.269746 0.675902 0.753996 0.067366
C213  C     C_R   0.314636 0.260442 0.237469 0.072113
C214  C     C_R   0.684980 0.739205 0.762323 0.068286
C215  C     C_R   0.269361 0.676154 0.245694 0.064615
C216  C     C_R   0.730479 0.323884 0.754145 0.068372
C217  C     C_R   0.195964 0.696066 0.249937 -0.175068
C218  C     C_R   0.804000 0.303907 0.750054 -0.168008
C219  C     C_R   0.303961 0.195756 0.249937 -0.161170
C220  C     C_R   0.696074 0.804233 0.750058 -0.160997
C221  C     C_R   0.803988 0.304032 0.250021 -0.172594
C222  C     C_R   0.196064 0.695980 0.749974 -0.166622
C223  C     C_R   0.695696 0.803877 0.250103 -0.161799
C224  C     C_R   0.304208 0.196080 0.749903 -0.161318
C225  C     C_R   0.195724 0.303933 0.750114 -0.161817
C226  C     C_R   0.804280 0.696125 0.249892 -0.160158
C227  C     C_R   0.303969 0.804055 0.750026 -0.173663
C228  C     C_R   0.696010 0.196023 0.250014 -0.165373
C229  C     C_R   0.803951 0.695724 0.749965 -0.160964
C230  C     C_R   0.196034 0.304214 0.250071 -0.159360
C231  C     C_R   0.695990 0.196066 0.749961 -0.175499
C232  C     C_R   0.303959 0.803916 0.250027 -0.167802
C233  C     C_R   0.431273 0.016923 0.416816 0.497941
C234  C     C_R   0.554451 0.021385 0.582625 0.493775
C235  C     C_R   0.994920 0.428698 0.417686 0.495910
C236  C     C_R   0.983892 0.566872 0.582634 0.498040
C237  C     C_R   0.555531 0.979032 0.417457 0.491462
C238  C     C_R   0.429797 0.986433 0.582726 0.499566
C239  C     C_R   0.009086 0.557875 0.416969 0.498734
C240  C     C_R   0.014371 0.440284 0.583163 0.494294
C241  C     C_R   0.941130 0.526227 0.916501 0.497905
C242  C     C_R   0.059899 0.510611 0.082919 0.499519
C243  C     C_R   0.507400 0.923236 0.917961 0.492315
C244  C     C_R   0.484155 0.058663 0.082403 0.491731
C245  C     C_R   0.063290 0.481446 0.917199 0.493899
C246  C     C_R   0.930189 0.504475 0.081930 0.493544
C247  C     C_R   0.507954 0.053341 0.917281 0.496003
C248  C     C_R   0.524326 0.934932 0.083796 0.498032
C249  C     C_R   0.545969 0.041534 0.370414 -0.160568
C250  C     C_R   0.456404 0.055801 0.629686 -0.152930
C251  C     C_R   0.942190 0.523344 0.370822 -0.176285
C252  C     C_R   0.954413 0.455360 0.629839 -0.165549
C253  C     C_R   0.446596 0.955406 0.369762 -0.150410
C254  C     C_R   0.532796 0.948025 0.629123 -0.164891
C255  C     C_R   0.060109 0.463949 0.370437 -0.144378
C256  C     C_R   0.044980 0.550776 0.630066 -0.145167
C257  C     C_R   0.052383 0.542531 0.869743 -0.161789
C258  C     C_R   0.966424 0.563431 0.129580 -0.146992
C259  C     C_R   0.441451 0.014562 0.871265 -0.159123
C260  C     C_R   0.457257 0.949746 0.130083 -0.149677
C261  C     C_R   0.952352 0.457080 0.870201 -0.148640
C262  C     C_R   0.021671 0.443504 0.128874 -0.173895
C263  C     C_R   0.563283 0.964159 0.870299 -0.163976
C264  C     C_R   0.542988 0.049571 0.129963 -0.160920
C265  C     C_R   0.549037 0.041254 0.347073 -0.049265
C266  C     C_R   0.458502 0.056462 0.653015 -0.055924
C267  C     C_R   0.941186 0.526236 0.347525 -0.051451
C268  C     C_R   0.955438 0.452407 0.653161 -0.049030
C269  C     C_R   0.446717 0.956360 0.346416 -0.054957
C270  C     C_R   0.535014 0.946457 0.652454 -0.051287
C271  C     C_R   0.060606 0.465843 0.347105 -0.063257
C272  C     C_R   0.044163 0.551487 0.653413 -0.059198
C273  C     C_R   0.053191 0.541578 0.846425 -0.050094
C274  C     C_R   0.967732 0.562818 0.152922 -0.062259
C275  C     C_R   0.440010 0.019563 0.847946 -0.055730
C276  C     C_R   0.457382 0.948754 0.153419 -0.054463
C277  C     C_R   0.950252 0.457292 0.846860 -0.054506
C278  C     C_R   0.024300 0.441542 0.152201 -0.052155
C279  C     C_R   0.563016 0.967198 0.846978 -0.057889
C280  C     C_R   0.541852 0.051563 0.153284 -0.050329
N1    N     N_R   0.493912 0.998009 0.405935 -0.340185
N2    N     N_R   0.492459 0.003385 0.593768 -0.342129
N3    N     N_R   0.002194 0.492831 0.406273 -0.340615
N4    N     N_R   0.999585 0.503875 0.594074 -0.338564
N5    N     N_R   0.002182 0.502358 0.905726 -0.341433
N6    N     N_R   0.994305 0.506500 0.093509 -0.340280
N7    N     N_R   0.505766 0.987949 0.906505 -0.340743
N8    N     N_R   0.502818 0.997466 0.094254 -0.340566
O1    O     O_3   0.500000 0.000000 0.250000 -0.481990
O2    O     O_3   0.500000 0.000000 0.750000 -0.477718
O3    O     O_3   1.000000 0.500000 0.250000 -0.479094
O4    O     O_3   1.000000 0.500000 0.750000 -0.481894
O5    O     O_R   0.439130 0.000000 0.200390 -0.631150
O6    O     O_R   0.560870 0.000000 0.799610 -0.630326
O7    O     O_R   0.000000 0.439130 0.200390 -0.627458
O8    O     O_R   0.000000 0.560870 0.799610 -0.629598
O9    O     O_R   0.560870 0.000000 0.200390 -0.629349
O10   O     O_R   0.439130 0.000000 0.799610 -0.627001
O11   O     O_R   0.000000 0.560870 0.200390 -0.632024
O12   O     O_R   0.000000 0.439130 0.799610 -0.630793
O13   O     O_R   0.939130 0.500000 0.700390 -0.630713
O14   O     O_R   0.060870 0.500000 0.299610 -0.632591
O15   O     O_R   0.500000 0.939130 0.700390 -0.635001
O16   O     O_R   0.500000 0.060870 0.299610 -0.628407
O17   O     O_R   0.060870 0.500000 0.700390 -0.629707
O18   O     O_R   0.939130 0.500000 0.299610 -0.629776
O19   O     O_R   0.500000 0.060870 0.700390 -0.638867
O20   O     O_R   0.500000 0.939130 0.299610 -0.631675
O21   O     O_R   0.646010 0.914780 0.237240 -0.640846
O22   O     O_R   0.353990 0.085220 0.762760 -0.635180
O23   O     O_R   0.085220 0.646010 0.237240 -0.643945
O24   O     O_R   0.914780 0.353990 0.762760 -0.636992
O25   O     O_R   0.353990 0.085220 0.237240 -0.642657
O26   O     O_R   0.646010 0.914780 0.762760 -0.635465
O27   O     O_R   0.914780 0.353990 0.237240 -0.642033
O28   O     O_R   0.085220 0.646010 0.762760 -0.636058
O29   O     O_R   0.646010 0.085220 0.762760 -0.642482
O30   O     O_R   0.353990 0.914780 0.237240 -0.636738
O31   O     O_R   0.085220 0.353990 0.762760 -0.642410
O32   O     O_R   0.914780 0.646010 0.237240 -0.635644
O33   O     O_R   0.353990 0.914780 0.762760 -0.641331
O34   O     O_R   0.646010 0.085220 0.237240 -0.636113
O35   O     O_R   0.914780 0.646010 0.762760 -0.641288
O36   O     O_R   0.085220 0.353990 0.237240 -0.633799
O37   O     O_R   0.146010 0.414780 0.737240 -0.641696
O38   O     O_R   0.853990 0.585220 0.262760 -0.633224
O39   O     O_R   0.585220 0.146010 0.737240 -0.645844
O40   O     O_R   0.414780 0.853990 0.262760 -0.637223
O41   O     O_R   0.853990 0.585220 0.737240 -0.642890
O42   O     O_R   0.146010 0.414780 0.262760 -0.634990
O43   O     O_R   0.414780 0.853990 0.737240 -0.645104
O44   O     O_R   0.585220 0.146010 0.262760 -0.636293
O45   O     O_R   0.146010 0.585220 0.262760 -0.643561
O46   O     O_R   0.853990 0.414780 0.737240 -0.636079
O47   O     O_R   0.585220 0.853990 0.262760 -0.643225
O48   O     O_R   0.414780 0.146010 0.737240 -0.636499
O49   O     O_R   0.853990 0.414780 0.262760 -0.643404
O50   O     O_R   0.146010 0.585220 0.737240 -0.636972
O51   O     O_R   0.414780 0.146010 0.262760 -0.641227
O52   O     O_R   0.585220 0.853990 0.737240 -0.635159
O53   O     O_2   0.373763 0.041039 0.404753 -0.556751
O54   O     O_2   0.611558 0.046888 0.594358 -0.560644
O55   O     O_2   0.994079 0.365879 0.406119 -0.569058
O56   O     O_2   0.970162 0.628159 0.594235 -0.571554
O57   O     O_2   0.612426 0.950503 0.406217 -0.559047
O58   O     O_2   0.371806 0.964496 0.594704 -0.557676
O59   O     O_2   0.023608 0.617906 0.404714 -0.560540
O60   O     O_2   0.039627 0.382606 0.595005 -0.558091
O61   O     O_2   0.883707 0.549458 0.904238 -0.559445
O62   O     O_2   0.120452 0.519180 0.095380 -0.560687
O63   O     O_2   0.510799 0.860461 0.906398 -0.570860
O64   O     O_2   0.454493 0.115764 0.093272 -0.559364
O65   O     O_2   0.119017 0.450958 0.905888 -0.554889
O66   O     O_2   0.867084 0.506477 0.093366 -0.570750
O67   O     O_2   0.502637 0.115476 0.905200 -0.562108
O68   O     O_2   0.547879 0.878055 0.096300 -0.556883
Zn1   Zn    Zn3+2 0.500000 0.913460 0.269040 0.966896
Zn2   Zn    Zn3+2 0.500000 0.086540 0.730960 0.957153
Zn3   Zn    Zn3+2 0.086540 0.500000 0.269040 0.960534
Zn4   Zn    Zn3+2 0.913460 0.500000 0.730960 0.966528
Zn5   Zn    Zn3+2 0.500000 0.086540 0.269040 0.967819
Zn6   Zn    Zn3+2 0.500000 0.913460 0.730960 0.958391
Zn7   Zn    Zn3+2 0.913460 0.500000 0.269040 0.962127
Zn8   Zn    Zn3+2 0.086540 0.500000 0.730960 0.966342
Zn9   Zn    Zn3+2 1.000000 0.413460 0.769040 0.967868
Zn10  Zn    Zn3+2 0.000000 0.586540 0.230960 0.961090
Zn11  Zn    Zn3+2 0.586540 0.000000 0.769040 0.962178
Zn12  Zn    Zn3+2 0.413460 0.000000 0.230960 0.967015
Zn13  Zn    Zn3+2 1.000000 0.586540 0.769040 0.967198
Zn14  Zn    Zn3+2 1.000000 0.413460 0.230960 0.963456
Zn15  Zn    Zn3+2 0.413460 0.000000 0.769040 0.964437
Zn16  Zn    Zn3+2 0.586540 0.000000 0.230960 0.967884
H1    H     H_    0.471825 0.622160 0.234134 0.142662
H2    H     H_    0.528641 0.376914 0.767052 0.141397
H3    H     H_    0.341635 0.438888 0.202829 0.132389
H4    H     H_    0.658884 0.561995 0.797632 0.127214
H5    H     H_    0.528378 0.377812 0.233024 0.142043
H6    H     H_    0.471837 0.622693 0.767094 0.141726
H7    H     H_    0.657765 0.563188 0.202671 0.131980
H8    H     H_    0.342114 0.436392 0.797519 0.126795
H9    H     H_    0.438667 0.341944 0.796879 0.132159
H10   H     H_    0.562600 0.659100 0.202427 0.127643
H11   H     H_    0.377955 0.527428 0.766001 0.142735
H12   H     H_    0.623448 0.471911 0.232206 0.141565
H13   H     H_    0.562756 0.656949 0.797216 0.132125
H14   H     H_    0.436048 0.342272 0.202206 0.126560
H15   H     H_    0.622838 0.471910 0.766361 0.142503
H16   H     H_    0.376615 0.528186 0.233135 0.142010
H17   H     H_    0.971795 0.122204 0.734094 0.142901
H18   H     H_    0.028286 0.877070 0.266584 0.141903
H19   H     H_    0.843192 0.939855 0.703510 0.129916
H20   H     H_    0.158971 0.061788 0.297569 0.127825
H21   H     H_    0.027748 0.878293 0.734165 0.142919
H22   H     H_    0.971240 0.122982 0.267938 0.141141
H23   H     H_    0.155701 0.061527 0.703697 0.131072
H24   H     H_    0.841574 0.936094 0.297718 0.126935
H25   H     H_    0.938534 0.842044 0.296912 0.132402
H26   H     H_    0.061014 0.157917 0.703244 0.127879
H27   H     H_    0.877155 0.027929 0.267153 0.142287
H28   H     H_    0.122662 0.972482 0.733454 0.141647
H29   H     H_    0.062885 0.156757 0.297223 0.131945
H30   H     H_    0.937535 0.843157 0.702919 0.127935
H31   H     H_    0.122350 0.972218 0.265678 0.143124
H32   H     H_    0.876751 0.028168 0.733291 0.141428
H33   H     H_    0.248451 0.941072 0.259042 0.144291
H34   H     H_    0.750135 0.060064 0.739221 0.138752
H35   H     H_    0.077437 0.268043 0.275406 0.117218
H36   H     H_    0.921598 0.730685 0.724038 0.110257
H37   H     H_    0.751099 0.059089 0.259928 0.142396
H38   H     H_    0.249417 0.940460 0.739337 0.139189
H39   H     H_    0.923789 0.731823 0.274979 0.117307
H40   H     H_    0.077239 0.269558 0.724379 0.110302
H41   H     H_    0.267553 0.076790 0.725012 0.117128
H42   H     H_    0.729795 0.920802 0.276364 0.109419
H43   H     H_    0.059027 0.751776 0.740667 0.143578
H44   H     H_    0.939657 0.249717 0.261335 0.138208
H45   H     H_    0.732106 0.924206 0.725026 0.116876
H46   H     H_    0.269993 0.077484 0.276015 0.110037
H47   H     H_    0.940784 0.248510 0.740711 0.142937
H48   H     H_    0.060064 0.750375 0.260622 0.139146
H49   H     H_    0.748898 0.440764 0.759538 0.142713
H50   H     H_    0.250051 0.560127 0.239128 0.138721
H51   H     H_    0.577307 0.768073 0.775327 0.117171
H52   H     H_    0.420998 0.230367 0.223703 0.109412
H53   H     H_    0.251816 0.558597 0.759113 0.144573
H54   H     H_    0.749961 0.440057 0.238743 0.138519
H55   H     H_    0.423864 0.231783 0.774927 0.116333
H56   H     H_    0.577782 0.769908 0.224065 0.109888
H57   H     H_    0.768653 0.577658 0.224506 0.117112
H58   H     H_    0.230319 0.421243 0.776152 0.109214
H59   H     H_    0.559305 0.251534 0.240233 0.142990
H60   H     H_    0.439866 0.749559 0.761040 0.138746
H61   H     H_    0.231483 0.423882 0.224826 0.116878
H62   H     H_    0.769844 0.577492 0.776034 0.109512
H63   H     H_    0.440907 0.748317 0.240950 0.143945
H64   H     H_    0.560189 0.250300 0.760770 0.138701
C281  C     C_R   0.389335 0.915514 0.334552 0.146197
C282  C     C_R   0.335678 0.953240 0.322241 -0.146883
C283  C     C_R   0.280494 0.914871 0.311426 -0.158946
C284  C     C_R   0.278933 0.838682 0.312596 -0.090311
C285  C     C_R   0.332289 0.800785 0.324770 -0.125150
C286  C     C_R   0.387106 0.839034 0.335870 -0.132193
H65   H     H_    0.336199 0.012290 0.321232 0.121974
H66   H     H_    0.238746 0.944352 0.302269 0.123716
H67   H     H_    0.236217 0.809039 0.304169 0.136731
H68   H     H_    0.330953 0.741798 0.325697 0.130501
H69   H     H_    0.427990 0.809184 0.345348 0.127747
C287  C     C_R   0.579926 0.888822 0.663155 0.129484
C288  C     C_R   0.655788 0.896874 0.664596 -0.186175
C289  C     C_R   0.698696 0.841586 0.674160 -0.143381
C290  C     C_R   0.666114 0.778505 0.682597 -0.093811
C291  C     C_R   0.590619 0.769884 0.681017 -0.121864
C292  C     C_R   0.547631 0.824429 0.671058 -0.078598
H70   H     H_    0.681591 0.945669 0.658203 0.141763
H71   H     H_    0.757237 0.847579 0.674974 0.149619
H72   H     H_    0.699416 0.736157 0.690219 0.138516
H73   H     H_    0.565464 0.720801 0.687406 0.130738
H74   H     H_    0.489252 0.817013 0.669737 0.127352
C293  C     C_R   0.123985 0.432517 0.335839 0.145053
C294  C     C_R   0.124153 0.357863 0.330761 -0.162881
C295  C     C_R   0.184351 0.326378 0.320168 -0.136684
C296  C     C_R   0.244079 0.369326 0.314329 -0.085741
C297  C     C_R   0.244320 0.443663 0.319454 -0.121149
C298  C     C_R   0.184752 0.475157 0.330375 -0.093049
H75   H     H_    0.077904 0.324207 0.335058 0.133301
H76   H     H_    0.184846 0.268651 0.316536 0.154697
H77   H     H_    0.290278 0.344917 0.305937 0.133696
H78   H     H_    0.290716 0.476832 0.315011 0.128078
H79   H     H_    0.185439 0.532772 0.334305 0.122861
C299  C     C_R   0.086641 0.608117 0.665074 0.149350
C300  C     C_R   0.050500 0.662563 0.677281 -0.145131
C301  C     C_R   0.090327 0.716646 0.688095 -0.157668
C302  C     C_R   0.166428 0.716361 0.687016 -0.087232
C303  C     C_R   0.202756 0.662337 0.674899 -0.121930
C304  C     C_R   0.163042 0.608590 0.663811 -0.131692
H80   H     H_    0.991539 0.663409 0.678253 0.118072
H81   H     H_    0.062037 0.758940 0.697193 0.124288
H82   H     H_    0.197212 0.758155 0.695473 0.135282
H83   H     H_    0.261678 0.662268 0.674033 0.131648
H84   H     H_    0.191703 0.567086 0.654427 0.127585
C305  C     C_R   0.608040 0.082198 0.335903 0.146513
C306  C     C_R   0.660808 0.044895 0.323326 -0.145813
C307  C     C_R   0.716603 0.083370 0.312799 -0.157154
C308  C     C_R   0.719891 0.159291 0.314596 -0.090606
C309  C     C_R   0.667755 0.196754 0.327150 -0.129675
C310  C     C_R   0.612200 0.158373 0.337906 -0.138405
H85   H     H_    0.658921 0.986055 0.321790 0.119570
H86   H     H_    0.757398 0.054181 0.303336 0.122254
H87   H     H_    0.762978 0.189032 0.306345 0.135497
H88   H     H_    0.670468 0.255532 0.328580 0.129328
H89   H     H_    0.572076 0.187959 0.347576 0.126769
C311  C     C_R   0.416749 0.114808 0.664263 0.128800
C312  C     C_R   0.340646 0.110044 0.665903 -0.184933
C313  C     C_R   0.300657 0.166667 0.675633 -0.138962
C314  C     C_R   0.336378 0.227755 0.684071 -0.094206
C315  C     C_R   0.412102 0.233171 0.682275 -0.120195
C316  C     C_R   0.452163 0.177416 0.672095 -0.073758
H90   H     H_    0.312382 0.062878 0.659476 0.143254
H91   H     H_    0.241923 0.163321 0.676550 0.152876
H92   H     H_    0.305318 0.271102 0.691830 0.138405
H93   H     H_    0.439688 0.280789 0.688625 0.130390
H94   H     H_    0.510712 0.182545 0.670513 0.127456
C317  C     C_R   0.878012 0.562359 0.336730 0.149535
C318  C     C_R   0.880692 0.636835 0.331237 -0.160269
C319  C     C_R   0.820870 0.670851 0.320947 -0.138855
C320  C     C_R   0.758668 0.630583 0.315816 -0.083932
C321  C     C_R   0.755669 0.556409 0.321321 -0.122801
C322  C     C_R   0.814934 0.522394 0.331920 -0.105144
H95   H     H_    0.928870 0.668393 0.334975 0.131129
H96   H     H_    0.822596 0.728458 0.317006 0.153188
H97   H     H_    0.712720 0.656940 0.307669 0.133241
H98   H     H_    0.707393 0.525311 0.317408 0.128104
H99   H     H_    0.812155 0.464901 0.336113 0.120028
C323  C     C_R   0.913097 0.394689 0.664527 0.149448
C324  C     C_R   0.949273 0.340075 0.676932 -0.143793
C325  C     C_R   0.909533 0.285431 0.687641 -0.157997
C326  C     C_R   0.833479 0.285186 0.686213 -0.088631
C327  C     C_R   0.797122 0.339215 0.673841 -0.123741
C328  C     C_R   0.836748 0.393603 0.662892 -0.137290
H100  H     H_    0.008198 0.339646 0.678192 0.118980
H101  H     H_    0.937841 0.243164 0.696954 0.124079
H102  H     H_    0.802764 0.242994 0.694606 0.135036
H103  H     H_    0.738234 0.338863 0.672701 0.131437
H104  H     H_    0.808033 0.435203 0.653359 0.125278
C329  C     C_R   0.891562 0.416514 0.835538 0.146081
C330  C     C_R   0.838575 0.454068 0.822889 -0.144226
C331  C     C_R   0.782931 0.415727 0.812281 -0.156976
C332  C     C_R   0.780062 0.339708 0.814051 -0.090350
C333  C     C_R   0.832488 0.301992 0.826655 -0.129500
C334  C     C_R   0.887866 0.340229 0.837503 -0.135984
H105  H     H_    0.840145 0.512984 0.821376 0.120714
H106  H     H_    0.741911 0.445093 0.802782 0.122288
H107  H     H_    0.737073 0.310080 0.805745 0.135685
H108  H     H_    0.830108 0.243137 0.828061 0.128609
H109  H     H_    0.928183 0.310470 0.847232 0.127472
C335  C     C_R   0.058192 0.376819 0.162857 0.153261
C336  C     C_R   0.131282 0.378649 0.169797 -0.148455
C337  C     C_R   0.163020 0.317419 0.180041 -0.134519
C338  C     C_R   0.121821 0.254596 0.183660 -0.082949
C339  C     C_R   0.049028 0.252484 0.176736 -0.125929
C340  C     C_R   0.017314 0.313243 0.166218 -0.116900
H110  H     H_    0.163505 0.427281 0.167234 0.126000
H111  H     H_    0.219588 0.318519 0.185115 0.151349
H112  H     H_    0.146393 0.207498 0.191748 0.132220
H113  H     H_    0.017211 0.203751 0.179496 0.128325
H114  H     H_    0.960853 0.311158 0.160942 0.120402
C341  C     C_R   0.628122 0.938404 0.835478 0.153101
C342  C     C_R   0.630706 0.865301 0.828656 -0.151503
C343  C     C_R   0.692347 0.838283 0.817702 -0.132556
C344  C     C_R   0.751131 0.884205 0.813260 -0.083599
C345  C     C_R   0.748892 0.957013 0.820087 -0.124678
C346  C     C_R   0.687807 0.984017 0.831331 -0.108864
H115  H     H_    0.585189 0.829423 0.831855 0.127495
H116  H     H_    0.694705 0.781722 0.812704 0.152062
H117  H     H_    0.798495 0.863281 0.804611 0.131719
H118  H     H_    0.794522 0.992485 0.816696 0.127569
H119  H     H_    0.686525 0.040503 0.836548 0.119847
C347  C     C_R   0.582250 0.110224 0.164718 0.146949
C348  C     C_R   0.544396 0.162854 0.177184 -0.147416
C349  C     C_R   0.582301 0.218774 0.187770 -0.158000
C350  C     C_R   0.658195 0.222229 0.186180 -0.091274
C351  C     C_R   0.696223 0.170089 0.173789 -0.129748
C352  C     C_R   0.658414 0.114470 0.162948 -0.136661
H120  H     H_    0.485566 0.160876 0.178538 0.120286
H121  H     H_    0.552682 0.259583 0.197099 0.122289
H122  H     H_    0.687488 0.265462 0.194454 0.136322
H123  H     H_    0.754979 0.172918 0.172524 0.129196
H124  H     H_    0.688404 0.074440 0.153358 0.126703
C353  C     C_R   0.111323 0.582026 0.834701 0.147039
C354  C     C_R   0.163876 0.544068 0.822241 -0.147249
C355  C     C_R   0.219649 0.582002 0.811526 -0.158416
C356  C     C_R   0.222968 0.658020 0.812962 -0.090952
C357  C     C_R   0.170796 0.696158 0.825307 -0.129271
C358  C     C_R   0.115365 0.658321 0.836292 -0.136040
H125  H     H_    0.162034 0.485139 0.821027 0.121478
H126  H     H_    0.260488 0.552304 0.802238 0.122881
H127  H     H_    0.266132 0.687328 0.804610 0.136881
H128  H     H_    0.173510 0.755010 0.826447 0.129361
H129  H     H_    0.075386 0.688373 0.845885 0.126326
C359  C     C_R   0.936065 0.626778 0.164323 0.148437
C360  C     C_R   0.861992 0.627772 0.170087 -0.157818
C361  C     C_R   0.832149 0.688453 0.180864 -0.135140
C362  C     C_R   0.876189 0.747821 0.186205 -0.084496
C363  C     C_R   0.949962 0.747194 0.180421 -0.122423
C364  C     C_R   0.979803 0.687129 0.169326 -0.099021
H130  H     H_    0.827521 0.581797 0.166183 0.130634
H131  H     H_    0.774850 0.689611 0.185022 0.153910
H132  H     H_    0.853061 0.794407 0.194732 0.132935
H133  H     H_    0.983978 0.793296 0.184493 0.128025
H134  H     H_    0.037002 0.687121 0.164899 0.122332
C365  C     C_R   0.374509 0.052491 0.837484 0.157809
C366  C     C_R   0.376581 0.123971 0.828951 -0.128497
C367  C     C_R   0.314561 0.154712 0.818935 -0.126581
C368  C     C_R   0.250585 0.114152 0.817178 -0.083875
C369  C     C_R   0.248192 0.043033 0.825704 -0.129105
C370  C     C_R   0.309820 0.012330 0.835961 -0.131148
H135  H     H_    0.426043 0.155698 0.830091 0.118197
H136  H     H_    0.315928 0.210029 0.812600 0.148658
H137  H     H_    0.202817 0.137942 0.809289 0.131835
H138  H     H_    0.198564 0.011726 0.824385 0.129037
H139  H     H_    0.307469 0.957148 0.842483 0.121871
C371  C     C_R   0.416532 0.890532 0.165027 0.146270
C372  C     C_R   0.454043 0.837137 0.177544 -0.144672
C373  C     C_R   0.415675 0.781550 0.188270 -0.158059
C374  C     C_R   0.339678 0.779230 0.186775 -0.089866
C375  C     C_R   0.301997 0.832188 0.174347 -0.125675
C376  C     C_R   0.340261 0.887462 0.163359 -0.133614
H140  H     H_    0.512943 0.838260 0.178825 0.121569
H141  H     H_    0.445005 0.740114 0.197628 0.123209
H142  H     H_    0.310030 0.736243 0.195152 0.136427
H143  H     H_    0.243162 0.830244 0.173159 0.130084
H144  H     H_    0.310561 0.928112 0.153726 0.127580
H145  H     H_    0.407307 0.922260 0.378617 0.150779
H146  H     H_    0.561913 0.906906 0.619676 0.137491
H147  H     H_    0.105854 0.440355 0.379486 0.151142
H148  H     H_    0.079830 0.588239 0.621074 0.159979
H149  H     H_    0.584222 0.074191 0.379800 0.142228
H150  H     H_    0.426223 0.097704 0.620676 0.143696
H151  H     H_    0.897017 0.545959 0.380198 0.139502
H152  H     H_    0.919845 0.418368 0.620630 0.145889
H153  H     H_    0.913479 0.424823 0.879522 0.149130
H154  H     H_    0.042913 0.397928 0.119390 0.141029
H155  H     H_    0.610921 0.943562 0.879104 0.149464
H156  H     H_    0.576012 0.088205 0.120776 0.142880
H157  H     H_    0.091544 0.575362 0.878715 0.142944
H158  H     H_    0.944631 0.610428 0.120673 0.151845
H159  H     H_    0.395019 0.033311 0.880848 0.149597
H160  H     H_    0.424884 0.910508 0.121002 0.150119
C377  C     C_R   0.290074 0.032986 0.441120 0.185388
C378  C     C_R   0.257707 0.102602 0.440644 -0.125919
C379  C     C_R   0.192767 0.114321 0.428865 -0.135198
C380  C     C_R   0.159632 0.056588 0.417658 -0.112122
C381  C     C_R   0.191055 0.986914 0.418370 -0.133567
C382  C     C_R   0.255874 0.974858 0.430188 -0.100150
H161  H     H_    0.283523 0.147895 0.448997 0.124782
H162  H     H_    0.168464 0.168295 0.428272 0.140521
H163  H     H_    0.109678 0.065853 0.408388 0.125868
H164  H     H_    0.165630 0.942487 0.409538 0.122611
H165  H     H_    0.280332 0.920880 0.430402 0.113282
C383  C     C_R   0.696314 0.029148 0.558021 0.186698
C384  C     C_R   0.739150 0.091076 0.554016 -0.148627
C385  C     C_R   0.807114 0.097940 0.564346 -0.132458
C386  C     C_R   0.832432 0.043469 0.578890 -0.116829
C387  C     C_R   0.790231 0.981540 0.582854 -0.135665
C388  C     C_R   0.723248 0.973420 0.572054 -0.072022
H166  H     H_    0.719671 0.134125 0.543025 0.126627
H167  H     H_    0.839807 0.145752 0.561158 0.133696
H168  H     H_    0.884695 0.049166 0.587085 0.114700
H169  H     H_    0.809251 0.939856 0.594352 0.117427
H170  H     H_    0.691374 0.924836 0.575099 0.110121
C389  C     C_R   0.965825 0.290764 0.443819 0.195674
C390  C     C_R   0.900705 0.277167 0.432217 -0.071407
C391  C     C_R   0.887372 0.207836 0.423542 -0.130468
C392  C     C_R   0.938016 0.151414 0.426884 -0.106226
C393  C     C_R   0.001624 0.163988 0.439042 -0.153179
C394  C     C_R   0.015840 0.233446 0.447390 -0.159144
H171  H     H_    0.860762 0.320325 0.429795 0.117051
H172  H     H_    0.837650 0.197813 0.414341 0.119211
H173  H     H_    0.928077 0.097782 0.420193 0.119032
H174  H     H_    0.039682 0.119745 0.442110 0.134050
H175  H     H_    0.065481 0.242515 0.456767 0.123326
C395  C     C_R   0.957213 0.705216 0.556195 0.194751
C396  C     C_R   0.889017 0.723574 0.565235 -0.069811
C397  C     C_R   0.876440 0.793896 0.573384 -0.133098
C398  C     C_R   0.931226 0.846447 0.572070 -0.107335
C399  C     C_R   0.998363 0.828948 0.562553 -0.149797
C400  C     C_R   0.011618 0.758520 0.554725 -0.156111
H176  H     H_    0.845979 0.683469 0.565986 0.121359
H177  H     H_    0.824094 0.807752 0.580535 0.120891
H178  H     H_    0.921874 0.900956 0.578237 0.121459
H179  H     H_    0.039797 0.870242 0.561030 0.131238
H180  H     H_    0.063833 0.745696 0.547268 0.123059
C401  C     C_R   0.697529 0.974252 0.442450 0.188650
C402  C     C_R   0.743202 0.914548 0.447521 -0.149391
C403  C     C_R   0.812217 0.909097 0.437879 -0.136420
C404  C     C_R   0.835822 0.962648 0.422919 -0.117727
C405  C     C_R   0.790785 0.022361 0.417861 -0.129503
C406  C     C_R   0.722543 0.029087 0.427938 -0.074013
H181  H     H_    0.725300 0.872298 0.458918 0.126491
H182  H     H_    0.847174 0.863216 0.442020 0.134374
H183  H     H_    0.889034 0.958027 0.415297 0.113766
H184  H     H_    0.808699 0.063528 0.406144 0.117628
H185  H     H_    0.688577 0.076148 0.424122 0.108255
C407  C     C_R   0.289538 0.969509 0.557877 0.182172
C408  C     C_R   0.259287 0.899364 0.558031 -0.127679
C409  C     C_R   0.195289 0.885844 0.569906 -0.135085
C410  C     C_R   0.161150 0.942238 0.581611 -0.112745
C411  C     C_R   0.190398 0.012434 0.581207 -0.134102
C412  C     C_R   0.253980 0.026422 0.569168 -0.094232
H186  H     H_    0.286185 0.854978 0.549413 0.123853
H187  H     H_    0.172701 0.831435 0.570270 0.131962
H188  H     H_    0.112213 0.931524 0.591080 0.123135
H189  H     H_    0.164378 0.055716 0.590505 0.123461
H190  H     H_    0.276866 0.080759 0.569242 0.115635
C413  C     C_R   0.013842 0.700969 0.441145 0.188530
C414  C     C_R   0.078494 0.740776 0.443550 -0.144012
C415  C     C_R   0.085472 0.809069 0.433303 -0.132767
C416  C     C_R   0.028166 0.837874 0.420522 -0.114607
C417  C     C_R   0.963548 0.798657 0.418148 -0.144145
C418  C     C_R   0.955734 0.731022 0.428756 -0.080355
H191  H     H_    0.123433 0.718764 0.453287 0.125562
H192  H     H_    0.135429 0.839436 0.435238 0.124704
H193  H     H_    0.033751 0.890560 0.412478 0.114357
H194  H     H_    0.919390 0.820746 0.408135 0.131674
H195  H     H_    0.905190 0.701376 0.426972 0.119402
C419  C     C_R   0.018116 0.296446 0.559392 0.192843
C420  C     C_R   0.079140 0.251561 0.555597 -0.145156
C421  C     C_R   0.083929 0.182593 0.565568 -0.135524
C422  C     C_R   0.028135 0.158069 0.579491 -0.114261
C423  C     C_R   0.967158 0.202353 0.583308 -0.143211
C424  C     C_R   0.961475 0.270842 0.573029 -0.086107
H196  H     H_    0.122847 0.269989 0.544896 0.125273
H197  H     H_    0.130932 0.148295 0.562431 0.126765
H198  H     H_    0.031986 0.104716 0.587261 0.114054
H199  H     H_    0.924039 0.183447 0.594123 0.129253
H200  H     H_    0.913482 0.304257 0.575855 0.113515
C425  C     C_R   0.806464 0.570840 0.941005 0.184964
C426  C     C_R   0.795552 0.645485 0.936659 -0.116838
C427  C     C_R   0.733633 0.669125 0.924967 -0.124313
C428  C     C_R   0.682485 0.618439 0.917594 -0.106258
C429  C     C_R   0.692269 0.544192 0.922331 -0.147211
C430  C     C_R   0.754032 0.520300 0.934068 -0.104655
H201  H     H_    0.835579 0.684988 0.941966 0.121787
H202  H     H_    0.725630 0.726629 0.921435 0.138316
H203  H     H_    0.635094 0.636745 0.908284 0.146056
H204  H     H_    0.652279 0.505168 0.916745 0.117953
H205  H     H_    0.761801 0.462566 0.937347 0.118420
C431  C     C_R   0.203243 0.513990 0.058791 0.185669
C432  C     C_R   0.243113 0.579045 0.057660 -0.140317
C433  C     C_R   0.310764 0.584033 0.068313 -0.131011
C434  C     C_R   0.338824 0.524297 0.080219 -0.115861
C435  C     C_R   0.299562 0.459252 0.081296 -0.142311
C436  C     C_R   0.232592 0.453501 0.070275 -0.082021
H206  H     H_    0.221540 0.625890 0.048662 0.125763
H207  H     H_    0.341175 0.634355 0.067430 0.122478
H208  H     H_    0.390935 0.528405 0.088611 0.114173
H209  H     H_    0.321046 0.413217 0.090657 0.134937
H210  H     H_    0.202780 0.402741 0.071117 0.120268
C437  C     C_R   0.485440 0.784140 0.944489 0.193517
C438  C     C_R   0.419037 0.771421 0.933464 -0.069603
C439  C     C_R   0.402585 0.701606 0.925687 -0.134138
C440  C     C_R   0.451413 0.643814 0.929332 -0.116946
C441  C     C_R   0.516597 0.655652 0.940766 -0.155756
C442  C     C_R   0.533943 0.725556 0.948193 -0.160602
H211  H     H_    0.380113 0.815472 0.930990 0.117118
H212  H     H_    0.351660 0.692168 0.917054 0.120382
H213  H     H_    0.438723 0.589679 0.923473 0.121647
H214  H     H_    0.553504 0.610482 0.943986 0.137536
H215  H     H_    0.584634 0.733896 0.957099 0.128249
C443  C     C_R   0.478216 0.199877 0.056677 0.191690
C444  C     C_R   0.418389 0.244805 0.051170 -0.151801
C445  C     C_R   0.412547 0.314820 0.060095 -0.139440
C446  C     C_R   0.465817 0.340219 0.074777 -0.117741
C447  C     C_R   0.525611 0.295932 0.080289 -0.131708
C448  C     C_R   0.532624 0.226549 0.070968 -0.074627
H216  H     H_    0.376489 0.225659 0.039916 0.125286
H217  H     H_    0.366690 0.349255 0.055565 0.134126
H218  H     H_    0.460957 0.394275 0.081810 0.114265
H219  H     H_    0.566696 0.315406 0.091727 0.118042
H220  H     H_    0.579838 0.193222 0.075080 0.108740
C449  C     C_R   0.204396 0.467031 0.942119 0.186293
C450  C     C_R   0.243570 0.401566 0.945138 -0.140411
C451  C     C_R   0.310614 0.391372 0.934520 -0.129577
C452  C     C_R   0.338883 0.446378 0.920874 -0.113854
C453  C     C_R   0.300549 0.511962 0.918017 -0.130976
C454  C     C_R   0.234056 0.522798 0.928836 -0.082715
H221  H     H_    0.221749 0.358260 0.955456 0.125300
H222  H     H_    0.340335 0.340604 0.936727 0.130914
H223  H     H_    0.390369 0.438176 0.912464 0.120489
H224  H     H_    0.322068 0.554269 0.907299 0.118701
H225  H     H_    0.204839 0.573863 0.926491 0.108326
C455  C     C_R   0.792045 0.482096 0.055261 0.197140
C456  C     C_R   0.778752 0.415863 0.066428 -0.069021
C457  C     C_R   0.708999 0.400328 0.074420 -0.131170
C458  C     C_R   0.651786 0.449822 0.070802 -0.111295
C459  C     C_R   0.664109 0.514648 0.059117 -0.154296
C460  C     C_R   0.733992 0.531133 0.051502 -0.165650
H226  H     H_    0.822399 0.376525 0.068942 0.116508
H227  H     H_    0.699223 0.349656 0.083236 0.119448
H228  H     H_    0.597744 0.437924 0.076882 0.119735
H229  H     H_    0.619341 0.551867 0.055802 0.139361
H230  H     H_    0.742749 0.581636 0.042451 0.123782
C461  C     C_R   0.543967 0.192262 0.941266 0.195689
C462  C     C_R   0.609925 0.198520 0.929565 -0.084213
C463  C     C_R   0.629309 0.265068 0.919797 -0.130923
C464  C     C_R   0.583573 0.325945 0.921889 -0.109644
C465  C     C_R   0.518451 0.320433 0.933789 -0.144260
C466  C     C_R   0.498616 0.253894 0.943478 -0.145990
H231  H     H_    0.646153 0.151892 0.928039 0.115140
H232  H     H_    0.679959 0.269543 0.910701 0.127485
H233  H     H_    0.598744 0.377448 0.914374 0.116215
H234  H     H_    0.483558 0.367836 0.935605 0.121347
H235  H     H_    0.448139 0.250357 0.952729 0.118096
C467  C     C_R   0.548515 0.793697 0.060262 0.186837
C468  C     C_R   0.619403 0.765359 0.062617 -0.124980
C469  C     C_R   0.631334 0.700946 0.074741 -0.132101
C470  C     C_R   0.572602 0.664358 0.084408 -0.113646
C471  C     C_R   0.501746 0.691586 0.081734 -0.136232
C472  C     C_R   0.489546 0.756002 0.069636 -0.102684
H236  H     H_    0.665324 0.793863 0.055446 0.124300
H237  H     H_    0.686135 0.679588 0.076750 0.146056
H238  H     H_    0.581977 0.614735 0.093900 0.131228
H239  H     H_    0.456418 0.663141 0.089225 0.120983
H240  H     H_    0.434568 0.777289 0.067927 0.113315
H241  H     H_    0.817072 0.496930 0.013401 0.145594
H242  H     H_    0.182300 0.468437 0.984542 0.140536
H243  H     H_    0.547657 0.811908 0.017632 0.141197
H244  H     H_    0.532175 0.174297 0.983618 0.143778
H245  H     H_    0.184307 0.510462 0.016494 0.142444
H246  H     H_    0.823994 0.557413 0.983486 0.142772
H247  H     H_    0.481355 0.175442 0.014497 0.141092
H248  H     H_    0.498328 0.808153 0.986320 0.144400
H249  H     H_    0.309539 0.977680 0.515343 0.141916
H250  H     H_    0.675355 0.977874 0.484715 0.142386
H251  H     H_    0.016696 0.316123 0.517018 0.140895
H252  H     H_    0.008665 0.681143 0.483365 0.142158
H253  H     H_    0.674778 0.026366 0.515690 0.142741
H254  H     H_    0.309545 0.026836 0.483742 0.141880
H255  H     H_    0.960058 0.680721 0.514457 0.145070
H256  H     H_    0.969624 0.315030 0.485674 0.144357

loop_
_geom_bond_atom_site_label_1
_geom_bond_atom_site_label_2
_ccdc_geom_bond_type
C293  C294  A    
C8    O16   A    
C459  H229  S    
C12   C256  A    
C191  C223  A    
C122  C154  A    
C123  C198  A    
C77   C101  A    
C314  C315  A    
C76   C79   A    
C143  C175  A    
C196  C228  A    
C401  C402  A    
C213  C219  A    
C277  C329  S    
C371  C376  A    
C281  C282  A    
C6    O18   A    
C65   C89   A    
C393  H174  S    
C245  O65   S    
C467  C468  A    
C104  H256  S    
C471  H239  S    
O1    Zn1   S    
C362  C363  A    
C469  C470  A    
C250  H150  S    
C2    O10   A    
O3    Zn3   S    
C362  H132  S    
C131  C190  A    
O25   Zn12  S    
C21   C33   A    
C306  H85   S    
C22   C38   A    
C129  C192  A    
C146  H58   S    
C302  H82   S    
C37   C245  A    
C416  H193  S    
C288  C289  A    
C199  C231  A    
C301  H81   S    
C435  C436  A    
O5    Zn12  S    
C361  H131  S    
C133  C188  A    
C347  C348  A    
C168  H18   S    
C453  H224  S    
C44   C103  A    
O41   Zn4   S    
C465  C466  A    
C263  H155  S    
C332  C333  A    
C236  N4    A    
C297  C298  A    
C159  H25   S    
C207  C210  A    
O52   Zn6   S    
C111  O49   A    
C15   N7    S    
C361  C362  A    
C116  O38   A    
C135  C186  A    
C353  C354  A    
C367  H136  S    
C52   C443  S    
C130  H42   S    
O12   Zn9   S    
C369  H138  S    
C115  O31   A    
C449  C454  A    
C256  H148  S    
C342  H115  S    
C349  H121  S    
C150  C203  A    
C22   C34   A    
C134  C187  A    
C79   C87   A    
C144  C209  A    
C452  H223  S    
C335  C336  A    
C331  H106  S    
C138  C215  A    
C18   C85   A    
C210  C224  A    
C23   C84   A    
C375  H143  S    
C245  N5    A    
C316  H94   S    
C415  H192  S    
O1    Zn5   S    
C66   C90   A    
C324  H100  S    
C25   C41   A    
C327  H103  S    
C376  H144  S    
C146  C207  A    
C20   C28   A    
C118  C228  S    
C387  H169  S    
C124  C197  A    
C28   C44   A    
C235  N3    A    
C200  C232  A    
C29   C45   A    
C266  C311  S    
C140  H52   S    
C366  H135  S    
C238  N2    A    
C8    C57   S    
C66   C82   A    
O32   Zn10  S    
C289  H71   S    
C57   C269  A    
O7    Zn14  S    
C9    N1    S    
C137  H49   S    
C351  C352  A    
C310  H89   S    
O1    Zn12  S    
C114  O40   A    
C128  C193  A    
C3    O11   A    
C381  C382  A    
C72   C84   A    
O3    Zn10  S    
C148  C205  A    
C12   N4    S    
C251  H151  S    
C329  C334  A    
C13   N5    S    
C349  C350  A    
C254  H146  S    
C339  H113  S    
C103  H255  S    
O23   Zn10  S    
C35   C51   A    
C186  C199  A    
C97   H249  S    
O9    Zn16  S    
C386  C387  A    
C251  C267  A    
C372  C373  A    
C99   H251  S    
C318  C319  A    
C248  N8    A    
C290  H72   S    
C336  H110  S    
C58   C270  A    
C443  C444  A    
C404  C405  A    
C170  H16   S    
C338  H112  S    
C164  H22   S    
C9    C253  A    
C305  C310  A    
C363  C364  A    
C12   C252  A    
C389  C390  A    
C327  C328  A    
C195  C227  A    
C76   C100  A    
C136  C168  A    
C248  O68   S    
C69   C93   A    
C463  H232  S    
C59   C267  A    
O38   Zn7   S    
C17   C25   A    
C287  C288  A    
C10   N2    S    
C341  C346  A    
C302  C303  A    
C191  C194  A    
C193  C225  A    
C344  H117  S    
C80   C88   A    
C214  C220  A    
C57   C265  A    
C189  C196  A    
C194  C226  A    
C303  C304  A    
C120  O36   A    
C257  H157  S    
O27   Zn14  S    
C204  C213  A    
C237  N1    A    
C68   C92   A    
C125  H37   S    
C385  C386  A    
C107  C217  S    
C378  H161  S    
C360  C361  A    
C238  O58   S    
C123  H35   S    
C181  H3    S    
C60   C272  A    
C15   C263  A    
C119  C229  S    
C465  H234  S    
C384  H166  S    
C252  H152  S    
C147  C179  A    
O10   Zn15  S    
C456  H226  S    
C71   C95   A    
O43   Zn6   S    
C305  C306  A    
C368  C369  A    
C116  C226  S    
C284  H67   S    
C4    O12   A    
C241  N5    A    
O6    Zn11  S    
C413  C418  A    
C5    O13   A    
C412  H190  S    
O42   Zn3   S    
C385  H167  S    
C7    O15   A    
C233  N1    A    
C165  H19   S    
C35   C243  A    
C405  C406  A    
C166  H20   S    
C258  C274  A    
C54   C455  S    
C33   C241  A    
C403  C404  A    
C383  C384  A    
C149  H61   S    
C451  H222  S    
C353  C358  A    
C169  C184  A    
C212  C222  A    
C295  C296  A    
C284  C285  A    
C186  C218  A    
C355  H126  S    
C24   C36   A    
C358  H129  S    
C188  C197  A    
C216  C218  A    
C115  C225  S    
C299  C304  A    
C190  C222  A    
C365  C370  A    
C118  O34   A    
C278  C335  S    
C466  H235  S    
C139  C214  A    
C65   C70   A    
C211  C221  A    
C20   C87   A    
C439  H212  S    
C41   C102  A    
C146  C178  A    
O3    Zn14  S    
C145  C177  A    
C67   C72   A    
C62   C274  A    
C249  C265  A    
C309  H88   S    
C438  H211  S    
C13   C257  A    
C43   C104  A    
C14   C262  A    
C208  C226  A    
C434  H208  S    
C431  C436  A    
C111  O27   A    
C296  H77   S    
C260  H160  S    
O16   Zn5   S    
C107  O23   A    
C459  C460  A    
C74   C77   A    
C133  H45   S    
C364  H134  S    
C313  H91   S    
C314  H92   S    
C144  H56   S    
C401  C406  A    
C36   C52   A    
O21   Zn16  S    
C42   C383  S    
C280  C347  S    
C26   C234  A    
C437  C442  A    
C304  H84   S    
C77   C85   A    
C467  C472  A    
C329  C330  A    
O2    Zn11  S    
C79   C103  A    
O28   Zn13  S    
C440  C441  A    
C268  C323  S    
C142  C211  A    
C30   C238  A    
C70   C82   A    
O4    Zn13  S    
C126  C195  A    
C129  H41   S    
C308  C309  A    
O37   Zn8   S    
C373  H141  S    
C429  C430  A    
C71   C83   A    
C102  H254  S    
C187  C198  A    
C129  C161  A    
C334  H109  S    
C422  H198  S    
C237  O57   S    
C301  C302  A    
C47   C413  S    
C167  H17   S    
C299  C300  A    
C428  C429  A    
C40   C56   A    
C359  C364  A    
C287  C292  A    
C470  H238  S    
C44   C395  S    
O51   Zn5   S    
C10   C250  A    
C72   C96   A    
C461  C462  A    
C388  H170  S    
C377  C382  A    
C201  C216  A    
C309  C310  A    
C132  H44   S    
C369  C370  A    
C443  C448  A    
C50   C431  S    
C421  C422  A    
C144  C176  A    
C255  H147  S    
C333  C334  A    
C240  O60   S    
C249  H149  S    
C247  O67   S    
C294  C295  A    
C43   C389  S    
C157  C164  A    
C73   C85   A    
C417  H194  S    
C391  C392  A    
C190  C195  A    
C28   C236  A    
C140  C213  A    
C243  O63   S    
O39   Zn2   S    
C244  N8    A    
C119  O35   A    
C398  H178  S    
C416  C417  A    
C297  H78   S    
C246  N6    A    
C370  H139  S    
C324  C325  A    
O29   Zn11  S    
C42   C101  A    
C53   C90   A    
C178  H8    S    
C407  C408  A    
C26   C42   A    
C420  H196  S    
C20   C32   A    
C3    C62   S    
C75   C87   A    
C320  H97   S    
C300  C301  A    
C411  C412  A    
C5    C60   S    
C48   C419  S    
O33   Zn15  S    
C61   C277  A    
C392  H173  S    
C30   C46   A    
C158  C163  A    
C291  C292  A    
C112  O50   A    
C271  C293  S    
C317  C318  A    
C151  C183  A    
C197  C229  A    
C120  O42   A    
O14   Zn3   S    
C447  H219  S    
C1    O5    A    
O4    Zn4   S    
C41   C377  S    
C325  C326  A    
C323  C324  A    
O35   Zn13  S    
C3    O7    A    
C326  H102  S    
C377  C378  A    
C206  C228  A    
C262  H154  S    
C63   C279  A    
C321  H98   S    
C442  H215  S    
C11   C251  A    
C425  C430  A    
C64   C280  A    
C91   H243  S    
C435  H209  S    
C307  H86   S    
C282  H65   S    
C432  H206  S    
C429  H204  S    
C172  H14   S    
C290  C291  A    
C260  C276  A    
C319  H96   S    
C261  C277  A    
C21   C82   A    
C153  H31   S    
C350  C351  A    
C240  N4    A    
C33   C49   A    
O4    Zn9   S    
C135  C167  A    
C414  H191  S    
C325  H101  S    
C276  C371  S    
C374  H142  S    
C180  H6    S    
C134  H46   S    
C243  N7    A    
C407  C412  A    
C244  O64   S    
C149  C181  A    
C1    C64   S    
C4    C61   S    
C152  H64   S    
O44   Zn5   S    
C127  C159  A    
C78   C102  A    
C17   C29   A    
C444  C445  A    
C18   C26   A    
C11   N3    S    
C19   C31   A    
C296  C297  A    
C141  H53   S    
C116  O32   A    
C451  C452  A    
C150  C182  A    
C123  C155  A    
C317  C322  A    
C246  O66   S    
C139  H51   S    
C337  C338  A    
C374  C375  A    
C121  C153  A    
C80   C104  A    
C126  H38   S    
C1    O9    A    
C339  C340  A    
C70   C94   A    
C24   C83   A    
C145  H57   S    
C45   C98   A    
C326  C327  A    
C170  C183  A    
C125  C157  A    
C397  C398  A    
C101  H253  S    
C108  O24   A    
C176  H10   S    
C368  H137  S    
C38   C246  A    
C354  H125  S    
C311  C312  A    
C52   C95   A    
C108  O46   A    
C464  C465  A    
C96   H248  S    
C343  H116  S    
C282  C283  A    
C242  N6    A    
C6    O14   A    
C372  H140  S    
C117  O43   A    
C151  H63   S    
C252  C268  A    
C56   C91   A    
C39   C55   A    
C253  C269  A    
C208  C209  A    
C234  N2    A    
C322  H99   S    
C11   C255  A    
C396  C397  A    
C134  C166  A    
C259  C275  A    
C441  H214  S    
O11   Zn10  S    
O50   Zn8   S    
C202  C215  A    
C175  C178  A    
C438  C439  A    
C419  C424  A    
C155  H29   S    
C108  C218  S    
C346  H119  S    
C419  C420  A    
C355  C356  A    
C148  C180  A    
C16   C260  A    
C31   C47   A    
C312  C313  A    
C154  H32   S    
C32   C48   A    
C426  H201  S    
C182  H4    S    
C60   C268  A    
C6    C59   S    
C174  H12   S    
C470  C471  A    
C113  C231  S    
O17   Zn8   S    
C188  C220  A    
C411  H189  S    
O20   Zn1   S    
C128  H40   S    
C17   C86   A    
C68   C84   A    
C22   C81   A    
C433  H207  S    
C390  C391  A    
C192  C224  A    
C74   C98   A    
C19   C88   A    
C14   C258  A    
C472  H240  S    
C434  C435  A    
C426  C427  A    
C366  C367  A    
C187  C219  A    
C173  C180  A    
C354  C355  A    
C105  C223  S    
C436  H210  S    
C90   H242  S    
C154  C167  A    
C427  C428  A    
O48   Zn2   S    
C356  C357  A    
O2    Zn6   S    
C311  C316  A    
O31   Zn9   S    
C147  C206  A    
C131  H43   S    
C460  H230  S    
C132  C164  A    
C121  C200  A    
C343  C344  A    
C109  C219  S    
C133  C165  A    
C65   C81   A    
C410  C411  A    
C38   C54   A    
C131  C163  A    
C67   C91   A    
C449  C450  A    
C159  C162  A    
C235  O55   S    
C440  H213  S    
C396  H176  S    
C163  H21   S    
C461  C466  A    
C149  C204  A    
C250  C266  A    
C308  H87   S    
C410  H188  S    
C185  C217  A    
C391  H172  S    
C161  H23   S    
C315  H93   S    
C39   C247  A    
C312  H90   S    
C162  H24   S    
C46   C97   A    
C469  H237  S    
C175  H9    S    
C269  C281  S    
C446  H218  S    
C264  H156  S    
C137  C216  A    
C424  H200  S    
C209  C223  A    
O45   Zn3   S    
C445  H217  S    
C350  H122  S    
C151  C202  A    
C120  C230  S    
O24   Zn9   S    
C130  C191  A    
C202  C232  A    
C402  C403  A    
C179  H5    S    
C143  C210  A    
C48   C99   A    
C31   C239  A    
C397  H177  S    
O1    Zn16  S    
C109  O25   A    
C468  H236  S    
C10   C254  A    
C95   H247  S    
C330  H105  S    
C457  H227  S    
C106  O22   A    
C351  H123  S    
C257  C273  A    
C390  H171  S    
C379  C380  A    
C462  H231  S    
C454  H225  S    
C293  C298  A    
C8    O20   A    
C421  H197  S    
C333  H108  S    
C205  C212  A    
C150  H62   S    
C142  H54   S    
C139  C171  A    
C458  C459  A    
C215  C217  A    
O18   Zn7   S    
C320  C321  A    
C267  C317  S    
C417  C418  A    
C300  H80   S    
C160  C161  A    
C5    O17   A    
C415  C416  A    
C453  C454  A    
C345  H118  S    
C156  C165  A    
C68   C71   A    
C263  C279  A    
C340  H114  S    
C373  C374  A    
C341  C342  A    
C205  C227  A    
C348  H120  S    
C124  H36   S    
C375  C376  A    
C23   C35   A    
O3    Zn7   S    
C420  C421  A    
C157  H27   S    
C27   C43   A    
C381  H164  S    
C158  H28   S    
C458  H228  S    
C448  H220  S    
O40   Zn1   S    
C423  H199  S    
C236  O56   S    
C61   C273  A    
C113  O29   A    
O47   Zn1   S    
C291  H73   S    
C172  C181  A    
C184  H2    S    
C132  C189  A    
C118  O44   A    
C430  H205  S    
C452  C453  A    
C94   H246  S    
C393  C394  A    
C112  O28   A    
O49   Zn7   S    
C428  H203  S    
C136  C185  A    
C138  C170  A    
C2    O6    A    
C203  C214  A    
C160  H26   S    
C323  C328  A    
C171  H13   S    
C283  C284  A    
C89   H241  S    
C380  H163  S    
C303  H83   S    
C367  C368  A    
C433  C434  A    
C177  H7    S    
C283  H66   S    
C321  C322  A    
C142  C174  A    
C255  C271  A    
C425  C426  A    
C64   C276  A    
O19   Zn2   S    
C73   C97   A    
C256  C272  A    
C319  C320  A    
C439  C440  A    
O34   Zn16  S    
C173  H11   S    
C307  C308  A    
C270  C287  S    
C408  H186  S    
C342  C343  A    
C14   N6    S    
C446  C447  A    
C279  C341  S    
C450  C451  A    
C114  C232  S    
C471  C472  A    
C189  C221  A    
C66   C69   A    
C117  O33   A    
C155  C166  A    
C288  H70   S    
C262  C278  A    
C382  H165  S    
C414  C415  A    
C56   C467  S    
C352  H124  S    
C136  H48   S    
C286  H69   S    
C169  H15   S    
C45   C401  S    
C409  C410  A    
C315  C316  A    
C24   C40   A    
C109  O51   A    
C135  H47   S    
C206  C211  A    
C207  C225  A    
C106  C224  S    
O8    Zn13  S    
C371  C372  A    
C387  C388  A    
C75   C99   A    
C73   C78   A    
C275  C365  S    
C423  C424  A    
C18   C30   A    
C122  C199  A    
C152  C184  A    
C19   C27   A    
C75   C80   A    
C76   C88   A    
C7    C58   S    
C137  C169  A    
C27   C235  A    
C51   C96   A    
C335  C340  A    
C105  O21   A    
C78   C86   A    
C289  C290  A    
C25   C233  A    
C406  H185  S    
C140  C172  A    
C259  H159  S    
C234  O54   S    
C141  C173  A    
C258  H158  S    
C93   H245  S    
C404  H183  S    
C357  C358  A    
C261  H153  S    
C392  C393  A    
C98   H250  S    
C357  H128  S    
C29   C237  A    
C110  C220  S    
C40   C248  A    
C36   C244  A    
C121  H33   S    
C447  C448  A    
C126  C158  A    
C437  C438  A    
C106  O48   A    
C328  H104  S    
C34   C50   A    
C233  O53   S    
C359  C360  A    
O46   Zn4   S    
C464  H233  S    
C16   N8    S    
C360  H130  S    
C431  C432  A    
C54   C89   A    
C247  N7    A    
C386  H168  S    
C127  C194  A    
C345  C346  A    
C203  C229  A    
C318  H95   S    
C53   C449  S    
C32   C240  A    
C125  C196  A    
C432  C433  A    
C457  C458  A    
C239  N3    A    
C347  C352  A    
C254  C270  A    
C242  O62   S    
C47   C100  A    
C402  H181  S    
C273  C353  S    
C294  H75   S    
C9    C249  A    
C394  H175  S    
C405  H184  S    
O13   Zn4   S    
C2    C63   S    
C389  C394  A    
C171  C182  A    
C156  H30   S    
C348  C349  A    
C363  H133  S    
C201  C231  A    
O15   Zn6   S    
C241  O61   S    
O22   Zn15  S    
C58   C266  A    
C336  C337  A    
C463  C464  A    
C399  C400  A    
C59   C271  A    
C292  H74   S    
C148  H60   S    
C67   C83   A    
C74   C86   A    
C272  C299  S    
C141  C212  A    
C444  H216  S    
C69   C81   A    
C114  O30   A    
C176  C177  A    
C55   C92   A    
C49   C425  S    
C418  H195  S    
C378  C379  A    
C395  C400  A    
C124  C156  A    
C51   C437  S    
C427  H202  S    
C49   C94   A    
C147  H59   S    
C55   C461  S    
C274  C359  S    
C122  H34   S    
C338  C339  A    
C15   C259  A    
C100  H252  S    
C128  C160  A    
C384  C385  A    
C63   C275  A    
C450  H221  S    
C413  C414  A    
C408  C409  A    
C313  C314  A    
C117  C227  S    
C455  C460  A    
C400  H180  S    
C330  C331  A    
C112  C222  S    
C4    O8    A    
C455  C456  A    
C34   C242  A    
C21   C37   A    
C356  H127  S    
C281  C286  A    
C198  C230  A    
C50   C93   A    
C105  O47   A    
C344  C345  A    
C285  H68   S    
C331  C332  A    
C92   H244  S    
C253  H145  S    
C119  O41   A    
C138  H50   S    
C192  C193  A    
C403  H182  S    
C113  O39   A    
C37   C53   A    
C399  H179  S    
C153  C168  A    
C298  H79   S    
C383  C388  A    
C379  H162  S    
C115  O37   A    
C130  C162  A    
C285  C286  A    
C462  C463  A    
C239  O59   S    
C295  H76   S    
C23   C39   A    
C441  C442  A    
C409  H187  S    
C445  C446  A    
C264  C280  A    
C46   C407  S    
C145  C208  A    
C185  C200  A    
C204  C230  A    
C422  C423  A    
C152  C201  A    
C456  C457  A    
C107  O45   A    
C143  H55   S    
C365  C366  A    
C16   C264  A    
C337  H111  S    
O36   Zn14  S    
O30   Zn12  S    
O4    Zn8   S    
O2    Zn15  S    
C183  H1    S    
C111  C221  S    
C127  H39   S    
C468  C469  A    
O2    Zn2   S    
C332  H107  S    
C395  C396  A    
C110  O26   A    
C265  C305  S    
C306  C307  A    
C62   C278  A    
C398  C399  A    
C13   C261  A    
C174  C179  A    
C7    O19   A    
C380  C381  A    
C110  O52   A    
O26   Zn11  S    
