data_mof_unit_10486.cif
_audit_creation_date              2012-12-10T19:44:38-0500
_audit_creation_method            fapswitch 2.2
_symmetry_space_group_name_H-M    P1
_symmetry_Int_Tables_number       1
_space_group_crystal_system       triclinic
_cell_length_a                    18.396712
_cell_length_b                    18.372221
_cell_length_c                    34.40387
_cell_angle_alpha                 90.000017
_cell_angle_beta                  90.00002
_cell_angle_gamma                 89.95772
_cell_volume                      11628.1078231

loop_
_atom_site_label
_atom_site_type_symbol
_atom_type_description
_atom_site_fract_x
_atom_site_fract_y
_atom_site_fract_z
_atom_type_partial_charge
C1    C     C_R   0.000000 0.500000 0.894181 1.007366
C2    C     C_R   0.433656 0.005757 0.290238 -0.046079
C3    C     C_R   0.296743 0.811670 0.997150 -0.257887
C4    C     C_R   0.693431 0.198497 0.499977 -0.292400
C5    C     C_R   0.801508 0.693446 0.499927 -0.292003
C6    C     C_R   0.306569 0.801503 0.499977 -0.292401
C7    C     C_R   0.198492 0.306554 0.499927 -0.291993
C8    C     C_R   0.311686 0.203523 0.497421 -0.257639
C9    C     C_R   0.203385 0.688452 0.497516 -0.258120
C10   C     C_R   0.688314 0.796477 0.497421 -0.257650
C11   C     C_R   0.796615 0.311548 0.497516 -0.258117
C12   C     C_R   0.196518 0.751284 0.030132 0.305022
C13   C     C_R   0.994391 0.433562 0.290240 -0.045963
C14   C     C_R   0.252205 0.199314 0.031693 0.311065
C15   C     C_R   0.803482 0.248716 0.030132 0.305022
C16   C     C_R   0.747795 0.800686 0.031693 0.311067
C17   C     C_R   0.811701 0.759259 0.026760 0.272716
C18   C     C_R   0.761788 0.185286 0.024319 0.277084
C19   C     C_R   0.188300 0.240741 0.026760 0.272717
C20   C     C_R   0.238212 0.814714 0.024318 0.277084
C21   C     C_R   0.697529 0.249901 0.530895 0.309428
C22   C     C_R   0.750061 0.697411 0.530804 0.302100
C23   C     C_R   0.302471 0.750099 0.530895 0.309426
C24   C     C_R   0.566344 0.994243 0.290238 -0.046079
C25   C     C_R   0.249940 0.302589 0.530804 0.302075
C26   C     C_R   0.313463 0.260842 0.525432 0.273983
C27   C     C_R   0.260615 0.686613 0.525567 0.270889
C28   C     C_R   0.686538 0.739158 0.525432 0.273996
C29   C     C_R   0.739385 0.313387 0.525567 0.270885
C30   C     C_3   0.346590 0.711372 0.947870 0.132058
C31   C     C_3   0.280155 0.336498 0.941392 0.139239
C32   C     C_3   0.653410 0.288628 0.947870 0.132070
C33   C     C_3   0.719844 0.663502 0.941392 0.139241
C34   C     C_3   0.664979 0.727035 0.938572 0.241864
C35   C     C_R   0.500000 1.000000 0.769959 -0.092603
C36   C     C_3   0.716091 0.344024 0.944164 0.208145
C37   C     C_3   0.335020 0.272964 0.938572 0.241860
C38   C     C_3   0.283909 0.655976 0.944164 0.208150
C39   C     C_3   0.841746 0.213445 0.445497 0.127489
C40   C     C_3   0.786258 0.841867 0.445459 0.127147
C41   C     C_3   0.158253 0.786555 0.445497 0.127491
C42   C     C_3   0.213741 0.158133 0.445459 0.127148
C43   C     C_3   0.160116 0.222359 0.441252 0.232852
C44   C     C_3   0.222495 0.840041 0.441265 0.233079
C45   C     C_3   0.839884 0.777641 0.441252 0.232851
C46   C     C_R   1.000000 0.500000 0.770226 -0.092553
C47   C     C_3   0.777505 0.159959 0.441265 0.233081
C48   C     C_R   0.493502 0.933942 0.830809 0.573027
C49   C     C_R   0.964946 0.443890 0.831336 0.558515
C50   C     C_R   0.506499 0.066058 0.830809 0.573022
C51   C     C_R   0.035054 0.556110 0.831336 0.558515
C52   C     C_R   0.994288 0.433884 0.330773 0.576794
C53   C     C_R   0.566026 0.994176 0.330772 0.576784
C54   C     C_R   0.005711 0.566116 0.330773 0.576791
C55   C     C_R   0.433974 0.005824 0.330772 0.576784
C56   C     C_R   0.500000 1.000000 0.851341 -0.335861
C57   C     C_R   1.000000 0.500000 0.269928 -0.094858
C58   C     C_R   1.000000 0.500000 0.851652 -0.289343
C59   C     C_R   1.000000 0.500000 0.351319 -0.338919
C60   C     C_R   0.500000 1.000000 0.351323 -0.338418
C61   C     C_R   0.500000 1.000000 0.269925 -0.095034
C62   C     C_R   0.512593 0.132047 0.769647 -0.073206
C63   C     C_R   0.074519 0.609541 0.769935 -0.068055
C64   C     C_R   0.487408 0.867953 0.769647 -0.073205
C65   C     C_R   0.500000 1.000000 0.894056 0.947016
C66   C     C_R   0.925481 0.390459 0.769935 -0.068055
C67   C     C_R   0.011102 0.632178 0.269618 -0.069778
C68   C     C_R   0.368010 0.011431 0.269615 -0.069712
C69   C     C_R   0.988898 0.367822 0.269618 -0.069777
C70   C     C_R   0.631990 0.988569 0.269615 -0.069712
C71   C     C_R   0.011045 0.632115 0.229156 -0.194479
C72   C     C_R   0.368075 0.011411 0.229152 -0.195787
C73   C     C_R   0.988955 0.367885 0.229156 -0.194482
C74   C     C_R   0.631924 0.988588 0.229152 -0.195786
C75   C     C_R   0.512527 0.131982 0.729182 -0.193839
C76   C     C_R   0.500000 1.000000 0.394060 0.942700
C77   C     C_R   0.076195 0.608298 0.729376 -0.196325
C78   C     C_R   0.487474 0.868018 0.729182 -0.193842
C79   C     C_R   0.923805 0.391702 0.729375 -0.196324
C80   C     C_R   0.005523 0.566406 0.208796 0.095687
C81   C     C_R   0.433691 0.005718 0.208792 0.095858
C82   C     C_R   0.994476 0.433594 0.208796 0.095687
C83   C     C_R   0.566309 0.994281 0.208792 0.095857
C84   C     C_R   0.506266 0.066339 0.708820 0.095113
C85   C     C_R   0.039030 0.553956 0.708865 0.110125
C86   C     C_R   0.493735 0.933661 0.708820 0.095114
C87   C     C_R   1.000000 0.500000 0.394048 0.944470
C88   C     C_R   0.960970 0.446044 0.708865 0.110125
C89   C     C_R   1.000000 0.500000 0.229172 0.147718
C90   C     C_R   0.500000 1.000000 0.229168 0.148213
C91   C     C_R   0.500000 1.000000 0.729198 0.147638
C92   C     C_R   1.000000 0.500000 0.729317 0.138969
C93   C     C_R   0.005450 0.565970 0.168350 -0.195216
C94   C     C_R   0.434127 0.005663 0.168344 -0.196868
C95   C     C_R   0.994549 0.434030 0.168350 -0.195215
C96   C     C_R   0.565873 0.994337 0.168344 -0.196868
C97   C     C_R   0.506183 0.065904 0.668368 -0.196428
C98   C     C_R   0.506366 0.066378 0.790272 -0.047210
C99   C     C_R   0.039947 0.552676 0.668235 -0.198054
C100  C     C_R   0.493817 0.934096 0.668368 -0.196428
C101  C     C_R   0.960053 0.447324 0.668235 -0.198053
C102  C     C_R   1.000000 0.500000 0.148095 -0.059798
C103  C     C_R   0.500000 1.000000 0.148086 -0.059067
C104  C     C_R   0.500000 1.000000 0.648108 -0.059999
C105  C     C_R   1.000000 0.500000 0.648046 -0.016361
C106  C     C_R   1.000000 0.500000 0.105757 0.834084
C107  C     C_R   0.500000 1.000000 0.105743 0.836449
C108  C     C_R   0.500000 0.000000 0.605761 0.835586
C109  C     C_R   0.036856 0.555534 0.790640 -0.029628
C110  C     C_R   1.000000 0.500000 0.605726 0.812285
C111  C     C_R   0.861581 0.641752 0.999271 0.868597
C112  C     C_R   0.358407 0.861542 0.999219 0.864247
C113  C     C_R   0.138418 0.358247 0.999271 0.868597
C114  C     C_R   0.641593 0.138458 0.999219 0.864247
C115  C     C_R   0.140754 0.639411 0.000638 0.909382
C116  C     C_R   0.639495 0.859465 0.000536 0.912103
C117  C     C_R   0.859246 0.360589 0.000638 0.909383
C118  C     C_R   0.360505 0.140535 0.000536 0.912103
C119  C     C_R   0.361495 0.141625 0.499294 0.862797
C120  C     C_R   0.493635 0.933622 0.790272 -0.047212
C121  C     C_R   0.858418 0.361437 0.499309 0.860333
C122  C     C_R   0.638505 0.858375 0.499294 0.862797
C123  C     C_R   0.141582 0.638563 0.499309 0.860333
C124  C     C_R   0.640537 0.139536 0.500570 0.905892
C125  C     C_R   0.139511 0.359438 0.500556 0.903057
C126  C     C_R   0.359463 0.860464 0.500570 0.905893
C127  C     C_R   0.860489 0.640562 0.500556 0.903059
C128  C     C_R   0.238129 0.708170 0.967182 -0.018708
C129  C     C_R   0.286627 0.232266 0.965962 -0.039478
C130  C     C_R   0.761871 0.291830 0.967182 -0.018708
C131  C     C_R   0.963144 0.444466 0.790640 -0.029627
C132  C     C_R   0.713373 0.767733 0.965962 -0.039480
C133  C     C_R   0.764333 0.713051 0.966370 -0.007200
C134  C     C_R   0.707445 0.240609 0.967868 -0.008602
C135  C     C_R   0.235666 0.286949 0.966370 -0.007201
C136  C     C_R   0.292554 0.759391 0.967868 -0.008598
C137  C     C_R   0.734937 0.210902 0.466531 -0.034400
C138  C     C_R   0.789057 0.734922 0.466461 -0.033481
C139  C     C_R   0.265063 0.789098 0.466530 -0.034399
C140  C     C_R   0.210942 0.265077 0.466461 -0.033483
C141  C     C_R   0.261473 0.209959 0.467231 -0.005191
C142  C     C_R   0.005608 0.566438 0.290240 -0.045961
C143  C     C_R   0.209918 0.738679 0.467321 -0.004841
C144  C     C_R   0.738526 0.790041 0.467231 -0.005191
C145  C     C_R   0.790082 0.261321 0.467321 -0.004842
C146  C     C_R   0.194265 0.697978 0.000067 -0.294492
C147  C     C_R   0.301640 0.193478 0.000013 -0.290224
C148  C     C_R   0.805735 0.302022 0.000067 -0.294492
C149  C     C_R   0.698360 0.806522 0.000013 -0.290225
C150  C     C_R   0.812039 0.703985 0.997523 -0.256097
C151  C     C_R   0.703257 0.188330 0.997150 -0.257887
C152  C     C_R   0.187961 0.296015 0.997523 -0.256097
F1    F     F_    0.486545 0.869735 0.850010 -0.562274
F2    F     F_    0.934931 0.387563 0.851144 -0.598374
F3    F     F_    0.513456 0.130265 0.850010 -0.562287
F4    F     F_    0.065069 0.612437 0.851144 -0.598374
F5    F     F_    0.988200 0.369589 0.349946 -0.562297
F6    F     F_    0.630239 0.988011 0.349939 -0.562184
F7    F     F_    0.011800 0.630410 0.349946 -0.562308
F8    F     F_    0.369761 0.011989 0.349939 -0.562184
H1    H     H_    0.389025 0.692160 0.968492 0.035730
H2    H     H_    0.808123 0.884584 0.465156 0.031422
H3    H     H_    0.115613 0.808636 0.465166 0.030925
H4    H     H_    0.191876 0.115416 0.465156 0.031425
H5    H     H_    0.106965 0.212052 0.455559 0.046592
H6    H     H_    0.212267 0.893327 0.455530 0.046281
H7    H     H_    0.893034 0.787948 0.455559 0.046592
H8    H     H_    0.787733 0.106673 0.455530 0.046280
H9    H     H_    0.517496 0.183612 0.784695 0.218035
H10   H     H_    0.103350 0.652460 0.785034 0.218819
H11   H     H_    0.482505 0.816388 0.784695 0.218038
H12   H     H_    0.302474 0.382593 0.958603 0.033945
H13   H     H_    0.896650 0.347540 0.785034 0.218819
H14   H     H_    0.015426 0.683795 0.284667 0.215289
H15   H     H_    0.316464 0.015878 0.284663 0.215493
H16   H     H_    0.984574 0.316205 0.284667 0.215291
H17   H     H_    0.683535 0.984122 0.284663 0.215493
H18   H     H_    0.015326 0.683429 0.213788 0.180395
H19   H     H_    0.316835 0.015844 0.213785 0.180713
H20   H     H_    0.984674 0.316571 0.213788 0.180395
H21   H     H_    0.683165 0.984156 0.213785 0.180714
H22   H     H_    0.517383 0.183245 0.713814 0.181800
H23   H     H_    0.610974 0.307840 0.968492 0.035735
H24   H     H_    0.106145 0.650161 0.714033 0.173409
H25   H     H_    0.482618 0.816755 0.713814 0.181801
H26   H     H_    0.893855 0.349839 0.714033 0.173409
H27   H     H_    0.009836 0.617020 0.152694 0.208040
H28   H     H_    0.383152 0.010225 0.152690 0.207641
H29   H     H_    0.990164 0.382980 0.152694 0.208040
H30   H     H_    0.616848 0.989775 0.152690 0.207641
H31   H     H_    0.511158 0.116898 0.652710 0.207963
H32   H     H_    0.070299 0.593461 0.652236 0.167893
H33   H     H_    0.488843 0.883102 0.652710 0.207963
H34   H     H_    0.697526 0.617406 0.958604 0.033945
H35   H     H_    0.929701 0.406539 0.652236 0.167893
H36   H     H_    0.185291 0.769691 0.136361 0.390510
H37   H     H_    0.245952 0.197165 0.138457 0.390202
H38   H     H_    0.814706 0.230314 0.136361 0.390509
H39   H     H_    0.754048 0.802834 0.138457 0.390202
H40   H     H_    0.881068 0.903452 0.045015 0.377460
H41   H     H_    0.906822 0.113965 0.034514 0.371652
H42   H     H_    0.118933 0.096548 0.045015 0.377460
H43   H     H_    0.093177 0.886035 0.034513 0.371652
H44   H     H_    0.690179 0.262588 0.637460 0.389365
H45   H     H_    0.611623 0.713778 0.951882 0.043525
H46   H     H_    0.737045 0.690343 0.637341 0.396626
H47   H     H_    0.309819 0.737414 0.637460 0.389364
H48   H     H_    0.262965 0.309665 0.637340 0.396632
H49   H     H_    0.384011 0.405693 0.539125 0.373109
H50   H     H_    0.405188 0.615526 0.539505 0.373273
H51   H     H_    0.615965 0.594305 0.539124 0.373112
H52   H     H_    0.594812 0.384474 0.539505 0.373275
H53   H     H_    0.496063 0.736008 0.925228 0.336427
H54   H     H_    0.244954 0.477984 0.919103 0.355708
H55   H     H_    0.503934 0.263994 0.925222 0.336438
H56   H     H_    0.705618 0.395676 0.960061 0.053331
H57   H     H_    0.755044 0.522015 0.919103 0.355706
H58   H     H_    0.598114 0.759977 0.839443 0.402169
H59   H     H_    0.730852 0.426204 0.847188 0.403343
H60   H     H_    0.401899 0.240013 0.839447 0.402177
H61   H     H_    0.269149 0.573794 0.847188 0.403343
H62   H     H_    0.989962 0.235909 0.424243 0.337981
H63   H     H_    0.763475 0.990178 0.424279 0.337896
H64   H     H_    0.010038 0.764092 0.424243 0.337981
H65   H     H_    0.236524 0.009820 0.424277 0.337899
H66   H     H_    0.088888 0.246906 0.342281 0.404811
H67   H     H_    0.388377 0.286221 0.951881 0.043527
H68   H     H_    0.247263 0.911079 0.342264 0.404765
H69   H     H_    0.911125 0.753086 0.342285 0.404819
H70   H     H_    0.752736 0.088921 0.342264 0.404766
H71   H     H_    0.294382 0.604324 0.960061 0.053332
H72   H     H_    0.884387 0.191364 0.465166 0.030924
O1    O     O_3   1.000000 0.500000 0.999990 -0.571570
O2    O     O_R   1.000000 0.560740 0.412560 -0.527758
O3    O     O_3   0.623611 0.389588 0.563684 -0.413024
O4    O     O_2   0.393576 0.697138 0.872505 -0.178380
O5    O     O_2   0.342269 0.815281 0.891336 -0.183185
O6    O     O_3   0.470421 0.780218 0.916177 -0.400153
O7    O     O_2   0.283441 0.369809 0.863864 -0.184428
O8    O     O_2   0.169294 0.320107 0.889615 -0.198209
O9    O     O_3   0.203883 0.452881 0.906233 -0.451860
O10   O     O_2   0.606425 0.302860 0.872505 -0.178389
O11   O     O_2   0.657731 0.184717 0.891336 -0.183183
O12   O     O_3   0.529579 0.219783 0.916177 -0.400168
O13   O     O_R   0.439260 1.000000 0.412560 -0.527813
O14   O     O_2   0.716558 0.630189 0.863864 -0.184439
O15   O     O_2   0.830704 0.679891 0.889615 -0.198209
O16   O     O_3   0.796116 0.547117 0.906233 -0.451858
O17   O     O_2   0.621460 0.848347 0.900597 -0.244634
O18   O     O_2   0.729692 0.789165 0.875078 -0.200475
O19   O     O_3   0.603840 0.728276 0.862533 -0.461047
O20   O     O_2   0.828338 0.394210 0.901979 -0.199028
O21   O     O_2   0.766503 0.288203 0.875549 -0.184420
O22   O     O_3   0.702225 0.414570 0.870768 -0.496095
O23   O     O_2   0.378539 0.151651 0.900597 -0.244648
O24   O     O_R   1.000000 0.439260 0.412560 -0.527759
O25   O     O_2   0.270306 0.210833 0.875078 -0.200460
O26   O     O_3   0.396158 0.271723 0.862533 -0.461061
O27   O     O_2   0.171662 0.605789 0.901979 -0.199030
O28   O     O_2   0.233498 0.711796 0.875549 -0.184421
O29   O     O_3   0.297776 0.585429 0.870769 -0.496097
O30   O     O_2   0.885603 0.203063 0.369609 -0.183381
O31   O     O_2   0.838772 0.321475 0.391261 -0.186888
O32   O     O_3   0.966453 0.280673 0.414315 -0.397255
O33   O     O_2   0.796704 0.885834 0.369584 -0.183304
O34   O     O_2   0.678523 0.838770 0.391143 -0.186985
O35   O     O_R   1.000000 0.560680 0.087420 -0.615902
O36   O     O_3   0.718876 0.966647 0.414258 -0.396722
O37   O     O_2   0.114396 0.796938 0.369609 -0.183386
O38   O     O_2   0.161227 0.678525 0.391260 -0.186886
O39   O     O_3   0.033546 0.719327 0.414315 -0.397265
O40   O     O_2   0.203296 0.114166 0.369584 -0.183315
O41   O     O_2   0.321477 0.161229 0.391143 -0.186984
O42   O     O_3   0.281123 0.033353 0.414258 -0.396724
O43   O     O_2   0.118967 0.340544 0.399946 -0.235981
O44   O     O_2   0.223955 0.274631 0.375107 -0.206064
O45   O     O_3   0.095587 0.217072 0.365998 -0.470787
O46   O     O_R   0.439320 1.000000 0.087420 -0.616494
O47   O     O_2   0.340624 0.880771 0.399952 -0.236311
O48   O     O_2   0.274667 0.775752 0.375194 -0.205908
O49   O     O_3   0.217377 0.904425 0.365948 -0.470709
O50   O     O_2   0.881032 0.659456 0.399946 -0.235991
O51   O     O_2   0.776045 0.725369 0.375107 -0.206052
O52   O     O_3   0.904412 0.782928 0.365998 -0.470792
O53   O     O_2   0.659376 0.119229 0.399952 -0.236311
O54   O     O_2   0.725332 0.224248 0.375194 -0.205909
O55   O     O_3   0.782623 0.095575 0.365948 -0.470707
O56   O     O_R   1.000000 0.439320 0.087420 -0.615902
O57   O     O_R   0.560680 1.000000 0.087420 -0.616494
O58   O     O_R   0.500000 0.060680 0.587420 -0.615816
O59   O     O_R   0.939320 0.500000 0.587420 -0.603030
O60   O     O_R   0.500000 0.939320 0.587420 -0.615816
O61   O     O_3   0.500000 1.000000 0.999990 -0.576587
O62   O     O_R   0.060680 0.500000 0.587420 -0.603029
O63   O     O_R   0.853840 0.585430 0.977070 -0.629497
O64   O     O_R   0.414570 0.853840 0.977070 -0.613863
O65   O     O_R   0.146160 0.414570 0.977070 -0.629498
O66   O     O_R   0.585430 0.146160 0.977070 -0.613857
O67   O     O_R   0.146160 0.585430 0.977070 -0.633176
O68   O     O_R   0.585430 0.853840 0.977070 -0.630606
O69   O     O_R   0.853840 0.414570 0.977070 -0.633176
O70   O     O_R   0.414570 0.146160 0.977070 -0.630603
O71   O     O_R   0.353840 0.085430 0.477070 -0.615789
O72   O     O_3   0.500000 0.000000 0.499990 -0.575804
O73   O     O_R   0.914570 0.353840 0.477070 -0.615388
O74   O     O_R   0.646160 0.914570 0.477070 -0.615791
O75   O     O_R   0.085430 0.646160 0.477070 -0.615387
O76   O     O_R   0.646160 0.085430 0.477070 -0.631374
O77   O     O_R   0.085430 0.353840 0.477070 -0.631361
O78   O     O_R   0.353840 0.914570 0.477070 -0.631373
O79   O     O_R   0.914570 0.646160 0.477070 -0.631360
O80   O     O_R   0.085450 0.353820 0.022910 -0.573783
O81   O     O_R   0.646180 0.085450 0.022910 -0.576762
O82   O     O_R   0.914550 0.646180 0.022910 -0.573783
O83   O     O_3   1.000000 0.500000 0.499990 -0.577281
O84   O     O_R   0.353820 0.914550 0.022910 -0.576761
O85   O     O_R   0.914550 0.353820 0.022910 -0.560071
O86   O     O_R   0.353820 0.085450 0.022910 -0.559815
O87   O     O_R   0.085450 0.646180 0.022910 -0.560071
O88   O     O_R   0.646180 0.914550 0.022910 -0.559814
O89   O     O_R   0.585450 0.853820 0.522910 -0.575887
O90   O     O_R   0.146180 0.585450 0.522910 -0.577405
O91   O     O_R   0.414550 0.146180 0.522910 -0.575889
O92   O     O_R   0.853820 0.414550 0.522910 -0.577406
O93   O     O_R   0.414550 0.853820 0.522910 -0.559658
O94   O     O_R   0.060740 0.500000 0.912560 -0.551607
O95   O     O_R   0.853820 0.585450 0.522910 -0.559570
O96   O     O_R   0.585450 0.146180 0.522910 -0.559658
O97   O     O_R   0.146180 0.414550 0.522910 -0.559570
O98   O     O_2   0.084255 0.750391 0.080681 -0.175381
O99   O     O_2   0.174136 0.652620 0.086962 -0.331877
O100  O     O_3   0.209599 0.780606 0.111343 -0.480934
O101  O     O_2   0.259129 0.091293 0.084766 -0.188164
O102  O     O_2   0.357163 0.181423 0.085592 -0.336110
O103  O     O_3   0.232271 0.219432 0.113274 -0.481101
O104  O     O_2   0.915745 0.249610 0.080681 -0.175379
O105  O     O_R   0.500000 0.060740 0.912560 -0.526599
O106  O     O_2   0.825864 0.347380 0.086962 -0.331880
O107  O     O_3   0.790400 0.219395 0.111343 -0.480934
O108  O     O_2   0.740871 0.908707 0.084766 -0.188162
O109  O     O_2   0.642837 0.818577 0.085592 -0.336112
O110  O     O_3   0.767729 0.780568 0.113274 -0.481101
O111  O     O_2   0.906079 0.737133 0.085692 -0.175532
O112  O     O_2   0.956263 0.784328 0.024797 -0.274574
O113  O     O_3   0.884638 0.872728 0.068606 -0.413552
O114  O     O_2   0.747015 0.085131 0.081231 -0.164161
O115  O     O_2   0.784351 0.040556 0.017250 -0.289128
O116  O     O_R   0.939260 0.500000 0.912560 -0.551607
O117  O     O_3   0.879742 0.107177 0.059137 -0.420131
O118  O     O_2   0.093921 0.262867 0.085692 -0.175533
O119  O     O_2   0.043737 0.215672 0.024797 -0.274574
O120  O     O_3   0.115362 0.127272 0.068606 -0.413553
O121  O     O_2   0.252984 0.914870 0.081231 -0.164160
O122  O     O_2   0.215648 0.959445 0.017250 -0.289129
O123  O     O_3   0.120258 0.892824 0.059137 -0.420134
O124  O     O_2   0.587075 0.246353 0.582519 -0.178813
O125  O     O_2   0.677056 0.148249 0.586400 -0.335839
O126  O     O_3   0.713537 0.274896 0.612367 -0.486770
O127  O     O_R   0.500000 0.939260 0.912560 -0.526601
O128  O     O_2   0.753736 0.587005 0.582524 -0.165197
O129  O     O_2   0.851518 0.677192 0.586375 -0.331071
O130  O     O_3   0.724897 0.713728 0.612224 -0.480253
O131  O     O_2   0.412925 0.753647 0.582519 -0.178813
O132  O     O_2   0.322944 0.851751 0.586400 -0.335840
O133  O     O_3   0.286463 0.725104 0.612367 -0.486770
O134  O     O_2   0.246264 0.412995 0.582524 -0.165222
O135  O     O_2   0.148482 0.322808 0.586375 -0.331055
O136  O     O_3   0.275104 0.286272 0.612224 -0.480254
O137  O     O_2   0.411051 0.242809 0.583274 -0.166832
O138  O     O_R   0.560740 1.000000 0.412560 -0.527813
O139  O     O_2   0.458111 0.284455 0.520564 -0.285600
O140  O     O_3   0.389379 0.376990 0.563334 -0.414226
O141  O     O_2   0.242268 0.589110 0.583456 -0.162974
O142  O     O_2   0.284134 0.541706 0.520841 -0.285591
O143  O     O_3   0.376389 0.610412 0.563684 -0.413026
O144  O     O_2   0.588949 0.757192 0.583274 -0.166831
O145  O     O_2   0.541890 0.715545 0.520565 -0.285615
O146  O     O_3   0.610623 0.623011 0.563335 -0.414227
O147  O     O_2   0.757732 0.410890 0.583456 -0.162975
O148  O     O_2   0.715866 0.458294 0.520841 -0.285583
S1    S     S_3+6 0.163735 0.732057 0.077981 0.092773
S2    S     S_3+6 0.771766 0.666475 0.578698 0.100953
S3    S     S_3+6 0.333556 0.771854 0.578757 0.088598
S4    S     S_3+6 0.228234 0.333525 0.578698 0.100945
S5    S     S_3+6 0.395537 0.289986 0.548550 0.146461
S6    S     S_3+6 0.289565 0.604429 0.548786 0.148057
S7    S     S_3+6 0.604464 0.710014 0.548551 0.146459
S8    S     S_3+6 0.710435 0.395571 0.548786 0.148059
S9    S     S_3+6 0.386515 0.751350 0.904942 0.170958
S10   S     S_3+6 0.233562 0.367845 0.898392 0.138202
S11   S     S_3+6 0.613485 0.248649 0.904942 0.170951
S12   S     S_3+6 0.276944 0.170544 0.079556 0.087453
S13   S     S_3+6 0.766437 0.632154 0.898393 0.138200
S14   S     S_3+6 0.656620 0.775946 0.893249 0.131775
S15   S     S_3+6 0.755706 0.358732 0.896909 0.126497
S16   S     S_3+6 0.343379 0.224052 0.893249 0.131771
S17   S     S_3+6 0.244295 0.641267 0.896909 0.126496
S18   S     S_3+6 0.881389 0.255258 0.403120 0.168569
S19   S     S_3+6 0.744507 0.881519 0.403057 0.168625
S20   S     S_3+6 0.118610 0.744742 0.403120 0.168564
S21   S     S_3+6 0.255493 0.118481 0.403057 0.168622
S22   S     S_3+6 0.151270 0.266205 0.394510 0.127603
S23   S     S_3+6 0.836265 0.267944 0.077981 0.092773
S24   S     S_3+6 0.266340 0.848622 0.394526 0.127462
S25   S     S_3+6 0.848729 0.733795 0.394510 0.127604
S26   S     S_3+6 0.733659 0.151378 0.394526 0.127463
S27   S     S_3+6 0.723056 0.829456 0.079556 0.087454
S28   S     S_3+6 0.892151 0.787071 0.051888 0.150035
S29   S     S_3+6 0.791947 0.101967 0.045870 0.142839
S30   S     S_3+6 0.107849 0.212929 0.051889 0.150035
S31   S     S_3+6 0.208052 0.898033 0.045870 0.142838
S32   S     S_3+6 0.666443 0.228146 0.578757 0.088598
Zn1   Zn    Zn3+2 1.000000 0.586730 0.032740 1.110958
Zn2   Zn    Zn3+2 0.500000 0.913250 0.967240 1.092939
Zn3   Zn    Zn3+2 0.086750 0.500000 0.967240 1.081758
Zn4   Zn    Zn3+2 0.500000 0.086750 0.967240 1.092943
Zn5   Zn    Zn3+2 0.413250 0.000000 0.467240 1.088656
Zn6   Zn    Zn3+2 1.000000 0.413250 0.467240 1.087525
Zn7   Zn    Zn3+2 0.586750 0.000000 0.467240 1.088654
Zn8   Zn    Zn3+2 1.000000 0.586750 0.467240 1.087525
Zn9   Zn    Zn3+2 0.413270 1.000000 0.032740 1.108142
Zn10  Zn    Zn3+2 1.000000 0.413270 0.032740 1.110958
Zn11  Zn    Zn3+2 0.586730 1.000000 0.032740 1.108142
Zn12  Zn    Zn3+2 0.500000 0.086730 0.532740 1.106950
Zn13  Zn    Zn3+2 0.913270 0.500000 0.532740 1.107617
Zn14  Zn    Zn3+2 0.500000 0.913270 0.532740 1.106950
Zn15  Zn    Zn3+2 0.086730 0.500000 0.532740 1.107616
Zn16  Zn    Zn3+2 0.913250 0.500000 0.967240 1.081759

loop_
_geom_bond_atom_site_label_1
_geom_bond_atom_site_label_2
_ccdc_geom_bond_type
O10   S11   D    
C111  C150  S    
C24   C61   A    
H59   O22   S    
O144  S7    D    
O68   Zn2   S    
C73   C82   A    
C47   S26   S    
C74   C83   A    
H46   O130  S    
O42   S21   S    
C9    C143  A    
C48   C120  A    
C74   H21   S    
C66   C79   A    
C49   C131  A    
O35   Zn1   S    
C106  O35   A    
C26   S5    S    
O137  S5    D    
O129  S2    D    
O79   Zn8   S    
C41   C143  S    
C1    O116  A    
C2    C55   A    
C38   S17   S    
O77   Zn6   S    
C17   S28   S    
C31   H12   S    
C65   O127  A    
C100  C104  A    
C8    C26   A    
C118  O70   A    
C115  O67   A    
H37   O103  S    
O53   S26   D    
O65   Zn3   S    
O46   Zn9   S    
C85   C92   A    
O104  S23   D    
O140  S5    S    
C76   O13   A    
O17   S14   D    
C70   C74   A    
C16   C149  A    
C84   C91   A    
O97   Zn15  S    
C95   C102  A    
H41   O117  S    
O124  S32   D    
C51   C109  A    
C43   S22   S    
O112  S28   D    
C125  O97   A    
O57   Zn11  S    
C114  O81   A    
O145  S7    D    
O58   Zn12  S    
O33   S19   D    
C113  O80   A    
C140  C141  A    
C40   S19   S    
O72   Zn7   S    
C19   S30   S    
O125  S32   D    
C21   C29   A    
C60   C76   S    
C31   C37   S    
O3    S8    S    
O99   S1    D    
O61   Zn2   S    
O41   S21   D    
C40   H2    S    
O142  S6    D    
C20   S31   S    
C36   C130  S    
C124  O96   A    
C121  O92   A    
O29   S17   S    
O72   Zn12  S    
C3    C112  S    
C68   C72   A    
C12   C20   A    
O73   Zn6   S    
O11   S11   D    
O107  S23   S    
C81   C90   A    
C87   O24   A    
C33   H34   S    
C44   C139  S    
C30   C136  S    
O59   Zn13  S    
C62   C75   A    
C125  O77   A    
C46   C131  A    
C39   C47   S    
O139  S5    D    
C121  O73   A    
O16   S13   S    
O74   Zn7   S    
C14   C19   A    
C10   C122  S    
C37   S16   S    
C38   C128  S    
O127  Zn2   S    
C38   H71   S    
H39   O110  S    
C64   C120  A    
O119  S30   D    
C64   H11   S    
O110  S27   S    
O21   S15   D    
O138  Zn7   S    
C134  C151  A    
C9    C123  S    
C37   C129  S    
O49   S24   S    
O132  S3    D    
C59   C87   S    
C129  C147  A    
O39   S20   S    
O86   Zn9   S    
O128  S2    D    
C41   S20   S    
C103  C107  S    
C12   S1    S    
C80   C93   A    
O31   S18   D    
H68   O49   S    
C15   C18   A    
C110  O59   A    
O56   Zn10  S    
O14   S13   D    
C65   O105  A    
C39   S18   S    
O106  S23   D    
C24   C70   A    
O62   Zn15  S    
C76   O138  A    
C118  O86   A    
C115  C146  S    
C30   C38   S    
H55   O12   S    
C82   C89   A    
C57   C142  A    
C117  C148  S    
C32   C36   S    
H49   O140  S    
C118  C147  S    
C94   H28   S    
O115  S29   D    
C2    C68   A    
C15   C148  A    
C42   H4    S    
C75   C84   A    
C13   C57   A    
C67   H14   S    
C135  C152  A    
O15   S13   D    
C4    C124  S    
C23   S3    S    
C3    C136  A    
C96   H30   S    
C6    C139  A    
O13   Zn5   S    
C4    C137  A    
C129  C135  A    
C139  C143  A    
O120  S30   S    
H70   O55   S    
C8    C141  A    
C28   S7    S    
C77   C85   A    
O51   S25   D    
C15   S23   S    
C35   C120  A    
C14   S12   S    
C116  C149  S    
C44   S24   S    
C53   C60   A    
C19   C152  A    
C45   S25   S    
C54   C59   A    
C34   H45   S    
O38   S20   D    
C50   C98   A    
C111  O63   A    
H53   O6    S    
O48   S24   D    
O55   S26   S    
C63   H10   S    
C25   C26   A    
C14   C147  A    
C50   C56   A    
O8    S10   D    
C63   C109  A    
H60   O26   S    
C85   C99   A    
C50   F3    S    
O118  S30   D    
O70   Zn4   S    
C42   C141  S    
C43   C140  S    
C10   C144  A    
O114  S29   D    
O141  S6    D    
H63   O36   S    
O101  S12   D    
C48   F1    S    
C119  O91   A    
H44   O126  S    
O44   S22   D    
C22   S2    S    
H42   O120  S    
C61   C90   A    
C66   C131  A    
O6    S9    S    
C113  O65   A    
C82   C95   A    
C64   C78   A    
C133  C150  A    
C1    O94   A    
C33   S13   S    
O32   S18   S    
C70   H17   S    
O47   S24   D    
O89   Zn14  S    
O26   S16   S    
O45   S22   S    
H43   O123  S    
O131  S3    D    
C39   H72   S    
C138  C144  A    
C36   H56   S    
C32   C134  S    
C81   C94   A    
C108  O60   A    
C128  C146  A    
C13   C69   A    
C83   C96   A    
C126  O93   A    
C45   C138  S    
O93   Zn14  S    
C126  O78   A    
C124  O76   A    
C122  O89   A    
C97   H31   S    
O1    Zn10  S    
C122  O74   A    
C75   H22   S    
O102  S12   D    
C8    C119  S    
O91   Zn12  S    
C132  C149  A    
C79   H26   S    
O147  S8    D    
H36   O100  S    
H58   O19   S    
C32   H23   S    
C17   C150  A    
C30   S9    S    
C115  O87   A    
C116  O88   A    
C130  C134  A    
C100  H33   S    
O103  S12   S    
C110  O62   A    
C53   F6    S    
C57   C89   A    
C106  O56   A    
C84   C97   A    
C71   H18   S    
C137  C145  A    
C105  C110  S    
O88   Zn11  S    
H61   O29   S    
C86   C91   A    
C128  C136  A    
H51   O146  S    
C7    C140  A    
C46   C92   A    
O5    S9    D    
O143  S6    S    
O148  S8    D    
O85   Zn10  S    
O37   S20   D    
C80   C89   A    
O83   Zn8   S    
C73   H20   S    
O133  S3    S    
O113  S28   S    
C16   C17   A    
C69   C73   A    
C35   C98   A    
C86   C100  A    
C72   C81   A    
C2    C61   A    
O24   Zn6   S    
O105  Zn4   S    
C22   C28   A    
C55   C60   A    
O100  S1    S    
O96   Zn12  S    
C113  C152  S    
C114  C151  S    
O83   Zn15  S    
C79   C88   A    
C68   H15   S    
C16   S27   S    
C43   H5    S    
C40   C45   S    
C112  O64   A    
C49   F2    S    
C6    C126  S    
C31   C135  S    
C111  O82   A    
O61   Zn9   S    
C24   C53   A    
C42   S21   S    
H66   O45   S    
C127  O95   A    
O109  S27   D    
C13   C52   A    
O92   Zn13  S    
O90   Zn15  S    
H62   O32   S    
C5    C127  S    
C3    C20   A    
C78   H25   S    
C7    C125  S    
C18   S29   S    
O25   S16   D    
H50   O143  S    
C54   C142  A    
C25   S4    S    
C94   C103  A    
O111  S28   D    
C41   H3    S    
C41   C44   S    
H38   O107  S    
C29   S8    S    
C42   C43   S    
O87   Zn1   S    
C18   C151  A    
O69   Zn16  S    
O146  S7    S    
C104  C108  S    
O61   Zn4   S    
C10   C28   A    
C52   F5    S    
C62   H9    S    
O50   S25   D    
C93   C102  A    
O60   Zn14  S    
O84   Zn9   S    
C7    C25   A    
O36   S19   S    
O117  S29   S    
O83   Zn6   S    
H64   O39   S    
O19   S14   S    
C99   H32   S    
O116  Zn16  S    
C67   C71   A    
O78   Zn5   S    
C97   C104  A    
O76   Zn7   S    
C37   H67   S    
C46   C109  A    
C117  O69   A    
C114  O66   A    
C30   H1    S    
C119  O71   A    
O83   Zn13  S    
C67   C142  A    
C34   S14   S    
O1    Zn1   S    
C101  H35   S    
O134  S4    D    
C112  O84   A    
C123  O90   A    
C47   H8    S    
O2    Zn8   S    
H65   O42   S    
O27   S17   D    
H57   O16   S    
C88   C101  A    
C5    C138  A    
O61   Zn11  S    
H40   O113  S    
C21   S32   S    
C87   O2    A    
H54   O9    S    
O64   Zn2   S    
O67   Zn3   S    
O22   S15   S    
O54   S26   D    
O98   S1    D    
C56   C65   S    
C77   H24   S    
O18   S14   D    
C123  O75   A    
C12   C146  A    
C62   C98   A    
C5    C22   A    
C88   C92   A    
C132  C133  A    
O123  S31   S    
C32   S11   S    
O95   Zn13  S    
C66   H13   S    
C69   H16   S    
C23   C27   A    
O30   S18   D    
C9    C27   A    
O34   S19   D    
C78   C86   A    
C54   F7    S    
C34   C132  S    
O52   S25   S    
C39   C145  S    
C11   C121  S    
C108  O58   A    
C71   C80   A    
O9    S10   S    
C101  C105  A    
C99   C105  A    
C36   S15   S    
C51   F4    S    
O43   S22   D    
O23   S16   D    
C130  C148  A    
O75   Zn8   S    
O28   S17   D    
C51   C58   A    
C27   S6    S    
C11   C145  A    
O72   Zn5   S    
H69   O52   S    
C49   C58   A    
O40   S21   D    
O7    S10   D    
O63   Zn16  S    
C52   C59   A    
C47   C137  S    
C33   C34   S    
O4    S9    D    
C44   H6    S    
C45   H7    S    
C11   C29   A    
O1    Zn3   S    
O72   Zn14  S    
C93   H27   S    
C40   C144  S    
H47   O133  S    
O126  S32   S    
H52   O3    S    
C63   C77   A    
C48   C56   A    
C83   C90   A    
O122  S31   D    
C55   F8    S    
O66   Zn4   S    
O82   Zn1   S    
O81   Zn11  S    
O1    Zn16  S    
C127  O79   A    
O130  S2    S    
O20   S15   D    
H48   O136  S    
O12   S11   S    
C1    C58   S    
C4    C21   A    
C107  O46   A    
C117  O85   A    
C31   S10   S    
C6    C23   A    
C102  C106  S    
O121  S31   D    
O136  S4    S    
C95   H29   S    
O71   Zn5   S    
O108  S27   D    
C33   C133  S    
C116  O68   A    
O80   Zn10  S    
O135  S4    D    
O94   Zn3   S    
C72   H19   S    
C96   C103  A    
C107  O57   A    
C35   C91   A    
