data_mof_unit_56145.cif
_audit_creation_date              2012-12-11T17:39:33-0500
_audit_creation_method            fapswitch 2.2
_symmetry_space_group_name_H-M    P1
_symmetry_Int_Tables_number       1
_space_group_crystal_system       triclinic
_cell_length_a                    15.092329
_cell_length_b                    15.037646
_cell_length_c                    14.909142
_cell_angle_alpha                 108.512883
_cell_angle_beta                  109.940092
_cell_angle_gamma                 110.054838
_cell_volume                      2601.2872874

loop_
_atom_site_label
_atom_site_type_symbol
_atom_type_description
_atom_site_fract_x
_atom_site_fract_y
_atom_site_fract_z
_atom_type_partial_charge
C1    C     C_R   0.910017 0.974308 0.723276 -0.122046
C2    C     C_R   0.910466 0.704099 0.510100 -0.126403
C3    C     C_R   0.746128 0.777616 0.186405 -0.138306
C4    C     C_R   0.090173 0.314868 0.554556 -0.139918
C5    C     C_R   0.262161 0.947410 0.537842 -0.139908
C6    C     C_R   0.715389 0.675009 0.177550 0.144727
C7    C     C_R   0.295868 0.972525 0.468430 0.050863
C8    C     C_R   0.001913 0.704905 0.576954 0.060890
C9    C     C_R   0.995862 0.069707 0.198031 0.077197
C10   C     C_R   0.493236 0.592836 0.352164 -0.105533
C11   C     C_R   0.460178 0.665137 0.335453 -0.147138
C12   C     C_R   0.996540 0.323840 0.533296 0.052721
C13   C     C_R   0.461810 0.741848 0.420711 0.121637
C14   C     C_R   0.493907 0.743266 0.521535 -0.184664
C15   C     C_R   0.530887 0.673751 0.539041 -0.139970
C16   C     C_R   0.304808 0.207874 0.796800 -0.158079
C17   C     C_R   0.529827 0.598035 0.454252 -0.110067
C18   C     C_R   0.369696 0.850553 0.428861 -0.250184
C19   C     C_R   0.365321 0.943457 0.432973 0.067481
C20   C     C_R   0.430460 0.009889 0.405484 0.017850
C21   C     C_R   0.494910 0.980259 0.371814 -0.233995
C22   C     C_R   0.518097 0.904225 0.392385 0.055144
C23   C     C_R   0.367157 0.300577 0.796863 0.146918
C24   C     C_R   0.448177 0.831510 0.411160 0.026300
C25   C     C_R   0.437060 0.161347 0.366154 -0.219989
C26   C     C_R   0.481746 0.272567 0.401400 -0.101835
C27   C     C_R   0.556502 0.348185 0.512297 -0.113542
C28   C     C_R   0.695842 0.990105 0.397400 -0.150117
C29   C     C_R   0.584426 0.312619 0.588081 -0.133758
C30   C     C_R   0.535759 0.201742 0.553806 -0.117461
C31   C     C_R   0.462292 0.125297 0.442413 0.118760
C32   C     C_R   0.744059 0.280002 0.207388 -0.131639
C33   C     C_R   0.828266 0.347307 0.316358 -0.116065
C34   C     C_R   0.630053 0.927004 0.423593 0.070520
C35   C     C_R   0.808693 0.344013 0.401157 0.108954
C36   C     C_R   0.703702 0.272669 0.375519 -0.187744
C37   C     C_R   0.620860 0.201955 0.265838 -0.103480
C38   C     C_R   0.640809 0.206516 0.182061 -0.122385
C39   C     C_R   0.899443 0.524636 0.551130 -0.231986
C40   C     C_R   0.300973 0.296799 0.703802 -0.119936
C41   C     C_R   0.000615 0.620568 0.608157 0.043229
C42   C     C_R   0.096158 0.619191 0.667430 0.031502
C43   C     C_R   0.086930 0.520239 0.655163 -0.245303
C44   C     C_R   0.991359 0.423363 0.570221 0.068607
C45   C     C_R   0.744494 0.686594 0.280110 -0.148296
C46   C     C_R   0.895924 0.426101 0.515596 0.016201
C47   C     C_R   0.265526 0.729807 0.672007 -0.199099
C48   C     C_R   0.365033 0.826035 0.724213 -0.116957
C49   C     C_R   0.407835 0.904347 0.831802 -0.079285
C50   C     C_R   0.354831 0.883695 0.889774 -0.143090
C51   C     C_R   0.255238 0.787678 0.837921 -0.179279
C52   C     C_R   0.694796 0.902647 0.491995 -0.142528
C53   C     C_R   0.207633 0.712899 0.727315 0.104152
C54   C     C_2   0.541357 0.474341 0.882138 0.080684
C55   C     C_2   0.485482 0.375513 0.871241 -0.271908
C56   C     C_R   0.256676 0.036835 0.442411 -0.121507
C57   C     C_2   0.642681 0.561362 0.984126 -0.186633
C58   C     C_2   0.651873 0.570423 0.079119 -0.209593
C59   C     C_R   0.361559 0.157070 0.068556 -0.189924
C60   C     C_R   0.256538 0.123603 0.054047 0.025632
C61   C     C_R   0.214658 0.194850 0.054743 0.044499
C62   C     C_R   0.279315 0.298430 0.072510 -0.165149
C63   C     C_R   0.383688 0.330324 0.086527 -0.128874
C64   C     C_R   0.906999 0.220243 0.467482 -0.118628
C65   C     C_R   0.424818 0.260008 0.084823 -0.121754
C66   C     C_R   0.093788 0.171109 0.128560 -0.234008
C67   C     C_R   0.091178 0.796936 0.602781 -0.154497
C68   C     C_R   0.993348 0.106464 0.115769 0.065627
C69   C     C_R   0.897372 0.064432 0.015779 0.028514
C70   C     C_R   0.906817 0.070875 0.928138 -0.246178
C71   C     C_R   0.007148 0.102081 0.932019 0.069660
C72   C     C_R   0.103414 0.161149 0.036793 0.048729
C73   C     C_R   0.738051 0.881305 0.925844 -0.179637
C74   C     C_R   0.639840 0.811697 0.912282 -0.140977
C75   C     C_R   0.589649 0.853649 0.962673 -0.065013
C76   C     C_R   0.092167 0.068543 0.810883 -0.160967
C77   C     C_R   0.636158 0.966115 0.023525 -0.146188
C78   C     C_R   0.908218 0.004582 0.201745 -0.151009
C79   C     C_R   0.733147 0.036728 0.034513 -0.182723
C80   C     C_R   0.786719 0.993980 0.989763 0.122095
C81   C     C_R   0.003806 0.053770 0.826286 0.070386
C82   C     C_R   0.492917 0.511590 0.809309 0.145671
C83   C     C_R   0.432545 0.559975 0.830342 -0.189749
C84   C     C_R   0.380257 0.588166 0.756675 -0.158268
C85   C     C_R   0.383574 0.563732 0.659601 -0.080410
C86   C     C_R   0.443421 0.515034 0.638623 -0.148149
C87   C     C_R   0.502076 0.493688 0.715752 -0.213387
C88   C     C_R   0.188355 0.012118 0.030895 0.112196
C89   C     C_R   0.088763 0.099227 0.291924 -0.157414
C90   C     C_R   0.135847 0.922985 0.925822 -0.145662
C91   C     C_R   0.061294 0.819807 0.900508 -0.129440
C92   C     C_R   0.041627 0.804206 0.980872 -0.102416
C93   C     C_R   0.096089 0.891914 0.086544 -0.091247
C94   C     C_R   0.168839 0.995455 0.111267 -0.149292
H1    H     H_    0.825643 0.941738 0.702284 0.093184
H2    H     H_    0.494198 0.535411 0.287369 0.108356
H3    H     H_    0.437323 0.664184 0.257796 0.108560
H4    H     H_    0.174519 0.379435 0.603294 0.116313
H5    H     H_    0.499940 0.804631 0.589342 0.113067
H6    H     H_    0.563925 0.681472 0.619613 0.127536
H7    H     H_    0.317255 0.797014 0.446141 0.127117
H8    H     H_    0.545111 0.034895 0.354009 0.123772
H9    H     H_    0.386161 0.103396 0.279576 0.119634
H10   H     H_    0.461975 0.300048 0.342318 0.126416
H11   H     H_    0.594613 0.434267 0.539524 0.093556
H12   H     H_    0.262098 0.066953 0.386746 0.109211
H13   H     H_    0.645071 0.370881 0.673362 0.107501
H14   H     H_    0.559670 0.175286 0.613080 0.109602
H15   H     H_    0.576211 0.153519 0.097321 0.089330
H16   H     H_    0.336382 0.176296 0.847889 0.109732
H17   H     H_    0.758841 0.284973 0.142564 0.106149
H18   H     H_    0.908008 0.404453 0.335090 0.111048
H19   H     H_    0.687248 0.270355 0.440171 0.139940
H20   H     H_    0.540919 0.144230 0.245422 0.109776
H21   H     H_    0.824038 0.522776 0.509783 0.124916
H22   H     H_    0.158425 0.518503 0.701379 0.125726
H23   H     H_    0.172856 0.839404 0.670031 0.134843
H24   H     H_    0.230272 0.671829 0.586868 0.119063
H25   H     H_    0.407144 0.841491 0.680283 0.104436
H26   H     H_    0.483011 0.980317 0.870722 0.109726
H27   H     H_    0.390539 0.942229 0.974602 0.101768
H28   H     H_    0.670192 0.010321 0.333277 0.095860
H29   H     H_    0.214600 0.772423 0.883142 0.132663
H30   H     H_    0.526027 0.353193 0.928389 0.131571
H31   H     H_    0.694310 0.631355 0.982476 0.130074
H32   H     H_    0.600155 0.503007 0.083598 0.127927
H33   H     H_    0.505412 0.285158 0.094876 0.118009
H34   H     H_    0.823728 0.976223 0.154198 0.135167
H35   H     H_    0.393790 0.102980 0.066454 0.107176
H36   H     H_    0.248075 0.353509 0.073538 0.123784
H37   H     H_    0.432425 0.409322 0.097772 0.106040
H38   H     H_    0.323949 0.339268 0.662781 0.132271
H39   H     H_    0.168297 0.214195 0.206639 0.120742
H40   H     H_    0.832436 0.035334 0.851918 0.126321
H41   H     H_    0.778466 0.847437 0.890296 0.123475
H42   H     H_    0.605413 0.725535 0.865249 0.148194
H43   H     H_    0.515015 0.799419 0.954980 0.118487
H44   H     H_    0.597662 0.997923 0.063352 0.116419
H45   H     H_    0.171840 0.161003 0.325329 0.093447
H46   H     H_    0.770835 0.123475 0.084191 0.124752
H47   H     H_    0.670598 0.848492 0.522564 0.125763
H48   H     H_    0.822651 0.194629 0.441044 0.113994
H49   H     H_    0.176940 0.125988 0.867406 0.136773
H50   H     H_    0.731187 0.623299 0.302240 0.100635
H51   H     H_    0.426422 0.575948 0.903504 0.124320
H52   H     H_    0.337942 0.629212 0.775917 0.139553
H53   H     H_    0.340383 0.582629 0.600863 0.117019
H54   H     H_    0.444157 0.493303 0.562611 0.127910
H55   H     H_    0.549637 0.458072 0.700447 0.129057
H56   H     H_    0.826715 0.654887 0.487036 0.085590
H57   H     H_    0.151226 0.933358 0.863056 0.123751
H58   H     H_    0.019358 0.751779 0.818747 0.120210
H59   H     H_    0.984374 0.724202 0.961306 0.105827
H60   H     H_    0.080928 0.880055 0.148936 0.119246
H61   H     H_    0.208419 0.063091 0.192393 0.100739
H62   H     H_    0.732582 0.796933 0.120872 0.109068
H63   H     H_    0.278252 0.898884 0.574114 0.105815
H64   H     H_    0.559175 0.544759 0.468077 0.092590
N1    N     N_R   0.941940 0.944580 0.650780 -0.040627
N2    N     N_R   0.204460 0.150250 0.707090 -0.043238
N3    N     N_R   0.794270 0.003240 0.446420 -0.039602
N4    N     N_R   0.204920 0.207570 0.650770 -0.048575
N5    N     N_R   0.793810 0.945920 0.502740 -0.041098
N6    N     N_R   0.943620 0.152590 0.446420 -0.041075
N7    N     N_R   0.055110 0.000900 0.707100 -0.045173
N8    N     N_R   0.795080 0.792430 0.349230 -0.039539
N9    N     N_R   0.206190 0.054080 0.497260 -0.041366
N10   N     N_R   0.056380 0.847410 0.553580 -0.041784
N11   N     N_R   0.944890 0.999100 0.292900 -0.042945
N12   N     N_R   0.058060 0.055420 0.349220 -0.040452
N13   N     N_R   0.943200 0.791100 0.497260 -0.038566
N14   N     N_R   0.795540 0.849750 0.292910 -0.043932
N15   N     N_R   0.205730 0.996760 0.553580 -0.038882
N16   N     N_R   0.056800 0.208900 0.502740 -0.039319
Ni1   Ni    Ni4+2 0.869690 0.869690 0.500000 0.213721
Ni2   Ni    Ni4+2 0.130310 0.130310 0.500000 0.214662
Ni3   Ni    Ni4+2 0.129250 0.998840 0.629170 0.206726
Ni4   Ni    Ni4+2 0.870750 0.001160 0.370830 0.213792

loop_
_geom_bond_atom_site_label_1
_geom_bond_atom_site_label_2
_ccdc_geom_bond_type
C67   N10   A    
C2    H56   S    
C66   C68   A    
C63   C65   A    
C41   C42   A    
C25   C31   A    
C93   C94   A    
C6    C45   A    
C4    H4    S    
C16   N2    A    
C51   H29   S    
N11   N12   A    
C6    C58   S    
C35   C36   A    
C15   H6    S    
C64   N6    A    
C3    C6    A    
N5    Ni1   S    
C60   C88   S    
C16   H16   S    
C14   H5    S    
C39   C41   A    
N12   Ni2   S    
C85   C86   A    
N8    N14   A    
N8    Ni1   S    
C37   C38   A    
C83   C84   A    
C18   C24   A    
C65   H33   S    
C93   H60   S    
C32   H17   S    
C89   N12   A    
C82   C87   A    
C42   C53   S    
C57   H31   S    
C30   C31   A    
C12   C64   A    
C28   H28   S    
C3    N14   A    
C49   H26   S    
N4    Ni2   S    
C27   H11   S    
C10   C17   A    
C1    C81   A    
N10   Ni3   S    
N7    Ni3   S    
C27   C29   A    
C18   C19   A    
C73   C74   A    
C62   H36   S    
C92   C93   A    
C34   C52   A    
C26   H10   S    
C83   H51   S    
C84   C85   A    
C47   H24   S    
C66   C72   A    
C19   C20   A    
C68   C69   A    
C89   H45   S    
C74   H42   S    
C45   H50   S    
N6    N16   A    
C70   C71   A    
C32   C38   A    
C4    C12   A    
C29   C30   A    
C45   N8    A    
C2    N13   A    
C47   C53   A    
C79   H46   S    
C40   H38   S    
C28   C34   A    
C59   C60   A    
C78   H34   S    
C4    N16   A    
C13   C14   A    
C61   C62   A    
C50   H27   S    
C7    C56   A    
C36   H19   S    
N3    N5    A    
C44   C46   A    
C28   N3    A    
C48   H25   S    
C57   C58   D    
C77   C79   A    
C22   C34   S    
C5    H63   S    
C88   C94   A    
C74   C75   A    
C73   H41   S    
C1    N1    A    
C77   H44   S    
C75   H43   S    
C9    C89   A    
C91   C92   A    
C5    C7    A    
C86   C87   A    
C94   H61   S    
C37   H20   S    
C25   C26   A    
N13   Ni1   S    
C82   C83   A    
C78   N11   A    
N1    N7    A    
C13   C24   S    
C60   C61   A    
C51   C53   A    
C18   H7    S    
N2    N4    A    
C43   C44   A    
C40   N4    A    
C62   C63   A    
C43   H22   S    
C66   H39   S    
C67   H23   S    
C47   C48   A    
C10   H2    S    
C1    H1    S    
C50   C51   A    
C26   C27   A    
C76   N7    A    
C33   H18   S    
C8    C41   S    
C38   H15   S    
C17   H64   S    
C75   C77   A    
C56   H12   S    
C92   H59   S    
C63   H37   S    
C39   C46   A    
C21   H8    S    
C61   C72   S    
C48   C49   A    
C88   C90   A    
C58   H32   S    
C16   C23   A    
C7    C19   S    
C87   H55   S    
C22   C24   A    
C42   C43   A    
N11   Ni4   S    
C54   C82   S    
N6    Ni4   S    
N14   Ni4   S    
C15   C17   A    
C54   C55   D    
C36   C37   A    
C30   H14   S    
C5    N15   A    
C25   H9    S    
C85   H53   S    
C90   H57   S    
C86   H54   S    
C76   C81   A    
C23   C55   S    
C84   H52   S    
C39   H21   S    
C52   H47   S    
N9    N15   A    
C11   H3    S    
C32   C33   A    
C59   H35   S    
N3    Ni4   S    
C9    C68   S    
C71   C72   A    
C12   C44   S    
C59   C65   A    
C11   C13   A    
C90   C91   A    
C91   H58   S    
C64   H48   S    
C56   N9    A    
C3    H62   S    
C33   C35   A    
C73   C80   A    
C9    C78   A    
C69   C70   A    
N16   Ni2   S    
N2    Ni3   S    
C10   C11   A    
C52   N5    A    
C79   C80   A    
C76   H49   S    
C20   C21   A    
C8    C67   A    
C49   C50   A    
C55   H30   S    
C2    C8    A    
C70   H40   S    
C14   C15   A    
C29   H13   S    
C69   C80   S    
N1    Ni1   S    
N10   N13   A    
N15   Ni3   S    
C21   C22   A    
C35   C46   S    
C54   C57   S    
C23   C40   A    
N9    Ni2   S    
C71   C81   S    
C20   C31   S    
