data_mof_unit_18481.cif
_audit_creation_date              2012-12-10T17:02:15-0500
_audit_creation_method            fapswitch 2.2
_symmetry_space_group_name_H-M    P1
_symmetry_Int_Tables_number       1
_space_group_crystal_system       triclinic
_cell_length_a                    10.633655
_cell_length_b                    10.723407
_cell_length_c                    10.036243
_cell_angle_alpha                 90.202211
_cell_angle_beta                  90.032389
_cell_angle_gamma                 90.307361
_cell_volume                      1144.39906887

loop_
_atom_site_label
_atom_site_type_symbol
_atom_type_description
_atom_site_fract_x
_atom_site_fract_y
_atom_site_fract_z
_atom_type_partial_charge
C1    C     C_R   0.492609 0.263006 0.499634 0.952277
C2    C     C_R   0.066550 0.613504 0.555666 0.107755
C3    C     C_R   0.128531 0.510053 0.499623 -0.187642
C4    C     C_R   0.064380 0.410820 0.440965 -0.296290
C5    C     C_R   0.935781 0.410102 0.441049 0.627796
C6    C     C_R   0.871902 0.509197 0.499710 -0.258791
C7    C     C_2   0.466892 0.932049 0.396621 -0.279073
C8    C     C_2   0.518350 0.871079 0.499517 0.388102
C9    C     C_2   0.475994 0.065911 0.387974 -0.102429
C10   C     C_2   0.467595 0.132819 0.499527 -0.258011
C11   C     C_2   0.580451 0.562876 0.925273 -0.128110
C12   C     C_R   0.260648 0.502618 0.499967 0.891414
C13   C     C_2   0.575290 0.568937 0.075219 -0.106737
C14   C     C_R   0.504439 0.737773 0.500439 0.767292
C15   C     C_R   0.739467 0.502080 0.499991 0.963136
C16   C     C_R   0.132113 0.717889 0.608139 -0.155560
C17   C     C_R   0.066741 0.819283 0.660427 -0.150359
C18   C     C_R   0.935855 0.818968 0.660229 -0.095196
C19   C     C_R   0.870007 0.717242 0.607763 -0.140268
C20   C     C_R   0.934778 0.613119 0.555574 0.006148
H1    H     H_    0.114382 0.332736 0.397440 0.173016
H2    H     H_    0.441791 0.090769 0.593893 0.162723
H3    H     H_    0.654364 0.615391 0.876059 0.153649
H4    H     H_    0.427131 0.457258 0.897633 0.165774
H5    H     H_    0.639652 0.632659 0.124960 0.161880
H6    H     H_    0.445388 0.435935 0.101849 0.162776
H7    H     H_    0.233693 0.722948 0.607696 0.134345
H8    H     H_    0.117802 0.898743 0.700120 0.136372
H9    H     H_    0.885179 0.898181 0.699739 0.162170
H10   H     H_    0.768639 0.721666 0.606733 0.154611
H11   H     H_    0.415003 0.883735 0.318422 0.142651
H12   H     H_    0.491031 0.108220 0.291040 0.172660
N1    N     N_2   0.501340 0.501330 0.852150 -0.190332
N2    N     N_2   0.501380 0.501360 0.147810 -0.188983
O1    O     O_R   0.499980 0.319060 0.613040 -0.611817
O2    O     O_R   0.500020 0.319100 0.386900 -0.606187
O3    O     O_R   0.316750 0.499980 0.613090 -0.619808
O4    O     O_R   0.316790 0.500020 0.386950 -0.613483
O5    O     O_R   0.499980 0.680900 0.613100 -0.633052
O6    O     O_R   0.500020 0.680940 0.386960 -0.631043
O7    O     O_R   0.683210 0.499980 0.613050 -0.620527
O8    O     O_R   0.683250 0.500020 0.386910 -0.575092
Zn1   Zn    Zn3+2 0.499970 0.499970 0.650990 0.944799
Zn2   Zn    Zn3+2 0.500030 0.500030 0.349010 0.971179
F1    F     F_    0.873130 0.311350 0.386935 -0.653393
O9    O     O_3   0.604568 0.930678 0.583596 -0.597384
C21   C     C_3   0.575193 0.910780 0.719204 -0.325889
H13   H     H_    0.624203 0.826932 0.756853 0.180242
H14   H     H_    0.472104 0.903728 0.738301 0.149578
H15   H     H_    0.610847 0.991568 0.777596 0.193111

loop_
_geom_bond_atom_site_label_1
_geom_bond_atom_site_label_2
_ccdc_geom_bond_type
O3    Zn1   S    
O5    Zn1   S    
O4    Zn2   S    
C2    C16   A    
C9    C10   D    
C15   O8    A    
H4    N1    S    
O6    Zn2   S    
O1    Zn1   S    
C17   H8    S    
C16   H7    S    
C17   C18   A    
C14   O5    A    
C7    C8    D    
C21   H14   S    
C18   H9    S    
C10   H2    S    
C4    H1    S    
O7    Zn1   S    
C13   H5    S    
O8    Zn2   S    
C6    C20   A    
C11   H3    S    
C14   O6    A    
C2    C3    A    
C21   H15   S    
C12   O4    A    
C5    C6    A    
C8    O9    S    
O2    Zn2   S    
C11   C13   S    
C7    H11   S    
C2    C20   A    
C3    C4    A    
N1    Zn1   S    
C21   H13   S    
C11   N1    D    
N2    Zn2   S    
C15   O7    A    
C18   C19   A    
C13   N2    D    
C12   O3    A    
C7    C9    S    
C1    O1    A    
O9    C21   S    
C4    C5    A    
C8    C14   S    
C3    C12   S    
C9    H12   S    
C6    C15   S    
C19   H10   S    
C5    F1    S    
H6    N2    S    
C1    C10   S    
C19   C20   A    
C1    O2    A    
C16   C17   A    
