data_mof_unit_29376.cif
_audit_creation_date              2012-12-10T18:23:08-0500
_audit_creation_method            fapswitch 2.2
_symmetry_space_group_name_H-M    P1
_symmetry_Int_Tables_number       1
_space_group_crystal_system       triclinic
_cell_length_a                    14.870323
_cell_length_b                    14.317109
_cell_length_c                    10.486979
_cell_angle_alpha                 90.273001
_cell_angle_beta                  86.436332
_cell_angle_gamma                 90.721082
_cell_volume                      2228.16675491

loop_
_atom_site_label
_atom_site_type_symbol
_atom_type_description
_atom_site_fract_x
_atom_site_fract_y
_atom_site_fract_z
_atom_type_partial_charge
C1    C     C_R   0.327364 0.499296 0.500893 0.872977
C2    C     C_R   0.960120 0.394743 0.314974 -0.220775
C3    C     C_R   0.562641 0.799306 0.421413 0.193383
C4    C     C_R   0.440658 0.198279 0.580765 0.189026
C5    C     C_R   0.443653 0.799591 0.585998 0.209762
C6    C     C_R   0.559329 0.201272 0.416554 0.201571
C7    C     C_R   0.450568 0.899481 0.595725 0.015644
C8    C     C_R   0.563944 0.100935 0.419846 0.015687
C9    C     C_R   0.564040 0.899619 0.420395 0.018846
C10   C     C_R   0.450944 0.099710 0.594670 -0.013302
C11   C     C_R   0.507893 0.949583 0.508374 0.033384
C12   C     C_R   0.672662 0.500501 0.498937 0.872672
C13   C     C_R   0.508447 0.050267 0.508538 0.041209
C14   C     C_R   0.401606 0.951302 0.691194 -0.207570
C15   C     C_R   0.622409 0.049222 0.335802 -0.211069
C16   C     C_R   0.621441 0.951942 0.334726 -0.208101
C17   C     C_R   0.402355 0.048584 0.691070 -0.213734
C18   C     C_R   0.500417 0.500098 0.257978 0.858979
C19   C     C_R   0.499334 0.500267 0.742124 0.856834
C20   C     C_3   0.472934 0.585528 0.045293 -0.196808
C21   C     C_3   0.527068 0.417015 0.955374 -0.195950
C22   C     C_3   0.556292 0.568891 0.952748 -0.215698
C23   C     C_R   0.953250 0.499025 0.500344 0.052886
C24   C     C_3   0.443051 0.433754 0.047314 -0.209816
C25   C     C_3   0.416445 0.517885 0.967565 0.215825
C26   C     C_3   0.583231 0.485262 0.032985 0.218604
C27   C     C_3   0.499093 0.501066 0.877259 -0.054802
C28   C     C_3   0.500440 0.501180 0.123001 -0.047781
C29   C     C_R   0.816826 0.447605 0.407425 -0.276694
C30   C     C_R   0.182872 0.546469 0.597253 -0.285996
C31   C     C_R   0.768216 0.501435 0.498001 -0.040102
C32   C     C_R   0.231819 0.497161 0.502428 -0.045267
C33   C     C_R   0.810199 0.554443 0.589355 -0.271557
C34   C     C_R   0.046686 0.497460 0.501889 0.055042
C35   C     C_R   0.190066 0.445251 0.409713 -0.271520
C36   C     C_R   0.903078 0.552618 0.592482 0.125090
C37   C     C_R   0.096999 0.445031 0.408575 0.126617
C38   C     C_3   0.321412 0.539699 0.929169 -0.452582
C39   C     C_3   0.255632 0.548609 0.046041 -0.843799
C40   C     C_3   0.678806 0.472523 0.075512 -0.451335
C41   C     C_3   0.744838 0.451881 0.962083 -0.850522
C42   C     C_3   0.633881 0.748348 0.338356 -0.365105
C43   C     C_3   0.727050 0.756504 0.392564 -0.856206
C44   C     C_3   0.350917 0.238027 0.631481 -0.335252
C45   C     C_R   0.909894 0.446844 0.406828 0.130862
C46   C     C_3   0.354488 0.287957 0.759937 -0.805621
C47   C     C_3   0.371844 0.749842 0.670468 -0.369632
C48   C     C_3   0.277084 0.769837 0.628608 -0.894862
C49   C     C_3   0.614285 0.251677 0.310727 -0.356304
C50   C     C_3   0.573096 0.237247 0.181409 -0.897599
C51   C     C_R   0.089915 0.548210 0.596882 0.134322
C52   C     C_R   0.946421 0.602659 0.686400 -0.221418
C53   C     C_R   0.053594 0.394143 0.315531 -0.224707
C54   C     C_R   0.039715 0.600032 0.689039 -0.219295
H1    H     H_    0.450776 0.653940 0.085560 0.153020
H2    H     H_    0.091881 0.353967 0.243605 0.144871
H3    H     H_    0.072637 0.638933 0.762232 0.144458
H4    H     H_    0.927137 0.354836 0.242799 0.146302
H5    H     H_    0.360597 0.918357 0.767073 0.157001
H6    H     H_    0.669524 0.082128 0.267174 0.157605
H7    H     H_    0.666595 0.919513 0.263781 0.153181
H8    H     H_    0.363710 0.083347 0.767793 0.159972
H9    H     H_    0.250953 0.481865 0.099728 0.250930
H10   H     H_    0.277784 0.605293 0.110070 0.259424
H11   H     H_    0.187711 0.565518 0.014945 0.248636
H12   H     H_    0.549749 0.348838 0.915035 0.152085
H13   H     H_    0.323253 0.606249 0.875314 0.198182
H14   H     H_    0.297106 0.483642 0.866499 0.195594
H15   H     H_    0.725257 0.386081 0.913989 0.258207
H16   H     H_    0.746145 0.510078 0.892298 0.254146
H17   H     H_    0.813571 0.443881 0.996011 0.250240
H18   H     H_    0.700479 0.537427 0.124036 0.200144
H19   H     H_    0.679663 0.414781 0.145114 0.200736
H20   H     H_    0.723635 0.735120 0.494376 0.277162
H21   H     H_    0.774922 0.710206 0.337756 0.246568
H22   H     H_    0.754115 0.828896 0.386363 0.247855
H23   H     H_    0.602432 0.623442 0.910023 0.146364
H24   H     H_    0.618806 0.674682 0.327848 0.265422
H25   H     H_    0.635998 0.773538 0.238360 0.159177
H26   H     H_    0.417328 0.272249 0.807191 0.254440
H27   H     H_    0.348703 0.363881 0.745623 0.259571
H28   H     H_    0.296371 0.265832 0.824951 0.216908
H29   H     H_    0.319796 0.279151 0.558713 0.224935
H30   H     H_    0.298858 0.181888 0.642435 0.161183
H31   H     H_    0.266840 0.735482 0.535401 0.284665
H32   H     H_    0.226116 0.742676 0.701314 0.237385
H33   H     H_    0.265253 0.845596 0.618147 0.261507
H34   H     H_    0.396426 0.379419 0.089429 0.140844
H35   H     H_    0.379794 0.674682 0.671147 0.260920
H36   H     H_    0.377780 0.769463 0.772063 0.162822
H37   H     H_    0.505392 0.268852 0.182856 0.278351
H38   H     H_    0.617063 0.269898 0.104482 0.247222
H39   H     H_    0.565391 0.162365 0.156910 0.254423
H40   H     H_    0.620552 0.326094 0.328045 0.256710
H41   H     H_    0.685399 0.228802 0.306223 0.161241
H42   H     H_    0.782072 0.407365 0.337177 0.127382
H43   H     H_    0.217438 0.582342 0.671422 0.142207
H44   H     H_    0.770265 0.594973 0.659331 0.137670
H45   H     H_    0.230220 0.406596 0.337906 0.136281
H46   H     H_    0.908190 0.643403 0.757753 0.145603
N1    N     N_R   0.500000 0.750030 0.500000 -0.144052
N2    N     N_R   0.500000 0.249970 0.500000 -0.131960
O1    O     O_R   0.367850 0.580280 0.500030 -0.622939
O2    O     O_R   0.632150 0.419720 0.499970 -0.637681
O3    O     O_R   0.632150 0.580280 0.499970 -0.625852
O4    O     O_R   0.367850 0.419720 0.500030 -0.630441
O5    O     O_R   0.499970 0.580260 0.313950 -0.646754
O6    O     O_R   0.500030 0.419740 0.686050 -0.605055
O7    O     O_R   0.500030 0.580260 0.686050 -0.647545
O8    O     O_R   0.499970 0.419740 0.313950 -0.631140
Zn1   Zn    Zn3+2 0.500000 0.607200 0.500000 0.911761
Zn2   Zn    Zn3+2 0.500000 0.392800 0.500000 0.923665

loop_
_geom_bond_atom_site_label_1
_geom_bond_atom_site_label_2
_ccdc_geom_bond_type
C30   C32   A    
C30   C51   A    
C3    C42   S    
C8    C13   A    
C23   C45   A    
C21   H12   S    
C34   C37   A    
C47   H35   S    
C15   H6    S    
N2    Zn2   S    
C21   C26   S    
C44   H29   S    
O4    Zn2   S    
C7    C11   A    
C14   H5    S    
C5    C47   S    
C30   H43   S    
C34   C51   A    
C41   H15   S    
C35   C37   A    
C9    C16   A    
C12   O2    A    
O7    Zn1   S    
C38   C39   S    
C25   C38   S    
C20   C25   S    
C10   C17   A    
C15   C16   A    
C33   C36   A    
C40   H19   S    
O1    Zn1   S    
C33   H44   S    
C49   C50   S    
C18   O5    A    
C46   H28   S    
C7    C14   A    
C52   C54   A    
C4    N2    A    
C31   C33   A    
C49   H40   S    
C19   C27   S    
C1    O1    A    
C36   C52   A    
C1    O4    A    
C41   H17   S    
C37   C53   A    
C19   O6    A    
C3    N1    A    
C43   H20   S    
C21   C27   S    
C42   H25   S    
C39   H11   S    
C14   C17   A    
C20   H1    S    
C35   H45   S    
C44   C46   S    
C19   O7    A    
C2    C45   A    
C43   H21   S    
C5    N1    A    
C39   H10   S    
C2    C53   A    
C32   C35   A    
C24   C28   S    
C18   C28   S    
C24   C25   S    
C5    C7    A    
C6    C8    A    
C4    C44   S    
C52   H46   S    
C1    C32   S    
O6    Zn2   S    
C29   C45   A    
C3    C9    A    
C17   H8    S    
C46   H27   S    
C24   H34   S    
C47   C48   S    
C23   C34   A    
C48   H33   S    
C49   H41   S    
C9    C11   A    
C50   H38   S    
C40   C41   S    
C20   C22   S    
C42   H24   S    
C8    C15   A    
C22   C27   S    
C12   C31   S    
C22   C26   S    
C47   H36   S    
C48   H32   S    
N1    Zn1   S    
C16   H7    S    
C4    C10   A    
C39   H9    S    
O2    Zn2   S    
C53   H2    S    
C43   H22   S    
C40   H18   S    
O5    Zn1   S    
C18   O8    A    
C22   H23   S    
C38   H14   S    
C44   H30   S    
C10   C13   A    
C29   H42   S    
C2    H4    S    
C50   H39   S    
C25   C27   S    
C20   C28   S    
C26   C28   S    
C51   C54   A    
C29   C31   A    
C46   H26   S    
C11   C13   A    
C26   C40   S    
C12   O3    A    
C6    N2    A    
C6    C49   S    
O3    Zn1   S    
O8    Zn2   S    
C50   H37   S    
C38   H13   S    
C23   C36   A    
C42   C43   S    
C21   C24   S    
C48   H31   S    
C41   H16   S    
C54   H3    S    
