data_mof_unit_31663.cif
_audit_creation_date              2012-12-10T18:33:30-0500
_audit_creation_method            fapswitch 2.2
_symmetry_space_group_name_H-M    P1
_symmetry_Int_Tables_number       1
_space_group_crystal_system       triclinic
_cell_length_a                    8.726027
_cell_length_b                    15.095665
_cell_length_c                    13.852989
_cell_angle_alpha                 91.019706
_cell_angle_beta                  97.91958
_cell_angle_gamma                 89.763654
_cell_volume                      1807.09463932

loop_
_atom_site_label
_atom_site_type_symbol
_atom_type_description
_atom_site_fract_x
_atom_site_fract_y
_atom_site_fract_z
_atom_type_partial_charge
C1    C     C_R   0.506013 0.330028 0.499506 0.805788
C2    C     C_R   0.505207 0.670212 0.501596 0.792987
C3    C     C_R   0.625432 0.465414 0.117578 -0.269985
C4    C     C_R   0.367868 0.475874 0.881025 -0.276709
C5    C     C_R   0.622340 0.465080 0.218980 0.082270
C6    C     C_R   0.370653 0.475222 0.779583 0.084111
C7    C     C_R   0.377785 0.535076 0.199126 0.089862
C8    C     C_R   0.629712 0.524404 0.802820 0.063552
C9    C     C_R   0.374935 0.534987 0.097182 -0.278320
C10   C     C_R   0.632596 0.524250 0.904755 -0.278505
C11   C     C_R   0.500248 0.500260 0.054595 0.127556
C12   C     C_R   0.500224 0.500215 0.945688 0.134392
C13   C     C_R   0.203643 0.500083 0.475101 0.888257
C14   C     C_R   0.796326 0.500590 0.524909 0.875531
C15   C     C_2   0.037849 0.500275 0.461334 -0.372358
C16   C     C_2   0.962075 0.501076 0.538692 -0.375441
C17   C     C_R   0.409383 0.095485 0.543033 -0.141457
C18   C     C_R   0.422718 0.903887 0.429175 -0.136792
C19   C     C_R   0.408303 0.187088 0.543489 -0.227994
C20   C     C_R   0.421715 0.812447 0.431037 -0.222615
C21   C     C_R   0.514969 0.233459 0.497270 -0.056091
C22   C     C_R   0.513152 0.767222 0.505247 -0.081488
C23   C     C_R   0.626490 0.187488 0.449269 0.142770
C24   C     C_R   0.609863 0.814801 0.580029 0.116636
C25   C     C_R   0.620481 0.093556 0.444110 -0.007791
C26   C     C_R   0.611848 0.909082 0.576890 -0.011902
C27   C     C_R   0.514504 0.048795 0.494243 -0.025000
C28   C     C_R   0.516715 0.952016 0.500723 -0.032090
Cu1   Cu    Cu3+1 0.500000 0.499990 0.596430 0.932023
Cu2   Cu    Cu3+1 0.500000 0.500010 0.403570 0.939454
H1    H     H_    0.977914 0.499510 0.387118 0.169341
H2    H     H_    0.021919 0.501756 0.612907 0.164681
H3    H     H_    0.328041 0.060574 0.581032 0.155444
H4    H     H_    0.350439 0.937588 0.371162 0.163704
H5    H     H_    0.323920 0.222160 0.580425 0.151292
H6    H     H_    0.347656 0.776584 0.374365 0.155774
H7    H     H_    0.724097 0.437092 0.088523 0.136266
H8    H     H_    0.263426 0.455788 0.908719 0.133165
H9    H     H_    0.718656 0.436525 0.265684 0.114382
H10   H     H_    0.268280 0.454298 0.731951 0.120518
H11   H     H_    0.281484 0.563591 0.230303 0.120748
H12   H     H_    0.732226 0.544774 0.773515 0.127500
H13   H     H_    0.276334 0.563365 0.052089 0.132313
H14   H     H_    0.737170 0.544345 0.951212 0.131561
N1    N     N_R   0.500000 0.500020 0.258690 -0.171830
N2    N     N_R   0.500000 0.499980 0.741310 -0.170106
O1    O     O_R   0.500010 0.371450 0.581430 -0.576299
O2    O     O_R   0.499990 0.628550 0.418570 -0.579965
O3    O     O_R   0.500010 0.371460 0.418560 -0.583872
O4    O     O_R   0.499990 0.628540 0.581440 -0.580511
O5    O     O_R   0.274840 0.499990 0.562640 -0.589263
O6    O     O_R   0.725160 0.500010 0.437360 -0.585523
O7    O     O_R   0.274840 0.500000 0.399770 -0.597129
O8    O     O_R   0.725160 0.500000 0.600230 -0.606621
C29   C     C_3   0.761810 0.237491 0.416683 -0.393887
C30   C     C_3   0.879115 0.264760 0.504271 -0.863899
H15   H     H_    0.976540 0.300722 0.478960 0.248553
H16   H     H_    0.825146 0.308779 0.555056 0.252777
H17   H     H_    0.925975 0.205071 0.543987 0.250469
H18   H     H_    0.825236 0.197802 0.367366 0.249758
H19   H     H_    0.721688 0.296461 0.373993 0.216757
C31   C     C_3   0.720075 0.765550 0.655924 -0.359011
C32   C     C_3   0.649860 0.751909 0.750066 -0.694163
H20   H     H_    0.546332 0.708901 0.737129 0.250349
H21   H     H_    0.736742 0.720110 0.804844 0.213186
H22   H     H_    0.613873 0.815505 0.781180 0.283959
H23   H     H_    0.754090 0.700375 0.627174 0.177228
H24   H     H_    0.831731 0.801230 0.672564 0.219556
C33   C     C_2   0.725017 0.040304 0.389749 0.334222
H25   H     H_    0.784259 0.982849 0.423079 0.065893
O9    O     O_2   0.737853 0.056699 0.305268 -0.534483
C34   C     C_2   0.715739 0.964945 0.648174 0.331669
H26   H     H_    0.759729 0.027199 0.625467 0.074513
O10   O     O_2   0.749223 0.944727 0.733287 -0.539662

loop_
_geom_bond_atom_site_label_1
_geom_bond_atom_site_label_2
_ccdc_geom_bond_type
C2    C22   S    
C8    H12   S    
C11   C12   S    
C32   H21   S    
C14   O6    A    
C1    C21   S    
Cu1   Cu2   S    
C14   C16   S    
C16   H2    S    
C26   C34   S    
Cu2   N1    S    
C26   C28   A    
C30   H17   S    
C31   H24   S    
Cu1   N2    S    
C29   C30   S    
C3    C11   A    
C7    C9    A    
C3    C5    A    
C13   C15   S    
C32   H22   S    
C7    N1    A    
C19   H5    S    
C29   H18   S    
C23   C29   S    
C18   H4    S    
C9    C11   A    
C31   C32   S    
C17   H3    S    
C31   H23   S    
Cu1   O1    S    
C6    N2    A    
C10   C12   A    
C1    O3    A    
C34   O10   D    
C19   C21   A    
Cu2   O3    S    
C30   H16   S    
C13   O7    A    
Cu1   O4    S    
C5    H9    S    
C21   C23   A    
Cu1   O5    S    
C33   H25   S    
Cu2   O7    S    
C22   C24   A    
C9    H13   S    
C4    C6    A    
C4    C12   A    
Cu1   O8    S    
C20   C22   A    
C10   H14   S    
C32   H20   S    
C17   C27   A    
C29   H19   S    
C6    H10   S    
C18   C28   A    
C30   H15   S    
C3    H7    S    
C18   C20   A    
C8    C10   A    
C23   C25   A    
C25   C33   S    
Cu2   O2    S    
C27   C28   S    
C33   O9    D    
Cu2   O6    S    
C17   C19   A    
C4    H8    S    
C24   C31   S    
C2    O4    A    
C8    N2    A    
C2    O2    A    
C13   O5    A    
C5    N1    A    
C15   H1    S    
C1    O1    A    
C15   C16   D    
C14   O8    A    
C24   C26   A    
C34   H26   S    
C7    H11   S    
C25   C27   A    
C20   H6    S    
