data_mof_unit_53380.cif
_audit_creation_date              2012-12-11T17:09:27-0500
_audit_creation_method            fapswitch 2.2
_symmetry_space_group_name_H-M    P1
_symmetry_Int_Tables_number       1
_space_group_crystal_system       triclinic
_cell_length_a                    14.792677
_cell_length_b                    6.912766
_cell_length_c                    13.49991
_cell_angle_alpha                 89.999984
_cell_angle_beta                  99.817713
_cell_angle_gamma                 89.999982
_cell_volume                      1360.26126212

loop_
_atom_site_label
_atom_site_type_symbol
_atom_type_description
_atom_site_fract_x
_atom_site_fract_y
_atom_site_fract_z
_atom_type_partial_charge
O1    O     O_R   0.586930 0.505770 0.416350 -0.530223
O2    O     O_R   0.413070 0.005770 0.583650 -0.530223
O3    O     O_R   0.397900 0.173100 0.389630 -0.542048
O4    O     O_R   0.602100 0.673100 0.610370 -0.542049
C1    C     C_R   0.364184 0.345416 0.362866 0.750106
C2    C     C_R   0.635816 0.845416 0.637134 0.750106
O5    O     O_R   0.585280 0.175870 0.404330 -0.507544
O6    O     O_R   0.414720 0.675870 0.595670 -0.507543
O7    O     O_R   0.601790 0.008380 0.598460 -0.545209
O8    O     O_R   0.398210 0.508380 0.401540 -0.545210
C3    C     C_R   0.614047 0.344965 0.382247 0.754578
C4    C     C_R   0.385953 0.844965 0.617753 0.754580
O9    O     O_3   0.505200 0.340120 0.563670 -0.361892
O10   O     O_3   0.494800 0.840120 0.436330 -0.361892
V1    V     V_3+5 0.499040 0.064180 0.488190 1.568186
V2    V     V_3+5 0.500960 0.564180 0.511810 1.568185
C5    C     C_R   0.235243 0.953013 0.658423 -0.194768
C6    C     C_R   0.764758 0.453012 0.341578 -0.194766
C7    C     C_R   0.317716 0.852875 0.685876 -0.188086
C8    C     C_R   0.682284 0.352875 0.314124 -0.188083
C9    C     C_R   0.329466 0.745602 0.776593 0.431837
C10   C     C_R   0.670534 0.245603 0.223407 0.431835
C11   C     C_R   0.261107 0.750485 0.839542 0.355460
C12   C     C_R   0.738892 0.250486 0.160458 0.355459
C13   C     C_R   0.183089 0.872548 0.814698 -0.247020
C14   C     C_R   0.816911 0.372548 0.185303 -0.247022
C15   C     C_R   0.168909 0.959750 0.719486 -0.148546
C16   C     C_R   0.831091 0.459749 0.280515 -0.148544
C17   C     C_3   0.136435 0.157692 0.683702 0.271917
C18   C     C_3   0.863564 0.657692 0.316297 0.271917
C19   C     C_3   0.213878 0.156509 0.621073 0.970952
C20   C     C_3   0.786121 0.656510 0.378926 0.970951
H1    H     H_    0.144546 0.271632 0.742655 0.042001
H2    H     H_    0.855454 0.771631 0.257343 0.042002
C21   C     C_1   0.783463 0.877090 0.782879 -0.192527
C22   C     C_1   0.216537 0.377090 0.217121 -0.192525
C23   C     C_1   0.716234 0.860108 0.716772 -0.169547
C24   C     C_1   0.283766 0.360108 0.283228 -0.169544
O11   O     O_R   0.101720 0.231700 0.098560 -0.538619
O12   O     O_R   0.898280 0.731700 0.901440 -0.538619
O13   O     O_R   0.914700 0.558980 0.095690 -0.563128
O14   O     O_R   0.085300 0.058980 0.904310 -0.563128
C25   C     C_R   0.885067 0.389302 0.116974 0.775788
C26   C     C_R   0.114933 0.889301 0.883026 0.775787
O15   O     O_R   0.102080 0.561590 0.110390 -0.536489
O16   O     O_R   0.897920 0.061590 0.889610 -0.536489
O17   O     O_R   0.086950 0.728940 0.916330 -0.523924
O18   O     O_R   0.913050 0.228940 0.083670 -0.523923
C27   C     C_R   0.136207 0.391899 0.137385 0.723831
C28   C     C_R   0.863792 0.891899 0.862615 0.723832
O19   O     O_3   0.994770 0.394510 0.936380 -0.379057
O20   O     O_3   0.005230 0.894510 0.063620 -0.379057
V3    V     V_3+5 0.000970 0.670520 0.011800 1.397771
V4    V     V_3+5 0.999030 0.170520 0.988200 1.397771
O21   O     O_3   0.408774 0.639295 0.805791 -0.534607
C29   C     C_3   0.474815 0.759340 0.863465 -0.212947
H3    H     H_    0.492884 0.884455 0.818737 0.107287
H4    H     H_    0.538310 0.673884 0.887107 0.156145
H5    H     H_    0.451163 0.811023 0.932845 0.161994
O22   O     O_3   0.591225 0.139300 0.194207 -0.534609
C30   C     C_3   0.525186 0.259351 0.136534 -0.212933
H6    H     H_    0.507102 0.384437 0.181273 0.107287
H7    H     H_    0.461699 0.173883 0.112870 0.156151
H8    H     H_    0.548847 0.311077 0.067165 0.161978
O23   O     O_3   0.278213 0.661701 0.932833 -0.558110
C31   C     C_3   0.261884 0.461311 0.920846 -0.156824
H9    H     H_    0.187810 0.432066 0.895257 0.135601
H10   H     H_    0.281943 0.390275 0.995012 0.124424
H11   H     H_    0.303131 0.393671 0.868538 0.183266
O24   O     O_3   0.721786 0.161704 0.067167 -0.558108
C32   C     C_3   0.738114 0.961313 0.079153 -0.156819
H12   H     H_    0.812188 0.932065 0.104742 0.135599
H13   H     H_    0.718055 0.890279 0.004986 0.124423
H14   H     H_    0.696866 0.893674 0.131459 0.183266
O25   O     O_3   0.049367 0.153278 0.620931 -0.536179
C33   C     C_3   0.979647 0.140288 0.679753 -0.128091
H15   H     H_    0.982348 0.998683 0.718842 0.120479
H16   H     H_    0.912228 0.147336 0.629358 0.145420
H17   H     H_    0.982964 0.262402 0.733923 0.124307
O26   O     O_3   0.950632 0.653281 0.379068 -0.536179
C34   C     C_3   0.020353 0.640287 0.320247 -0.128093
H18   H     H_    0.017652 0.498680 0.281160 0.120480
H19   H     H_    0.087772 0.647338 0.370641 0.145419
H20   H     H_    0.017036 0.762398 0.266074 0.124309
F1    F     F_    0.283412 0.284060 0.659115 -0.707733
F2    F     F_    0.716587 0.784059 0.340881 -0.707734
O27   O     O_3   0.182399 0.190865 0.516539 -0.536435
C35   C     C_3   0.168691 0.020926 0.458006 -0.209083
H21   H     H_    0.117632 0.924467 0.484514 0.186192
H22   H     H_    0.234608 0.944210 0.457589 0.106461
H23   H     H_    0.140831 0.062002 0.379275 0.154626
O28   O     O_3   0.817600 0.690871 0.483459 -0.536435
C36   C     C_3   0.831308 0.520934 0.541995 -0.209085
H24   H     H_    0.882368 0.424475 0.515489 0.186191
H25   H     H_    0.765390 0.444218 0.542411 0.106462
H26   H     H_    0.859166 0.562014 0.620725 0.154625

loop_
_geom_bond_atom_site_label_1
_geom_bond_atom_site_label_2
_ccdc_geom_bond_type
C31   H10   S    
O21   C29   S    
C36   H24   S    
C19   F1    S    
C15   C17   S    
C35   H22   S    
O1    C3    A    
C33   H17   S    
O27   C35   S    
O2    C4    A    
C2    O7    A    
C34   H18   S    
C12   O24   S    
O5    C3    A    
C21   C23   T    
C33   H16   S    
C10   O22   S    
O11   V4    S    
C17   H1    S    
C29   H3    S    
C30   H7    S    
O24   C32   S    
O10   V2    S    
C25   O18   A    
C26   O17   A    
O17   V3    S    
C18   O26   S    
O5    V1    S    
C31   H9    S    
O15   V3    S    
C36   H25   S    
C1    C24   S    
O13   C25   A    
O14   C26   A    
C13   C26   S    
C34   H19   S    
O20   V4    S    
C14   C25   S    
C3    C8    S    
C19   O27   S    
C18   H2    S    
C5    C15   A    
C6    C16   A    
C33   H15   S    
O4    C2    A    
C32   H13   S    
O22   C30   S    
O19   V3    S    
O4    V2    S    
C30   H8    S    
O18   V4    S    
O25   C33   S    
C35   H23   S    
O15   C27   A    
O6    C4    A    
C20   F2    S    
O16   V4    S    
C21   C28   S    
C2    C23   S    
O1    V2    S    
O2    V1    S    
O13   V3    S    
O11   C27   A    
C8    C10   A    
O23   C31   S    
C36   H26   S    
O9    V1    S    
C5    C19   S    
C10   C12   A    
C6    C20   S    
C22   C24   T    
C34   H20   S    
O3    V1    S    
O20   V3    S    
C9    O21   S    
C7    C9    A    
C12   C14   A    
O26   C34   S    
O3    C1    A    
C32   H14   S    
C17   O25   S    
C13   C15   A    
O16   C28   A    
C14   C16   A    
C29   H5    S    
O19   V4    S    
C11   O23   S    
C9    C11   A    
O7    V1    S    
C1    O8    A    
C17   C19   S    
O8    V2    S    
O14   V4    S    
C18   C20   S    
C20   O28   S    
O12   C28   A    
C4    C7    S    
C16   C18   S    
O28   C36   S    
C5    C7    A    
C29   H4    S    
C6    C8    A    
C11   C13   A    
C30   H6    S    
C31   H11   S    
C32   H12   S    
C35   H21   S    
O6    V2    S    
O12   V3    S    
O9    V2    S    
O10   V1    S    
C22   C27   S    
