data_mof_unit_22879.cif
_audit_creation_date              2012-12-11T15:12:21-0500
_audit_creation_method            fapswitch 2.2
_symmetry_space_group_name_H-M    P1
_symmetry_Int_Tables_number       1
_space_group_crystal_system       triclinic
_cell_length_a                    31.354925
_cell_length_b                    22.474646
_cell_length_c                    17.831398
_cell_angle_alpha                 90.248515
_cell_angle_beta                  123.862995
_cell_angle_gamma                 90.256071
_cell_volume                      10433.6886534

loop_
_atom_site_label
_atom_site_type_symbol
_atom_type_description
_atom_site_fract_x
_atom_site_fract_y
_atom_site_fract_z
_atom_type_partial_charge
C1    C     C_R   0.546312 0.585638 0.744382 0.512637
C2    C     C_R   0.247478 0.687773 0.447532 -0.407890
C3    C     C_R   0.357753 0.192306 0.116449 -0.253009
C4    C     C_R   0.810432 0.172047 0.934657 -0.173165
C5    C     C_R   0.191840 0.812082 0.044853 -0.188199
C6    C     C_R   0.187709 0.173291 0.067671 -0.170845
C7    C     C_R   0.856483 0.696759 0.105542 -0.260173
C8    C     C_R   0.284934 0.771664 0.077589 -0.173905
C9    C     C_R   0.706032 0.190544 0.855200 -0.110817
C10   C     C_R   0.768801 0.643587 0.079532 -0.255508
C11   C     C_R   0.293296 0.188017 0.153885 -0.110648
C12   C     C_R   0.731372 0.147036 0.923943 -0.253853
C13   C     C_R   0.237272 0.335265 0.448112 -0.443998
C14   C     C_R   0.260663 0.819771 0.016737 -0.120972
C15   C     C_R   0.267531 0.143695 0.085510 -0.239940
C16   C     C_R   0.794966 0.687119 0.149190 -0.110695
C17   C     C_R   0.727359 0.203860 0.804549 0.538632
C18   C     C_R   0.269116 0.755287 0.135492 0.540305
C19   C     C_R   0.270448 0.204805 0.200856 0.532048
C20   C     C_R   0.798425 0.612139 0.054678 0.605574
C21   C     C_R   0.283717 0.841899 0.971321 0.394103
C22   C     C_R   0.700978 0.115693 0.947451 0.606953
C23   C     C_R   0.773712 0.701231 0.199761 0.537012
C24   C     C_R   0.755701 0.678633 0.540530 -0.439800
C25   C     C_R   0.297982 0.109345 0.065723 0.602690
C26   C     C_R   0.780623 0.193328 0.845457 0.446740
C27   C     C_R   0.221207 0.772285 0.115223 0.459239
C28   C     C_R   0.216597 0.195870 0.156711 0.446190
C29   C     C_R   0.840999 0.640336 0.064154 0.504085
C30   C     C_R   0.329358 0.815844 0.988031 0.447165
C31   C     C_R   0.658170 0.143539 0.936814 0.500960
C32   C     C_R   0.720196 0.691333 0.158249 0.447234
C33   C     C_R   0.341854 0.135281 0.077102 0.510336
C34   C     C_R   0.591907 0.583720 0.421265 0.664634
C35   C     C_R   0.263014 0.838477 0.548902 -0.421985
C36   C     C_R   0.404894 0.426050 0.577818 0.699360
C37   C     C_R   0.409899 0.587926 0.579150 0.694065
C38   C     C_R   0.594970 0.424817 0.422207 0.728005
C39   C     C_R   0.090632 0.085731 0.420539 0.686800
C40   C     C_R   0.905046 0.925234 0.577741 0.664685
C41   C     C_R   0.909330 0.085818 0.579574 0.701402
C42   C     C_R   0.094947 0.925659 0.422015 0.692991
C43   C     C_R   0.387199 0.593402 0.265038 0.757050
C44   C     C_R   0.611670 0.400826 0.724745 0.803461
C45   C     C_R   0.615021 0.590432 0.738159 0.768006
C46   C     C_R   0.746050 0.179334 0.461169 -0.439572
C47   C     C_R   0.388774 0.398847 0.277247 0.786325
C48   C     C_R   0.885246 0.090189 0.262501 0.766500
C49   C     C_R   0.116091 0.918288 0.744721 0.749242
C50   C     C_R   0.115515 0.088615 0.740028 0.776909
C51   C     C_R   0.888661 0.899163 0.276574 0.794693
C52   C     C_R   0.597262 0.606211 0.791821 -0.279619
C53   C     C_R   0.413442 0.363437 0.249291 -0.298145
C54   C     C_R   0.408374 0.614160 0.217845 -0.330959
C55   C     C_R   0.587377 0.366365 0.754513 -0.279044
C56   C     C_R   0.097744 0.103804 0.793891 -0.296678
C57   C     C_R   0.739229 0.833357 0.453028 -0.445594
C58   C     C_R   0.913014 0.864696 0.246957 -0.270503
C59   C     C_R   0.903013 0.105999 0.208941 -0.276214
C60   C     C_R   0.097161 0.902550 0.797131 -0.324769
C61   C     C_R   0.639688 0.598984 0.491782 -0.316042
C62   C     C_R   0.355899 0.414591 0.507524 -0.292593
C63   C     C_R   0.363371 0.605917 0.508412 -0.350836
C64   C     C_R   0.643590 0.412326 0.492668 -0.319405
C65   C     C_R   0.137657 0.102903 0.490696 -0.334010
C66   C     C_R   0.856267 0.913432 0.507148 -0.272348
C67   C     C_R   0.862311 0.102550 0.509560 -0.349233
C68   C     C_R   0.253233 0.181609 0.538715 -0.434823
C69   C     C_R   0.143462 0.912879 0.492071 -0.302383
C70   C     C_R   0.655604 0.323736 0.430973 -0.199834
C71   C     C_R   0.354017 0.695860 0.571442 -0.172471
C72   C     C_R   0.343657 0.326852 0.569258 -0.197444
C73   C     C_R   0.648763 0.690677 0.434092 -0.219875
C74   C     C_R   0.157020 0.831039 0.420769 -0.192001
C75   C     C_R   0.852971 0.191204 0.574853 -0.187779
C76   C     C_R   0.846028 0.822697 0.565072 -0.215485
C77   C     C_R   0.146375 0.192235 0.427198 -0.190162
C78   C     C_R   0.677685 0.373952 0.485916 -0.107555
C79   C     C_R   0.738922 0.280203 0.502937 -0.090687
C80   C     C_R   0.330937 0.646204 0.515461 -0.085694
C81   C     C_R   0.321680 0.376591 0.514733 -0.108028
C82   C     C_R   0.671989 0.639698 0.484576 -0.085184
C83   C     C_R   0.178464 0.878054 0.482688 -0.092150
C84   C     C_R   0.829842 0.141490 0.518945 -0.091247
C85   C     C_R   0.823252 0.873596 0.514094 -0.113681
C86   C     C_R   0.169696 0.142642 0.481627 -0.089552
C87   C     C_R   0.730602 0.379829 0.545892 0.946336
C88   C     C_R   0.278149 0.640337 0.457277 0.946239
C89   C     C_R   0.268785 0.382140 0.455928 0.938019
C90   C     C_R   0.270647 0.739526 0.501754 -0.080360
C91   C     C_R   0.724757 0.632163 0.535274 0.947043
C92   C     C_R   0.231285 0.883691 0.544071 0.937102
C93   C     C_R   0.777035 0.133630 0.465780 0.950337
C94   C     C_R   0.770372 0.880153 0.459617 0.944743
C95   C     C_R   0.222361 0.135386 0.533683 0.941928
C96   C     C_3   0.530317 0.521554 0.824410 0.090968
C97   C     C_3   0.517101 0.310750 0.336271 -0.101231
C98   C     C_3   0.450547 0.532485 0.147184 0.131126
C99   C     C_3   0.483428 0.312420 0.673433 -0.057166
C100  C     C_3   0.042037 0.034623 0.854357 0.090657
C101  C     C_R   0.260299 0.282747 0.498715 -0.091164
C102  C     C_3   0.017012 0.813755 0.320692 -0.056259
C103  C     C_3   0.970018 0.020868 0.176490 0.086516
C104  C     C_3   0.996063 0.835515 0.731335 0.083394
C105  C     C_3   0.596395 0.366088 0.953276 -0.108486
C106  C     C_3   0.504290 0.712969 0.216932 0.029441
C107  C     C_3   0.406325 0.353488 0.051609 -0.078672
C108  C     C_3   0.552305 0.734033 0.833026 -0.123268
C109  C     C_3   0.062897 0.908881 0.987402 -0.125044
C110  C     C_3   0.950795 0.233236 0.170880 -0.112189
C111  C     C_3   0.900325 0.864277 0.045010 -0.124054
C112  C     C_R   0.462727 0.389778 0.288146 0.535393
C113  C     C_R   0.732235 0.731984 0.492780 -0.079929
C114  C     C_3   0.051163 0.233675 0.825214 -0.101867
C115  C     C_3   0.710714 0.254347 0.675604 0.113435
C116  C     C_3   0.335764 0.758440 0.282718 -0.186910
C117  C     C_3   0.285717 0.259970 0.325782 0.117812
C118  C     C_3   0.788719 0.517112 0.088987 -0.056315
C119  C     C_3   0.290600 0.935003 0.923538 0.471371
C120  C     C_3   0.708827 0.020540 0.910665 -0.062166
C121  C     C_3   0.791062 0.752866 0.328983 0.110679
C122  C     C_3   0.285379 0.017270 0.105084 -0.097257
C123  C     C_3   0.421469 0.829314 0.639967 -0.174889
C124  C     C_R   0.240277 0.787545 0.492266 -0.073037
C125  C     C_3   0.593320 0.184350 0.392054 -0.211863
C126  C     C_3   0.585548 0.824338 0.387257 -0.229731
C127  C     C_3   0.404627 0.189278 0.602055 -0.224964
C128  C     C_3   0.918342 0.325686 0.636238 -0.159194
C129  C     C_3   0.091094 0.690761 0.352677 -0.207546
C130  C     C_3   0.081260 0.325508 0.369275 -0.177524
C131  C     C_3   0.910156 0.691807 0.606798 -0.180856
C132  C     C_3   0.810907 0.154344 0.766285 -0.174478
C133  C     C_3   0.184111 0.694992 0.140908 0.028902
C134  C     C_3   0.182639 0.161190 0.232144 -0.173357
C135  C     C_R   0.769337 0.232159 0.512547 -0.080649
C136  C     C_3   0.908865 0.584210 0.095712 -0.061371
C137  C     C_3   0.328327 0.805100 0.860238 -0.099205
C138  C     C_3   0.589635 0.086478 0.902272 -0.062320
C139  C     C_3   0.688570 0.653741 0.235986 -0.186560
C140  C     C_3   0.408545 0.074954 0.114849 -0.140812
C141  C     C_R   0.762558 0.780170 0.501388 -0.093435
C142  C     C_R   0.229899 0.234332 0.488869 -0.078541
C143  C     C_R   0.685246 0.275326 0.442074 -0.092399
C144  C     C_R   0.324257 0.743186 0.565117 -0.085042
C145  C     C_R   0.313973 0.278311 0.558303 -0.093292
C146  C     C_R   0.678362 0.737550 0.438097 -0.073074
C147  C     C_R   0.186829 0.783951 0.427770 -0.075727
C148  C     C_R   0.456752 0.587866 0.260439 0.525383
C149  C     C_R   0.823171 0.237471 0.571399 -0.090352
C150  C     C_R   0.816377 0.775001 0.557629 -0.076827
C151  C     C_R   0.176075 0.239016 0.431025 -0.094045
C152  C     C_R   0.815495 0.336945 0.614910 0.718426
C153  C     C_R   0.194476 0.684945 0.383545 0.677845
C154  C     C_R   0.183729 0.338655 0.388786 0.717039
C155  C     C_R   0.809322 0.673845 0.594764 0.722716
C156  C     C_R   0.316393 0.841599 0.611572 0.666581
C157  C     C_R   0.692561 0.174261 0.404056 0.715929
C158  C     C_R   0.685630 0.837819 0.397659 0.723547
C159  C     C_R   0.537834 0.391445 0.714459 0.477181
C160  C     C_R   0.306672 0.177047 0.594573 0.714020
C161  C     C_R   0.347289 0.794832 0.618004 0.404505
C162  C     C_R   0.661949 0.221453 0.396397 0.418965
C163  C     C_R   0.655055 0.790680 0.391998 0.414752
C164  C     C_R   0.337239 0.224628 0.602427 0.423294
C165  C     C_R   0.846320 0.290007 0.621677 0.417170
C166  C     C_R   0.163707 0.732058 0.375374 0.421560
C167  C     C_R   0.152897 0.291300 0.381953 0.419424
C168  C     C_R   0.839812 0.721580 0.602329 0.404873
C169  C     C_R   0.387814 0.661967 0.147984 -0.230338
C170  C     C_R   0.046487 0.083601 0.745466 0.531746
C171  C     C_R   0.608925 0.310518 0.808520 -0.225145
C172  C     C_R   0.629065 0.628026 0.887952 -0.230981
C173  C     C_R   0.392800 0.305364 0.199449 -0.218523
C174  C     C_R   0.871272 0.128497 0.113521 -0.229779
C175  C     C_R   0.129051 0.882279 0.893290 -0.209570
C176  C     C_R   0.128909 0.127683 0.888915 -0.242141
C177  C     C_R   0.891472 0.808253 0.193289 -0.223745
C178  C     C_R   0.397991 0.743262 0.068550 -0.306739
C179  C     C_R   0.609211 0.234562 0.904915 -0.269130
C180  C     C_R   0.636872 0.679317 0.015497 -0.295867
C181  C     C_R   0.962293 0.890896 0.286017 0.473307
C182  C     C_R   0.392704 0.225483 0.107397 -0.267662
C183  C     C_R   0.863945 0.180172 0.987245 -0.293389
C184  C     C_R   0.142017 0.826014 0.019865 -0.310318
C185  C     C_R   0.134576 0.182746 0.011947 -0.285528
C186  C     C_R   0.889590 0.732316 0.094599 -0.275616
C187  C     C_R   0.418650 0.693916 0.125824 0.508246
C188  C     C_R   0.594660 0.290946 0.866586 0.552358
C189  C     C_R   0.607176 0.662511 0.924431 0.570199
C190  C     C_R   0.407359 0.283064 0.142935 0.542822
C191  C     C_R   0.893649 0.162682 0.077590 0.565768
C192  C     C_R   0.953782 0.085495 0.255897 0.511281
C193  C     C_R   0.110020 0.861019 0.943947 0.545302
C194  C     C_R   0.106067 0.164047 0.921749 0.528670
C195  C     C_R   0.904192 0.789171 0.132791 0.551293
C196  C     C_R   0.338523 0.683554 0.113941 0.850536
C197  C     C_R   0.643085 0.275249 0.799106 0.760562
C198  C     C_R   0.681926 0.614379 0.944092 0.773374
C199  C     C_R   0.359027 0.270925 0.211250 0.765464
C200  C     C_R   0.817880 0.116167 0.057634 0.774210
C201  C     C_R   0.182343 0.883055 0.936388 0.849999
C202  C     C_R   0.181789 0.114588 0.947296 0.806120
C203  C     C_R   0.044402 0.913137 0.741278 0.497080
C204  C     C_R   0.858840 0.771981 0.205626 0.761416
C205  C     C_R   0.325570 0.741731 0.081787 -0.195090
C206  C     C_R   0.663078 0.220990 0.846275 -0.133420
C207  C     C_R   0.714019 0.639913 0.031769 -0.175288
C208  C     C_R   0.337750 0.216256 0.164581 -0.138617
C209  C     C_R   0.786078 0.142424 0.971046 -0.174507
C210  C     C_R   0.212654 0.839600 0.000158 -0.191099
C211  C     C_R   0.212659 0.141170 0.034559 -0.188158
C212  C     C_R   0.837884 0.717727 0.157422 -0.134449
C213  C     C_R   0.643125 0.583516 0.569468 0.767180
C214  C     C_R   0.761992 0.333003 0.554435 -0.447867
C215  C     C_R   0.355132 0.422798 0.430469 0.739522
C216  C     C_R   0.358579 0.587154 0.430446 0.773199
C217  C     C_R   0.644436 0.421789 0.569646 0.739013
C218  C     C_R   0.142229 0.085898 0.569023 0.772522
C219  C     C_R   0.855338 0.922027 0.430192 0.739089
C220  C     C_R   0.857765 0.085184 0.431177 0.782425
C221  C     C_R   0.144381 0.921515 0.569420 0.730371
C222  C     C_R   0.351541 0.767914 0.047107 -0.157773
C223  C     C_R   0.643225 0.199691 0.895926 -0.261777
C224  C     C_R   0.690129 0.670156 0.068499 -0.171284
F1    F     F_    0.656710 0.294989 0.744223 -0.673346
F2    F     F_    0.312030 0.428397 0.346535 -0.536121
F3    F     F_    0.314442 0.584597 0.347320 -0.526023
F4    F     F_    0.687428 0.426226 0.654109 -0.525223
F5    F     F_    0.186668 0.083147 0.651622 -0.530565
F6    F     F_    0.812100 0.927876 0.346474 -0.528291
F7    F     F_    0.813122 0.080441 0.348998 -0.510292
F8    F     F_    0.186871 0.922326 0.654739 -0.563518
F9    F     F_    0.577104 0.580044 0.334203 -0.615652
F10   F     F_    0.419346 0.436805 0.663840 -0.625714
F11   F     F_    0.424116 0.585572 0.665900 -0.606591
F12   F     F_    0.300536 0.646411 0.100203 -0.610284
F13   F     F_    0.580867 0.434838 0.336341 -0.602064
F14   F     F_    0.076178 0.081434 0.333730 -0.617394
F15   F     F_    0.917835 0.938992 0.661940 -0.608808
F16   F     F_    0.923320 0.081512 0.666029 -0.602400
F17   F     F_    0.081252 0.937553 0.336875 -0.633791
F18   F     F_    0.338365 0.599031 0.240565 -0.538647
F19   F     F_    0.662867 0.403437 0.762168 -0.559867
F20   F     F_    0.662750 0.600023 0.757865 -0.558151
F21   F     F_    0.337775 0.398864 0.241838 -0.576461
F22   F     F_    0.837871 0.100104 0.243727 -0.557807
F23   F     F_    0.348056 0.291251 0.269576 -0.676992
F24   F     F_    0.165840 0.921456 0.772869 -0.567956
F25   F     F_    0.163805 0.096248 0.761568 -0.559843
F26   F     F_    0.837690 0.899064 0.241397 -0.571319
F27   F     F_    0.750677 0.430427 0.596163 -0.526625
F28   F     F_    0.257365 0.588754 0.410063 -0.542950
F29   F     F_    0.248888 0.432245 0.405855 -0.536813
F30   F     F_    0.745227 0.580493 0.580575 -0.536753
F31   F     F_    0.250883 0.931937 0.599952 -0.543065
F32   F     F_    0.756543 0.082355 0.417522 -0.532342
F33   F     F_    0.750094 0.931199 0.412283 -0.533217
F34   F     F_    0.701049 0.575469 0.912694 -0.586723
F35   F     F_    0.242798 0.084215 0.580618 -0.545870
F36   F     F_    0.838322 0.386248 0.667033 -0.574898
F37   F     F_    0.172082 0.636862 0.328107 -0.607124
F38   F     F_    0.160915 0.387710 0.337702 -0.584527
F39   F     F_    0.832558 0.623487 0.641611 -0.572560
F40   F     F_    0.338970 0.889581 0.667074 -0.598397
F41   F     F_    0.669499 0.124045 0.354594 -0.573767
F42   F     F_    0.662499 0.887708 0.349218 -0.580864
F43   F     F_    0.329743 0.126874 0.642263 -0.581231
F44   F     F_    0.203856 0.935442 0.936527 -0.640896
F45   F     F_    0.797935 0.077632 0.087981 -0.586736
F46   F     F_    0.848359 0.790442 0.265446 -0.678829
F47   F     F_    0.202403 0.076034 0.918089 -0.578604
F48   F     F_    0.687445 0.578512 0.651880 -0.511733
H1    H     H_    0.419531 0.763392 0.044247 0.217001
H2    H     H_    0.395526 0.698907 0.615861 0.204854
H3    H     H_    0.446845 0.183082 0.643999 0.157724
H4    H     H_    0.902848 0.371606 0.617972 0.180885
H5    H     H_    0.909960 0.301045 0.575066 0.091386
H6    H     H_    0.960657 0.329705 0.682982 0.154079
H7    H     H_    0.097426 0.711351 0.415052 0.094300
H8    H     H_    0.107583 0.645296 0.367387 0.199429
H9    H     H_    0.049084 0.685478 0.303119 0.157783
H10   H     H_    0.096392 0.371897 0.387285 0.180597
H11   H     H_    0.090427 0.301157 0.430767 0.099454
H12   H     H_    0.038852 0.328141 0.323471 0.150200
H13   H     H_    0.384658 0.324037 0.615297 0.206597
H14   H     H_    0.899234 0.719474 0.547035 0.101966
H15   H     H_    0.895524 0.645494 0.585058 0.183926
H16   H     H_    0.952707 0.690026 0.650059 0.163550
H17   H     H_    0.773623 0.130984 0.719739 0.127397
H18   H     H_    0.838380 0.124071 0.821340 0.158121
H19   H     H_    0.827236 0.165944 0.726717 0.195312
H20   H     H_    0.214377 0.662430 0.155484 0.224754
H21   H     H_    0.152446 0.693354 0.067907 0.089978
H22   H     H_    0.167722 0.681299 0.179574 0.202172
H23   H     H_    0.219126 0.138168 0.281737 0.128434
H24   H     H_    0.607436 0.695181 0.396671 0.174972
H25   H     H_    0.155622 0.129949 0.177004 0.153426
H26   H     H_    0.164614 0.174855 0.268154 0.197354
H27   H     H_    0.898539 0.548826 0.126549 0.108219
H28   H     H_    0.937215 0.615781 0.148709 0.091638
H29   H     H_    0.927711 0.562357 0.065676 0.194719
H30   H     H_    0.286462 0.814182 0.815452 0.167681
H31   H     H_    0.334963 0.756343 0.870529 0.122718
H32   H     H_    0.346253 0.820860 0.824975 0.207477
H33   H     H_    0.600420 0.050970 0.872221 0.106578
H34   H     H_    0.561808 0.117488 0.848876 0.100122
H35   H     H_    0.116108 0.828467 0.372249 0.210184
H36   H     H_    0.569957 0.064686 0.930856 0.193615
H37   H     H_    0.725269 0.630057 0.282424 0.133434
H38   H     H_    0.660533 0.623532 0.180206 0.160521
H39   H     H_    0.672257 0.666060 0.275368 0.190148
H40   H     H_    0.395499 0.040980 0.143293 0.112652
H41   H     H_    0.437029 0.105780 0.169106 0.121365
H42   H     H_    0.428297 0.051155 0.087990 0.194475
H43   H     H_    0.894484 0.195538 0.616043 0.203639
H44   H     H_    0.887319 0.818519 0.605060 0.174134
H45   H     H_    0.104872 0.195956 0.386845 0.203666
H46   H     H_    0.572152 0.511354 0.864743 0.014785
H47   H     H_    0.508189 0.486641 0.772737 0.180686
H48   H     H_    0.517698 0.520883 0.871441 0.157587
H49   H     H_    0.595511 0.219354 0.945550 0.221873
H50   H     H_    0.486000 0.286078 0.335239 0.077884
H51   H     H_    0.548271 0.318647 0.408124 0.061864
H52   H     H_    0.531107 0.280937 0.305176 0.214357
H53   H     H_    0.416606 0.555336 0.090019 0.096182
H54   H     H_    0.438054 0.493719 0.169255 0.037325
H55   H     H_    0.473458 0.515002 0.122078 0.155271
H56   H     H_    0.514804 0.285206 0.680026 0.072877
H57   H     H_    0.454116 0.318574 0.600312 0.058411
H58   H     H_    0.466886 0.285914 0.703447 0.214509
H59   H     H_    0.074181 0.008938 0.860628 0.049440
H60   H     H_    0.618491 0.703576 0.042614 0.222345
H61   H     H_    0.012950 0.002146 0.845993 0.193470
H62   H     H_    0.056662 0.059350 0.918329 0.101133
H63   H     H_    0.986348 0.784748 0.314127 0.074076
H64   H     H_    0.047026 0.819430 0.393739 0.051585
H65   H     H_    0.033218 0.789537 0.288245 0.205166
H66   H     H_    0.928266 0.009434 0.136532 0.016780
H67   H     H_    0.992515 0.987025 0.228747 0.185525
H68   H     H_    0.982527 0.019832 0.129301 0.149391
H69   H     H_    0.030529 0.806825 0.770393 0.088730
H70   H     H_    0.978408 0.829009 0.657709 0.007760
H71   H     H_    0.406704 0.208143 0.068202 0.222996
H72   H     H_    0.968080 0.820362 0.746784 0.188352
H73   H     H_    0.615923 0.397159 0.932978 0.110050
H74   H     H_    0.625217 0.342770 0.016663 0.128470
H75   H     H_    0.572215 0.393260 0.967554 0.167191
H76   H     H_    0.503015 0.714566 0.278081 0.058457
H77   H     H_    0.500922 0.758478 0.189981 0.124128
H78   H     H_    0.542390 0.695751 0.237497 0.206275
H79   H     H_    0.385710 0.385753 0.067876 0.105162
H80   H     H_    0.378455 0.327369 0.989776 0.127263
H81   H     H_    0.430870 0.379580 0.036767 0.168506
H82   H     H_    0.882694 0.204043 0.960444 0.225905
H83   H     H_    0.566419 0.731698 0.787983 0.092566
H84   H     H_    0.573291 0.769432 0.885263 0.127749
H85   H     H_    0.511234 0.746559 0.790862 0.192394
H86   H     H_    0.089682 0.947475 0.007367 0.089258
H87   H     H_    0.073529 0.882054 0.047546 0.150004
H88   H     H_    0.024033 0.926881 0.960029 0.170007
H89   H     H_    0.937232 0.231190 0.216745 0.091254
H90   H     H_    0.930437 0.268945 0.120036 0.128707
H91   H     H_    0.992203 0.245084 0.212554 0.197364
H92   H     H_    0.881526 0.894878 0.067226 0.115337
H93   H     H_    0.126560 0.807065 0.055766 0.207554
H94   H     H_    0.870866 0.840217 0.982081 0.129899
H95   H     H_    0.923567 0.892027 0.029009 0.160782
H96   H     H_    0.066544 0.229993 0.782199 0.093269
H97   H     H_    0.071022 0.270276 0.875707 0.134680
H98   H     H_    0.009999 0.245346 0.780549 0.186847
H99   H     H_    0.730378 0.231956 0.647515 0.098114
H100  H     H_    0.735411 0.289923 0.724931 0.190540
H101  H     H_    0.676647 0.276590 0.618075 0.124699
H102  H     H_    0.316435 0.792851 0.298637 0.133110
H103  H     H_    0.362104 0.779772 0.267278 0.088070
H104  H     H_    0.115362 0.208309 0.036308 0.225986
H105  H     H_    0.359489 0.731018 0.343994 0.158720
H106  H     H_    0.263474 0.240741 0.351116 0.099966
H107  H     H_    0.263504 0.295129 0.274760 0.189571
H108  H     H_    0.319918 0.282015 0.384458 0.125826
H109  H     H_    0.753880 0.524560 0.089532 0.120699
H110  H     H_    0.824072 0.523973 0.157897 0.049217
H111  H     H_    0.787973 0.469909 0.069843 0.173841
H112  H     H_    0.309499 0.932925 0.886375 0.124149
H113  H     H_    0.319874 0.942157 0.997085 -0.027266
H114  H     H_    0.265773 0.974850 0.898279 0.239277
H115  H     H_    0.902272 0.717348 0.052279 0.220523
H116  H     H_    0.743734 0.027590 0.910060 0.121170
H117  H     H_    0.673551 0.027609 0.842019 0.046759
H118  H     H_    0.708624 0.973383 0.928558 0.173004
H119  H     H_    0.770622 0.731467 0.356385 0.100091
H120  H     H_    0.767382 0.788433 0.279981 0.187025
H121  H     H_    0.825572 0.774970 0.386958 0.125960
H122  H     H_    0.248339 0.025055 0.098028 0.153350
H123  H     H_    0.318285 0.027665 0.175286 0.052720
H124  H     H_    0.287287 0.969148 0.093401 0.169371
H125  H     H_    0.406925 0.875655 0.622428 0.177899
H126  H     H_    0.614593 0.320698 0.383987 0.211181
H127  H     H_    0.414164 0.805360 0.579013 0.086390
H128  H     H_    0.463659 0.832141 0.689237 0.150409
H129  H     H_    0.602263 0.210747 0.452245 0.106242
H130  H     H_    0.610893 0.139499 0.413027 0.187158
H131  H     H_    0.551102 0.177551 0.348387 0.158995
H132  H     H_    0.600975 0.870562 0.406337 0.191147
H133  H     H_    0.596232 0.798639 0.448561 0.108659
H134  H     H_    0.543046 0.827160 0.344290 0.154501
H135  H     H_    0.394972 0.216402 0.542494 0.115817
H136  H     H_    0.386791 0.144256 0.579765 0.188632
N1    N     N_R   0.532970 0.559900 0.665210 -0.175204
N2    N     N_R   0.402100 0.440070 0.454470 -0.182468
N3    N     N_R   0.402100 0.559930 0.454470 -0.186694
N4    N     N_R   0.597900 0.440070 0.545530 -0.189083
N5    N     N_R   0.097900 0.059930 0.545530 -0.184323
N6    N     N_R   0.902100 0.940070 0.454470 -0.184791
N7    N     N_R   0.902100 0.059930 0.454470 -0.188041
N8    N     N_R   0.097900 0.940070 0.545530 -0.179381
N9    N     N_R   0.567170 0.559950 0.454460 -0.179252
N10   N     N_R   0.432830 0.440050 0.545540 -0.176108
N11   N     N_R   0.432830 0.559950 0.545540 -0.181360
N12   N     N_R   0.467030 0.440100 0.334790 -0.157735
N13   N     N_R   0.567170 0.440050 0.454460 -0.176734
N14   N     N_R   0.067170 0.059950 0.454460 -0.179046
N15   N     N_R   0.932830 0.940050 0.545540 -0.175676
N16   N     N_R   0.932830 0.059950 0.545540 -0.177316
N17   N     N_R   0.067170 0.940050 0.454460 -0.173394
N18   N     N_R   0.421470 0.559970 0.334770 -0.177642
N19   N     N_R   0.578530 0.440030 0.665230 -0.176393
N20   N     N_R   0.578530 0.559970 0.665230 -0.177083
N21   N     N_R   0.421470 0.440030 0.334770 -0.177331
N22   N     N_R   0.921470 0.059970 0.334770 -0.177493
N23   N     N_R   0.467030 0.559900 0.334790 -0.165455
N24   N     N_R   0.078530 0.940030 0.665230 -0.172112
N25   N     N_R   0.078530 0.059970 0.665230 -0.183347
N26   N     N_R   0.921470 0.940030 0.334770 -0.174797
N27   N     N_R   0.532970 0.440100 0.665210 -0.169689
N28   N     N_R   0.032970 0.059900 0.665210 -0.167885
N29   N     N_R   0.967030 0.940100 0.334790 -0.169011
N30   N     N_R   0.967030 0.059900 0.334790 -0.173809
N31   N     N_R   0.032970 0.940100 0.665210 -0.159519
N32   N     N_R   0.597900 0.559930 0.545530 -0.188658
Ni1   Ni    Ni4+2 0.483030 0.500000 0.604430 0.231079
Ni2   Ni    Ni4+2 0.516970 0.500000 0.395570 0.265372
Ni3   Ni    Ni4+2 0.983030 0.000000 0.604430 0.266695
Ni4   Ni    Ni4+2 0.016970 0.000000 0.395570 0.232248
Ni5   Ni    Ni4+2 0.587400 0.500000 0.604430 0.322080
Ni6   Ni    Ni4+2 0.412600 0.500000 0.395570 0.313288
Ni7   Ni    Ni4+2 0.087400 0.000000 0.604430 0.317574
Ni8   Ni    Ni4+2 0.912600 0.000000 0.395570 0.323907
O1    O     O_3   0.519113 0.577802 0.783324 -0.507778
O2    O     O_3   0.466378 0.674096 0.150919 -0.574570
O3    O     O_3   0.438040 0.315807 0.125044 -0.561790
O4    O     O_3   0.556121 0.678555 0.872735 -0.544540
O5    O     O_3   0.060856 0.873332 0.919948 -0.575795
O6    O     O_3   0.945142 0.177786 0.128996 -0.547111
O7    O     O_3   0.933262 0.824204 0.113737 -0.564636
O8    O     O_3   0.054894 0.179332 0.867461 -0.558091
O9    O     O_3   0.693486 0.211800 0.711551 -0.626169
O10   O     O_3   0.299652 0.720953 0.211444 -0.522804
O11   O     O_3   0.302720 0.214198 0.293948 -0.623627
O12   O     O_3   0.502794 0.364998 0.288308 -0.520258
O13   O     O_3   0.788795 0.553532 0.024756 -0.496584
O14   O     O_3   0.259193 0.883919 0.903701 -0.579719
O15   O     O_3   0.709687 0.057134 0.976062 -0.496286
O16   O     O_3   0.807457 0.709294 0.292936 -0.621419
O17   O     O_3   0.288070 0.049885 0.040246 -0.547507
O18   O     O_3   0.399869 0.798426 0.680031 -0.578070
O19   O     O_3   0.609105 0.215035 0.342384 -0.578386
O20   O     O_3   0.602190 0.795698 0.337448 -0.603549
O21   O     O_3   0.390024 0.218578 0.654583 -0.585807
O22   O     O_3   0.899131 0.294812 0.680335 -0.573275
O23   O     O_3   0.481537 0.572561 0.219039 -0.501831
O24   O     O_3   0.111008 0.727557 0.314833 -0.589415
O25   O     O_3   0.100061 0.295282 0.323977 -0.576749
O26   O     O_3   0.892713 0.716877 0.657647 -0.583824
O27   O     O_3   0.804145 0.207305 0.801161 -0.632236
O28   O     O_3   0.204648 0.752977 0.168666 -0.637201
O29   O     O_3   0.191785 0.212561 0.197725 -0.631585
O30   O     O_3   0.864868 0.613992 0.026714 -0.551252
O31   O     O_3   0.351202 0.835969 0.943320 -0.635424
O32   O     O_3   0.633364 0.117014 0.972455 -0.552881
O33   O     O_3   0.696740 0.706219 0.202352 -0.634183
O34   O     O_3   0.498563 0.368119 0.718454 -0.531385
O35   O     O_3   0.366683 0.106168 0.043534 -0.569665
O36   O     O_3   0.017540 0.074402 0.780985 -0.504784
O37   O     O_3   0.000773 0.869722 0.278377 -0.533720
O38   O     O_3   0.980776 0.077831 0.216572 -0.510217
O39   O     O_3   0.007762 0.896112 0.756314 -0.526069
O40   O     O_3   0.564434 0.325182 0.883603 -0.560696

loop_
_geom_bond_atom_site_label_1
_geom_bond_atom_site_label_2
_ccdc_geom_bond_type
C21   O14   S    
N24   N31   A    
C100  H61   S    
C123  O18   S    
C158  F42   S    
C42   N17   A    
C153  C166  A    
C102  H63   S    
C7    C186  A    
C47   F21   S    
C74   C83   A    
C192  N30   A    
C97   H51   S    
C66   C85   S    
C7    C212  A    
C18   O10   S    
C119  O14   S    
C99   H57   S    
C1    N1    A    
C5    C210  A    
C49   C60   A    
C7    C29   A    
C183  H82   S    
C67   C220  A    
C40   F15   S    
C61   C82   S    
C94   F33   S    
C184  C193  A    
N21   Ni6   S    
N7    N16   A    
N19   Ni5   S    
C2    C90   A    
C48   F22   S    
C120  O15   S    
C11   C15   A    
C111  H95   S    
C10   C20   A    
C22   O15   S    
C221  N8    A    
C30   O31   S    
C5    C27   A    
C174  C191  A    
C139  O33   S    
C155  F39   S    
C59   C174  S    
C44   N19   A    
C122  H124  S    
C121  H120  S    
C126  O20   S    
C39   C65   A    
C54   C169  S    
C197  C206  A    
C36   C62   A    
C32   C224  A    
N29   Ni4   S    
C152  C165  A    
C38   C64   A    
C124  C147  A    
C68   C95   A    
C31   O32   S    
C216  F3    S    
C74   C147  A    
C169  C187  A    
C30   C222  A    
C181  O37   S    
C136  H29   S    
C179  C188  A    
C188  O40   S    
C152  C214  A    
C167  O25   S    
C34   C61   A    
C82   C91   A    
C166  O24   S    
C105  H75   S    
C113  C146  A    
C98   O23   S    
C218  F5    S    
C66   C219  A    
N3    Ni6   S    
N31   Ni3   S    
C131  H14   S    
C43   C54   A    
N25   N28   A    
N15   Ni3   S    
C204  C212  A    
C218  N5    A    
C177  C204  A    
C137  H30   S    
C192  O38   S    
C62   C81   S    
C154  C167  A    
C162  O19   S    
C219  F6    S    
C41   N16   A    
C198  F34   S    
C157  F41   S    
C14   C21   A    
C21   C30   A    
C159  O34   S    
C35   C124  A    
C40   N15   A    
C177  C195  A    
C111  O7    S    
C72   H13   S    
C127  H3    S    
C28   O29   S    
C115  H101  S    
C123  H128  S    
C102  O37   S    
N20   Ni5   S    
C108  O4    S    
N18   Ni6   S    
C200  C209  A    
C121  O16   S    
C215  F2    S    
C203  N31   A    
C207  C224  A    
C80   C88   A    
C10   C16   A    
C44   C55   A    
C139  H38   S    
N1    Ni1   S    
N4    N13   A    
C220  N7    A    
C151  C167  A    
C140  H41   S    
C114  H98   S    
C180  C224  A    
C69   C221  A    
C84   C93   A    
C8    C205  A    
C3    C182  A    
C13   C154  A    
C70   H126  S    
C148  N23   A    
C86   C95   A    
C217  F4    S    
C92   F31   S    
C122  H122  S    
C132  H17   S    
C182  C190  A    
C68   C160  A    
C157  C162  A    
C175  C193  A    
C75   H43   S    
C180  H60   S    
C41   F16   S    
C204  F46   S    
C78   C87   A    
C130  O25   S    
N25   Ni7   S    
C127  H136  S    
C173  C190  A    
C202  C211  A    
N22   N30   A    
C96   H48   S    
C93   F32   S    
C53   C173  S    
C87   F27   S    
C109  H87   S    
C101  C145  A    
C70   C143  A    
C47   N21   A    
C64   C217  A    
C56   C176  S    
C58   C181  A    
C103  H66   S    
C12   C209  A    
C107  H79   S    
C180  C189  A    
C187  O2    S    
C75   C84   A    
C15   C25   A    
C98   H54   S    
C36   F10   S    
C72   C145  A    
C216  N3    A    
C12   C22   A    
C213  F48   S    
C137  H32   S    
C134  H26   S    
C140  O35   S    
C156  F40   S    
C79   C143  A    
C110  H90   S    
C159  N27   A    
C106  H76   S    
C191  O6    S    
C68   C142  A    
C181  N29   A    
C63   C216  A    
C153  F37   S    
C137  O31   S    
C5    C184  A    
C132  O27   S    
C138  H36   S    
C150  C168  A    
C39   N14   A    
C111  H92   S    
C117  H107  S    
N16   Ni3   S    
C203  O39   S    
C138  H33   S    
C61   C213  A    
C115  H99   S    
C128  H6    S    
C141  C150  A    
C37   F11   S    
C63   C80   S    
C43   F18   S    
C106  H77   S    
C49   F24   S    
C176  C202  A    
C165  O22   S    
C149  C165  A    
C41   C67   A    
C100  H59   S    
C6    C211  A    
C118  H110  S    
C45   C52   A    
C117  O11   S    
C49   N24   A    
C50   C56   A    
C4    C209  A    
C129  H9    S    
C130  H11   S    
C23   O16   S    
C101  C142  A    
C109  O5    S    
C76   C150  A    
C34   N9    A    
C107  O3    S    
C132  H19   S    
C133  H22   S    
C19   C28   A    
C158  C163  A    
C178  H1    S    
C156  C161  A    
C16   C23   A    
C57   C94   A    
C126  H133  S    
C119  H114  S    
C48   C59   A    
C54   C148  A    
C120  H117  S    
C100  H62   S    
C220  F7    S    
C56   C170  A    
C198  C207  A    
N32   Ni5   S    
C102  H64   S    
N7    Ni8   S    
N8    Ni7   S    
N5    N14   A    
C136  H27   S    
C51   N26   A    
C47   C53   A    
N11   Ni1   S    
C119  H112  S    
C103  O38   S    
C27   O28   S    
N23   Ni2   S    
C75   C149  A    
C185  H104  S    
C76   C85   A    
C221  F8    S    
C199  C208  A    
C43   N18   A    
C113  C141  A    
C4    C183  A    
C9    C12   A    
C138  H34   S    
C184  H93   S    
C139  H39   S    
C20   C29   A    
C34   F9    S    
C90   C144  A    
C88   F28   S    
C25   C33   A    
C1    O1    S    
C57   C158  A    
C144  C161  A    
C173  C199  A    
C62   C215  A    
C128  H5    S    
C138  O32   S    
C185  C194  A    
C134  O29   S    
C19   O11   S    
C122  O17   S    
C65   C86   S    
C17   O9    S    
C11   C19   A    
C171  C188  A    
C73   H24   S    
N14   Ni4   S    
C160  C164  A    
N12   Ni2   S    
C9    C206  A    
C131  H16   S    
C3    C33   A    
C45   N20   A    
C205  C222  A    
C129  H8    S    
C105  H74   S    
C103  H67   S    
C51   F26   S    
C108  H84   S    
C37   C63   A    
C46   C135  A    
C79   C214  A    
C33   O35   S    
C116  O10   S    
C72   C81   A    
C116  H103  S    
C186  H115  S    
C81   C89   A    
C35   C92   A    
C55   C159  A    
C40   C66   A    
C189  O4    S    
N19   N27   A    
C59   C192  A    
C200  F45   S    
C64   C78   S    
C193  O5    S    
C97   H52   S    
C55   C171  S    
N6    N15   A    
C213  N32   A    
C99   H58   S    
C182  H71   S    
C32   O33   S    
C179  H49   S    
C123  H127  S    
N24   Ni7   S    
C196  F12   S    
C168  O26   S    
C8    C18   A    
C128  O22   S    
C97   H50   S    
C25   O17   S    
N5    Ni7   S    
C102  H65   S    
C154  F38   S    
N28   Ni3   S    
N6    Ni8   S    
N26   Ni8   S    
C139  H37   S    
C155  C168  A    
C77   H45   S    
C104  H69   S    
N12   N21   A    
C51   C58   A    
C45   F20   S    
N27   Ni1   S    
C178  C187  A    
C145  C164  A    
C122  H123  S    
C132  H18   S    
C17   C26   A    
C96   H46   S    
C73   C82   A    
C127  H135  S    
C90   C124  A    
N2    N10   A    
N10   Ni1   S    
C4    C26   A    
C172  C189  A    
C79   C135  A    
C109  H86   S    
C42   F17   S    
C174  C200  A    
C57   C141  A    
C125  H130  S    
C108  H85   S    
C23   C32   A    
C140  H40   S    
C98   H55   S    
N9    N32   A    
N1    N20   A    
C52   C172  S    
C137  H31   S    
C29   O30   S    
C112  N12   A    
C1    C52   A    
N9    Ni2   S    
C116  H105  S    
C120  H116  S    
C110  H91   S    
C130  H10   S    
C60   C175  S    
C127  O21   S    
C176  C194  A    
C71   C144  A    
C197  F1    S    
C99   H56   S    
C103  H68   S    
C36   N10   A    
C117  H106  S    
C148  O23   S    
C70   C78   A    
C202  F47   S    
C77   C151  A    
C104  H70   S    
C121  H119  S    
C95   F35   S    
C83   C92   A    
C6    C185  A    
C106  H78   S    
C71   H2    S    
C190  O3    S    
C3    C208  A    
C96   O1    S    
C108  H83   S    
C170  O36   S    
C65   C218  A    
C111  H94   S    
C118  H111  S    
C112  O12   S    
C97   O12   S    
C114  H97   S    
C196  C205  A    
C134  H23   S    
C128  H4    S    
C217  N4    A    
C130  H12   S    
C26   O27   S    
C87   C214  A    
C76   H44   S    
C15   C211  A    
C163  O20   S    
C2    C88   A    
C201  F44   S    
C133  H21   S    
C161  O18   S    
C143  C162  A    
C195  O7    S    
C24   C155  A    
C199  F23   S    
N4    Ni5   S    
C129  O24   S    
N2    Ni6   S    
C215  N2    A    
C140  H42   S    
C67   C84   S    
C89   F29   S    
C126  H134  S    
C115  O9    S    
C96   H47   S    
C71   C80   A    
C119  H113  S    
C116  H102  S    
C169  C196  A    
C120  H118  S    
N18   N23   A    
C109  H88   S    
C6    C28   A    
C99   O34   S    
C22   C31   A    
C14   C210  A    
N26   N29   A    
C133  H20   S    
C186  C195  A    
C16   C212  A    
C136  O30   S    
C35   C156  A    
C175  C201  A    
C107  H80   S    
C98   H53   S    
N3    N11   A    
C135  C149  A    
C46   C157  A    
C42   C69   A    
C179  C223  A    
C134  H25   S    
C38   N13   A    
C10   C207  A    
C69   C83   S    
C147  C166  A    
C110  O6    S    
C85   C94   A    
C152  F36   S    
C60   C203  A    
C110  H89   S    
C206  C223  A    
N8    N17   A    
C123  H125  S    
C118  O13   S    
C105  H73   S    
C125  O19   S    
C106  O2    S    
N30   Ni4   S    
C172  C198  A    
C118  H109  S    
C50   F25   S    
C131  O26   S    
C31   C223  A    
C107  H81   S    
C53   C112  A    
C9    C17   A    
C117  H108  S    
C77   C86   A    
C2    C153  A    
C164  O21   S    
C11   C208  A    
C13   C101  A    
C115  H100  S    
C24   C91   A    
C201  C210  A    
C104  H72   S    
C121  H121  S    
C100  O36   S    
C8    C14   A    
C13   C89   A    
C194  O8    S    
C18   C27   A    
N17   Ni4   S    
C219  N6    A    
C183  C191  A    
C37   N11   A    
C91   F30   S    
C142  C151  A    
C146  C163  A    
N13   Ni2   S    
C73   C146  A    
C171  C197  A    
C114  O8    S    
C38   F13   S    
C131  H15   S    
C46   C93   A    
C20   O13   S    
C129  H7    S    
C58   C177  S    
C48   N22   A    
C133  O28   S    
C105  O40   S    
C24   C113  A    
C50   N25   A    
C160  F43   S    
C114  H96   S    
C125  H131  S    
C170  N28   A    
C126  H132  S    
C178  C222  A    
C104  O39   S    
C125  H129  S    
C39   F14   S    
C74   H35   S    
C136  H28   S    
C44   F19   S    
N22   Ni8   S    
