data_mof_unit_44588.cif
_audit_creation_date              2012-12-10T17:53:24-0500
_audit_creation_method            fapswitch 2.2
_symmetry_space_group_name_H-M    P1
_symmetry_Int_Tables_number       1
_space_group_crystal_system       triclinic
_cell_length_a                    23.194567
_cell_length_b                    10.641896
_cell_length_c                    9.959411
_cell_angle_alpha                 90.743741
_cell_angle_beta                  87.242827
_cell_angle_gamma                 91.421952
_cell_volume                      2454.54995348

loop_
_atom_site_label
_atom_site_type_symbol
_atom_type_description
_atom_site_fract_x
_atom_site_fract_y
_atom_site_fract_z
_atom_type_partial_charge
C1    C     C_R   0.504453 0.261320 0.499084 0.883714
C2    C     C_R   0.126764 0.617979 0.400577 0.574591
C3    C     C_R   0.237294 0.614901 0.535177 0.223661
C4    C     C_R   0.389428 0.501398 0.502790 0.973974
C5    C     C_R   0.297825 0.615873 0.532639 0.081983
C6    C     C_R   0.326726 0.502516 0.509351 -0.230152
C7    C     C_R   0.295141 0.388400 0.510923 0.078516
C8    C     C_R   0.234928 0.390283 0.518471 0.238956
C9    C     C_R   0.207713 0.504271 0.493499 0.010045
C10   C     C_R   0.761411 0.488317 0.343651 0.193356
C11   C     C_R   0.701720 0.484531 0.358326 -0.229929
C12   C     C_R   0.971822 0.280337 0.400979 -0.130208
C13   C     C_R   0.673934 0.501682 0.485386 -0.106800
C14   C     C_R   0.706750 0.522583 0.598404 -0.259320
C15   C     C_R   0.766849 0.526771 0.584255 0.202810
C16   C     C_R   0.503753 0.739333 0.500244 0.881745
C17   C     C_R   0.794160 0.509408 0.456569 0.204936
C18   C     C_R   0.590858 0.137555 0.655427 -0.174347
C19   C     C_R   0.629215 0.074709 0.732929 -0.103102
C20   C     C_R   0.628909 0.943992 0.733370 -0.116017
C21   C     C_R   0.590151 0.875508 0.656569 -0.180993
C22   C     C_R   0.549865 0.937541 0.579956 0.108031
C23   C     C_R   0.031915 0.280435 0.387351 -0.129125
C24   C     C_R   0.550400 0.069726 0.578971 0.100955
C25   C     C_R   0.511546 0.129295 0.496785 -0.103387
C26   C     C_R   0.477272 0.061907 0.409979 -0.157048
C27   C     C_R   0.476247 0.934152 0.411303 -0.145581
C28   C     C_R   0.610885 0.500343 0.496583 0.855914
C29   C     C_R   0.510173 0.872193 0.499435 -0.108116
C30   C     C_R   0.433077 0.315417 0.139811 -0.241363
C31   C     C_R   0.409782 0.214891 0.064825 0.109593
C32   C     C_R   0.413753 0.220579 0.924608 0.115427
C33   C     C_R   0.425254 0.337149 0.866510 0.162829
C34   C     C_R   0.063560 0.394348 0.391817 -0.031508
C35   C     C_R   0.464817 0.416239 0.930232 0.054795
C36   C     C_R   0.466355 0.411957 0.073901 0.132917
C37   C     C_R   0.532935 0.582792 0.068846 -0.085574
C38   C     C_R   0.533468 0.581689 0.925930 -0.073990
C39   C     C_R   0.885228 0.622155 0.429823 0.568225
C40   C     C_R   0.882696 0.397123 0.433035 0.566346
C41   C     C_R   0.942678 0.394364 0.414444 -0.019123
C42   C     C_R   0.974180 0.509166 0.409310 -0.011930
C43   C     C_R   0.945466 0.624291 0.414198 -0.019434
C44   C     C_R   0.034679 0.508737 0.400716 -0.015306
C45   C     C_R   0.066625 0.622613 0.396370 -0.034815
C46   C     C_R   0.037823 0.736935 0.393613 -0.126114
C47   C     C_R   0.977598 0.737815 0.403571 -0.131208
C48   C     C_R   0.123704 0.397745 0.393232 0.569360
H1    H     H_    0.677233 0.467977 0.269655 0.187496
H2    H     H_    0.659488 0.895422 0.791595 0.154774
H3    H     H_    0.593394 0.774429 0.655425 0.145825
H4    H     H_    0.447263 0.883497 0.346320 0.196145
H5    H     H_    0.559886 0.650577 0.120077 0.144639
H6    H     H_    0.053487 0.191312 0.379819 0.197169
H7    H     H_    0.425279 0.314322 0.246311 0.226698
H8    H     H_    0.449387 0.109207 0.344920 0.184447
H9    H     H_    0.560924 0.648509 0.870518 0.135210
H10   H     H_    0.061643 0.825751 0.389201 0.199659
H11   H     H_    0.956409 0.827417 0.405135 0.194500
H12   H     H_    0.948396 0.191003 0.402134 0.196816
H13   H     H_    0.685920 0.536653 0.696936 0.180305
H14   H     H_    0.594517 0.238906 0.653552 0.159343
H15   H     H_    0.660014 0.127647 0.790865 0.159094
I1    I     I_    0.814932 0.558989 0.757103 -0.246856
I2    I     I_    0.362293 0.064354 0.158927 -0.196259
I3    I     I_    0.396451 0.062668 0.800895 -0.171180
I4    I     I_    0.343816 0.424311 0.858646 -0.200302
I5    I     I_    0.192853 0.752842 0.657513 -0.120730
I6    I     I_    0.344968 0.787161 0.562196 -0.160755
I7    I     I_    0.337256 0.213968 0.503227 -0.197993
I8    I     I_    0.189380 0.246512 0.633173 -0.120150
I9    I     I_    0.800351 0.461891 0.148947 -0.251073
N1    N     N_R   0.855545 0.509799 0.441267 -0.348083
N2    N     N_R   0.152038 0.506818 0.430474 -0.326866
N3    N     N_R   0.499460 0.498800 0.142780 -0.102840
N4    N     N_R   0.499440 0.498720 0.857170 -0.108381
O1    O     O_R   0.500000 0.316780 0.614690 -0.617179
O2    O     O_R   0.583850 0.500050 0.614640 -0.643184
O3    O     O_R   0.583840 0.500030 0.385310 -0.620284
O4    O     O_2   0.856426 0.730878 0.434122 -0.523887
O5    O     O_2   0.851543 0.288513 0.442771 -0.524186
O6    O     O_2   0.153178 0.295320 0.352837 -0.502037
O7    O     O_2   0.159228 0.721429 0.370200 -0.500400
O8    O     O_R   0.500000 0.316750 0.385360 -0.641766
O9    O     O_R   0.416160 0.499970 0.614690 -0.574513
O10   O     O_R   0.416150 0.499950 0.385360 -0.612866
O11   O     O_R   0.500000 0.683250 0.614640 -0.605277
O12   O     O_R   0.500000 0.683220 0.385310 -0.618421
Zn1   Zn    Zn3+2 0.500000 0.500020 0.653130 0.979961
Zn2   Zn    Zn3+2 0.500000 0.499980 0.346870 0.965203

loop_
_geom_bond_atom_site_label_1
_geom_bond_atom_site_label_2
_ccdc_geom_bond_type
C17   N1    S    
C22   C29   A    
C27   C29   A    
C1    O1    A    
C41   C42   A    
C3    I5    S    
C7    I7    S    
C7    C8    A    
C38   N4    A    
C45   C46   A    
C27   H4    S    
C1    O8    A    
C12   C23   A    
O1    Zn1   S    
C26   C27   A    
C37   C38   A    
O8    Zn2   S    
C3    C9    A    
C5    C6    A    
C4    O10   A    
C10   C17   A    
C40   N1    A    
C31   I2    S    
C18   C19   A    
C28   O3    A    
O3    Zn2   S    
C5    I6    S    
N3    Zn2   S    
C19   C20   A    
C19   H15   S    
C8    C9    A    
C16   O11   A    
C20   H2    S    
C15   I1    S    
C13   C28   S    
C28   O2    A    
C2    N2    A    
N4    Zn1   S    
C37   H5    S    
C37   N3    A    
C2    C45   A    
C13   C14   A    
C46   H10   S    
C1    C25   S    
C2    O7    S    
C42   C44   A    
O2    Zn1   S    
C35   N4    A    
C48   N2    A    
C34   C44   A    
C24   C25   A    
C4    C6    S    
O10   Zn2   S    
O9    Zn1   S    
C18   H14   S    
C39   C43   A    
C4    O9    A    
C25   C26   A    
C14   H13   S    
C35   C36   A    
C12   C41   A    
C11   H1    S    
C36   N3    A    
C38   H9    S    
C31   C32   A    
C23   C34   A    
C40   C41   A    
O12   Zn2   S    
O11   Zn1   S    
C18   C24   A    
C34   C48   A    
C9    N2    S    
C21   H3    S    
C44   C45   A    
C33   I4    S    
C23   H6    S    
C32   I3    S    
C15   C17   A    
C46   C47   A    
C8    I8    S    
C40   O5    S    
C3    C5    A    
C26   H8    S    
C6    C7    A    
C30   H7    S    
C30   C36   A    
C32   C33   A    
C16   C29   S    
C39   O4    S    
C11   C13   A    
C30   C31   A    
C33   C35   A    
C48   O6    S    
C22   C24   A    
C39   N1    A    
C10   C11   A    
C47   H11   S    
C12   H12   S    
C20   C21   A    
C42   C43   A    
C16   O12   A    
C14   C15   A    
C21   C22   A    
C43   C47   A    
C10   I9    S    
