data_mof_unit_28200.cif
_audit_creation_date              2012-10-26T19:15:05-0400
_audit_creation_method            fapswitch 2.2
_symmetry_space_group_name_H-M    P1
_symmetry_Int_Tables_number       1
_space_group_crystal_system       triclinic
_cell_length_a                    10.850171
_cell_length_b                    10.878658
_cell_length_c                    9.577188
_cell_angle_alpha                 91.462961
_cell_angle_beta                  89.40144
_cell_angle_gamma                 91.713807
_cell_volume                      1129.51922931

loop_
_atom_site_label
_atom_site_type_symbol
_atom_type_description
_atom_site_fract_x
_atom_site_fract_y
_atom_site_fract_z
_atom_type_partial_charge
C1    C     C_R   0.495479 0.262630 0.498492 0.540345
C2    C     C_R   0.489692 0.942020 0.625027 0.045207
C3    C     C_3   0.582700 0.951470 0.739953 -0.043014
C4    C     C_R   0.262574 0.499020 0.500445 0.544824
C5    C     C_3   0.573103 0.089878 0.739330 -0.242240
C6    C     C_R   0.530117 0.605157 0.075380 0.195095
C7    C     C_R   0.454943 0.401643 0.072144 -0.015564
C8    C     C_R   0.453751 0.402173 0.923576 -0.012074
C9    C     C_R   0.533823 0.602907 0.928495 0.127436
C10   C     C_3   0.654744 0.669056 0.922737 -0.239043
C11   C     C_3   0.645621 0.685117 0.080169 -0.057394
C12   C     C_R   0.934938 0.490605 0.625733 0.067164
C13   C     C_R   0.498782 0.737996 0.501035 0.560676
C14   C     C_R   0.737510 0.496276 0.499548 0.548642
C15   C     C_R   0.062907 0.492821 0.625630 0.000917
C16   C     C_R   0.129484 0.501638 0.500723 0.004744
C17   C     C_R   0.066087 0.511037 0.374783 -0.168480
C18   C     C_R   0.938202 0.505018 0.374135 -0.184757
C19   C     C_R   0.871223 0.495207 0.499623 -0.009820
C20   C     C_3   0.929625 0.389324 0.729646 -0.033653
C21   C     C_3   0.069671 0.393807 0.730106 -0.259201
C22   C     C_R   0.484756 0.068719 0.622794 -0.009215
C23   C     C_R   0.481504 0.129708 0.497081 0.003727
C24   C     C_R   0.464827 0.060410 0.372694 -0.166295
C25   C     C_R   0.467345 0.931934 0.374737 -0.170423
C26   C     C_R   0.487775 0.871572 0.500890 0.020105
Cu1   Cu    Cu3+1 0.499990 0.499980 0.640670 0.958298
Cu2   Cu    Cu3+1 0.500010 0.500020 0.359330 0.950626
H1    H     H_    0.114863 0.517850 0.275885 0.137301
H2    H     H_    0.887820 0.301626 0.687188 0.137831
H3    H     H_    0.111705 0.428162 0.829617 0.136086
H4    H     H_    0.110527 0.308581 0.685746 0.114146
H5    H     H_    0.455731 0.104999 0.273660 0.123002
H6    H     H_    0.458500 0.880735 0.276730 0.125786
H7    H     H_    0.547408 0.912541 0.839055 0.127125
H8    H     H_    0.732138 0.952241 0.602390 0.238608
H9    H     H_    0.768054 0.938322 0.771681 0.220965
H10   H     H_    0.753536 0.676012 0.249280 0.247424
H11   H     H_    0.830001 0.659131 0.100443 0.201536
H12   H     H_    0.527455 0.127694 0.834820 0.108707
H13   H     H_    0.887454 0.358232 0.934191 0.230322
H14   H     H_    0.921226 0.506992 0.902806 0.227182
H15   H     H_    0.659028 0.140596 0.707383 0.145178
H16   H     H_    0.420303 0.321097 0.125424 0.104713
H17   H     H_    0.416866 0.322457 0.866903 0.111162
H18   H     H_    0.728700 0.608560 0.884450 0.196233
H19   H     H_    0.652504 0.755409 0.868892 0.139669
H20   H     H_    0.627974 0.781608 0.115036 0.098804
H21   H     H_    0.892791 0.503533 0.274729 0.166258
N1    N     N_R   0.500790 0.500930 0.147930 -0.207614
N2    N     N_R   0.500790 0.500890 0.852020 -0.227298
N3    N     N_3   0.704673 0.909858 0.695061 -0.643450
N4    N     N_3   0.748176 0.631839 0.151195 -0.588447
N5    N     N_3   0.874769 0.428089 0.863219 -0.618286
O1    O     O_R   0.500000 0.319640 0.618810 -0.513051
O2    O     O_R   0.500010 0.319680 0.381230 -0.515184
O3    O     O_R   0.319650 0.499970 0.618810 -0.504023
O4    O     O_R   0.319660 0.500010 0.381230 -0.515710
O5    O     O_R   0.499990 0.680320 0.618770 -0.486755
O6    O     O_R   0.500000 0.680360 0.381190 -0.517326
O7    O     O_R   0.680340 0.499990 0.618770 -0.475476
O8    O     O_R   0.680350 0.500030 0.381190 -0.482052

loop_
_geom_bond_atom_site_label_1
_geom_bond_atom_site_label_2
_ccdc_geom_bond_type
C4    O3    A    
C10   H18   S    
C15   C21   S    
C23   C24   A    
C2    C22   A    
C13   C26   S    
C13   O5    A    
Cu2   O4    S    
C17   H1    S    
C9    C10   S    
C24   H5    S    
C11   N4    S    
C12   C15   A    
C3    H7    S    
C25   H6    S    
C3    N3    S    
C12   C20   S    
C6    C9    A    
C2    C3    S    
C5    H15   S    
C7    C8    A    
C2    C26   A    
C13   O6    A    
Cu1   O5    S    
C7    H16   S    
H14   N5    S    
C21   H3    S    
C8    N2    A    
C11   H20   S    
H11   N4    S    
H10   N4    S    
C12   C19   A    
H8    N3    S    
C4    C16   S    
C25   C26   A    
C1    O2    A    
Cu1   N2    S    
C17   C18   A    
C1    C23   S    
Cu2   O6    S    
Cu2   O2    S    
H13   N5    S    
C21   H4    S    
Cu1   O1    S    
C1    O1    A    
C10   C11   S    
C15   C16   A    
C14   O8    A    
C10   H19   S    
C24   C25   A    
C7    N1    A    
C20   N5    S    
C18   C19   A    
Cu1   O3    S    
C5    H12   S    
C4    O4    A    
C6    C11   S    
H9    N3    S    
C22   C23   A    
C20   H2    S    
Cu1   O7    S    
C3    C5    S    
C20   C21   S    
C8    H17   S    
C14   O7    A    
Cu2   N1    S    
C14   C19   S    
C6    N1    A    
C5    C22   S    
C18   H21   S    
Cu2   O8    S    
C16   C17   A    
Cu1   Cu2   S    
C9    N2    A    
