data_mof_unit_63705.cif
_audit_creation_date              2012-12-10T19:56:28-0500
_audit_creation_method            fapswitch 2.2
_symmetry_space_group_name_H-M    P1
_symmetry_Int_Tables_number       1
_space_group_crystal_system       triclinic
_cell_length_a                    14.950355
_cell_length_b                    14.149815
_cell_length_c                    23.402733
_cell_angle_alpha                 89.999669
_cell_angle_beta                  90.159918
_cell_angle_gamma                 90.125381
_cell_volume                      4950.69433846

loop_
_atom_site_label
_atom_site_type_symbol
_atom_type_description
_atom_site_fract_x
_atom_site_fract_y
_atom_site_fract_z
_atom_type_partial_charge
C1    C     C_R   0.328145 0.499893 0.500106 0.914571
C2    C     C_R   0.672098 0.500096 0.499317 0.875826
C3    C     C_R   0.533711 0.556411 0.233412 0.128814
C4    C     C_R   0.519201 0.565402 0.767282 0.124655
C5    C     C_R   0.542217 0.561548 0.292938 -0.049223
C6    C     C_R   0.528157 0.570974 0.707818 -0.034653
C7    C     C_R   0.491714 0.499167 0.327344 -0.247135
C8    C     C_R   0.490601 0.498882 0.673157 -0.259719
C9    C     C_R   0.432593 0.433985 0.302121 0.528958
C10   C     C_R   0.443296 0.423750 0.698614 0.522577
C11   C     C_R   0.424217 0.429504 0.242935 0.004770
C12   C     C_R   0.433970 0.419373 0.757708 0.012986
C13   C     C_R   0.475072 0.490325 0.208925 0.198854
C14   C     C_R   0.472366 0.489753 0.791705 0.196357
C15   C     C_R   0.095885 0.534165 0.449082 -0.216079
C16   C     C_R   0.906292 0.454873 0.453608 -0.132974
C17   C     C_R   0.907311 0.553249 0.538831 -0.216714
C18   C     C_R   0.092574 0.469327 0.545429 -0.124738
C19   C     C_R   0.188656 0.533472 0.450093 0.079471
C20   C     C_R   0.813779 0.452078 0.454398 0.036706
C21   C     C_R   0.814673 0.552212 0.539938 0.079664
C22   C     C_R   0.184969 0.467156 0.546857 0.014525
C23   C     C_R   0.232697 0.499795 0.499017 -0.055300
C24   C     C_R   0.767996 0.500747 0.498025 -0.061135
C25   C     C_R   0.048563 0.502653 0.496756 0.053670
C26   C     C_R   0.952456 0.504364 0.496013 0.049697
C27   C     C_R   0.499453 0.500010 0.389340 0.949493
C28   C     C_R   0.499065 0.499996 0.610854 0.933790
C29   C     C_R   0.465851 0.105037 0.453388 -0.267613
C30   C     C_R   0.567375 0.894865 0.528398 -0.267649
C31   C     C_R   0.534171 0.105251 0.546687 -0.263621
C32   C     C_R   0.432632 0.894605 0.471715 -0.265374
C33   C     C_R   0.466175 0.204353 0.454339 0.030141
C34   C     C_R   0.565922 0.795544 0.527994 0.015068
C35   C     C_R   0.533804 0.204574 0.545698 0.060766
C36   C     C_R   0.434065 0.795298 0.472063 0.026031
C37   C     C_R   0.500025 0.053300 0.500045 0.128033
C38   C     C_R   0.500017 0.946574 0.500057 0.140627
C39   C     C_R   0.526921 0.427609 0.880335 0.600360
C40   C     C_R   0.404978 0.533744 0.120433 0.603954
C41   C     C_R   0.402291 0.533028 0.880130 0.606082
C42   C     C_R   0.528886 0.427380 0.120434 0.602338
C43   C     C_R   0.398382 0.531658 0.940183 -0.074167
C44   C     C_R   0.527798 0.422377 0.060449 -0.073544
C45   C     C_R   0.462292 0.476722 0.970214 -0.130025
C46   C     C_R   0.463236 0.476516 0.030466 -0.130019
C47   C     C_R   0.526164 0.422950 0.940040 -0.160001
C48   C     C_R   0.400340 0.531529 0.060685 -0.160464
C49   C     C_R   0.334018 0.584061 0.970984 -0.003136
C50   C     C_R   0.589481 0.366465 0.029678 -0.003301
C51   C     C_R   0.335508 0.583703 0.030677 0.620149
C52   C     C_R   0.588290 0.367229 0.970027 0.620128
H1    H     H_    0.439482 0.242964 0.418285 0.188858
H2    H     H_    0.617898 0.756729 0.550000 0.132957
H3    H     H_    0.560436 0.243382 0.581757 0.151035
H4    H     H_    0.382029 0.756294 0.450081 0.137043
H5    H     H_    0.060841 0.560021 0.411616 0.149369
H6    H     H_    0.942327 0.417166 0.420589 0.160559
H7    H     H_    0.944074 0.591832 0.571354 0.149029
H8    H     H_    0.054931 0.444582 0.582054 0.159495
H9    H     H_    0.440072 0.069377 0.415890 0.148505
H10   H     H_    0.621753 0.930553 0.550127 0.139138
H11   H     H_    0.559948 0.069747 0.584198 0.145104
H12   H     H_    0.378236 0.930078 0.450026 0.142681
N1    N     N_R   0.466476 0.482734 0.852301 -0.334969
N2    N     N_R   0.469047 0.483231 0.148339 -0.334846
N3    N     N_R   0.500000 0.252470 0.500000 -0.106914
N4    N     N_R   0.500000 0.747530 0.500000 -0.097792
O1    O     O_R   0.369060 0.579480 0.500000 -0.620769
O2    O     O_R   0.630940 0.420520 0.500000 -0.641851
O3    O     O_R   0.630940 0.579480 0.500000 -0.614162
O4    O     O_R   0.369060 0.420520 0.500000 -0.601404
O5    O     O_R   0.499970 0.579500 0.416160 -0.635948
O6    O     O_R   0.500030 0.420500 0.583840 -0.570079
O7    O     O_R   0.500030 0.579500 0.583840 -0.638290
O8    O     O_R   0.499970 0.420500 0.416160 -0.586013
O9    O     O_2   0.588044 0.378657 0.850085 -0.468185
O10   O     O_2   0.346921 0.586483 0.150802 -0.468636
O11   O     O_2   0.343573 0.584512 0.849323 -0.526392
O12   O     O_2   0.589377 0.378040 0.151147 -0.527383
Zn1   Zn    Zn3+2 0.500000 0.606140 0.500000 0.946548
Zn2   Zn    Zn3+2 0.500000 0.393860 0.500000 0.994242
N5    N     N_3   0.266961 0.638682 0.942137 -0.353170
H13   H     H_    0.204066 0.614485 0.955092 0.228023
H14   H     H_    0.273591 0.709200 0.954861 0.229219
N6    N     N_3   0.654305 0.308888 0.058509 -0.352721
H15   H     H_    0.644872 0.238734 0.045754 0.227005
H16   H     H_    0.718118 0.330279 0.045590 0.230278
F1    F     F_    0.273209 0.635651 0.058834 -0.620424
F2    F     F_    0.649141 0.313354 0.941895 -0.620009
N7    N     N_3   0.584748 0.617533 0.197052 -0.430620
H17   H     H_    0.652630 0.606308 0.205418 0.219083
H18   H     H_    0.569573 0.687469 0.207608 0.213524
N8    N     N_3   0.558230 0.635858 0.803708 -0.430467
H19   H     H_    0.531506 0.701536 0.792501 0.217723
H20   H     H_    0.627106 0.637691 0.796157 0.212629
N9    N     N_3   0.604186 0.628121 0.317135 -0.448271
H21   H     H_    0.647965 0.592270 0.344427 0.186887
H22   H     H_    0.568540 0.678179 0.340628 0.224928
N10   N     N_3   0.577692 0.648577 0.684206 -0.457671
H23   H     H_    0.534291 0.691103 0.660471 0.223256
H24   H     H_    0.627699 0.622075 0.657620 0.207330
F3    F     F_    0.381742 0.375759 0.334981 -0.680780
F4    F     F_    0.404655 0.355062 0.666226 -0.677455
N11   N     N_3   0.364557 0.362905 0.216775 -0.418992
H25   H     H_    0.300057 0.375874 0.231999 0.231579
H26   H     H_    0.383255 0.295106 0.229878 0.226761
N12   N     N_3   0.385788 0.343222 0.783815 -0.417469
H27   H     H_    0.416263 0.279784 0.771928 0.236925
H28   H     H_    0.320645 0.343141 0.767443 0.228965
N13   N     N_3   0.238297 0.565702 0.401485 -0.441034
H29   H     H_    0.219364 0.524855 0.366218 0.216754
H30   H     H_    0.220011 0.635674 0.393239 0.186531
N14   N     N_3   0.768065 0.401413 0.409961 -0.444370
H31   H     H_    0.732953 0.345159 0.428231 0.217278
H32   H     H_    0.722418 0.446891 0.390241 0.172789
N15   N     N_3   0.768013 0.601423 0.584260 -0.472834
H33   H     H_    0.789755 0.574884 0.623606 0.186373
H34   H     H_    0.786057 0.672778 0.582260 0.187286
N16   N     N_3   0.228823 0.433532 0.597456 -0.424820
H35   H     H_    0.267202 0.374561 0.586684 0.251590
H36   H     H_    0.271703 0.486516 0.612494 0.194981

loop_
_geom_bond_atom_site_label_1
_geom_bond_atom_site_label_2
_ccdc_geom_bond_type
C42   O12   S    
C39   N1    A    
C52   F2    S    
N13   H29   S    
C28   O6    A    
N9    H21   S    
C45   C46   A    
C15   C19   A    
N11   H26   S    
N4    Zn1   S    
C32   C36   A    
C39   C47   A    
N15   H34   S    
N6    H16   S    
C15   C25   A    
C29   C33   A    
C7    C27   S    
N12   H27   S    
C30   C38   A    
C3    N7    S    
C21   N15   S    
C48   C51   A    
C20   C24   A    
C44   C46   A    
C49   C51   A    
C11   N11   S    
C50   C52   A    
C32   C38   A    
C3    C13   A    
C16   C20   A    
C40   N2    A    
C16   C26   A    
C41   C43   A    
C18   C25   A    
C42   C44   A    
O6    Zn2   S    
O5    Zn1   S    
N9    H22   S    
N16   H36   S    
N14   H31   S    
C46   C48   A    
C13   N2    S    
C45   C47   A    
C33   H1    S    
C29   H9    S    
C1    O4    A    
C30   C34   A    
C35   H3    S    
C31   H11   S    
C32   H12   S    
C4    C6    A    
O8    Zn2   S    
N7    H17   S    
C5    C7    A    
C19   C23   A    
O7    Zn1   S    
C41   N1    A    
C25   C26   S    
C1    O1    A    
C31   C37   A    
C6    N10   S    
C22   N16   S    
C37   C38   S    
C36   H4    S    
N7    H18   S    
C43   C45   A    
N14   H32   S    
N5    H13   S    
C35   N3    A    
C9    F3    S    
N10   H24   S    
N13   H30   S    
C16   H6    S    
N8    H20   S    
C9    C11   A    
C10   C12   A    
C17   H7    S    
C4    N8    S    
C18   H8    S    
N5    H14   S    
C12   C14   A    
C34   H2    S    
C30   H10   S    
C2    C24   S    
C8    C28   S    
C31   C35   A    
C17   C26   A    
C34   N4    A    
C27   O8    A    
C39   O9    S    
N16   H35   S    
C33   N3    A    
C12   N12   S    
C44   C50   A    
C40   C48   A    
N6    H15   S    
C43   C49   A    
C5    N9    S    
C3    C5    A    
C41   O11   S    
C6    C8    A    
C36   N4    A    
C1    C23   S    
C47   C52   A    
C19   N13   S    
N11   H25   S    
C49   N5    S    
C18   C22   A    
C27   O5    A    
N15   H33   S    
C51   F1    S    
C20   N14   S    
C11   C13   A    
C15   H5    S    
C10   F4    S    
N10   H23   S    
C14   N1    S    
N12   H28   S    
C40   O10   S    
C4    C14   A    
N8    H19   S    
O2    Zn2   S    
C17   C21   A    
O1    Zn1   S    
C50   N6    S    
C7    C9    A    
N3    Zn2   S    
C8    C10   A    
C21   C24   A    
C29   C37   A    
C42   N2    A    
C22   C23   A    
C2    O2    A    
C28   O7    A    
O4    Zn2   S    
C2    O3    A    
O3    Zn1   S    
