data_mof_unit_6159.cif
_audit_creation_date              2012-12-10T17:44:37-0500
_audit_creation_method            fapswitch 2.2
_symmetry_space_group_name_H-M    P1
_symmetry_Int_Tables_number       1
_space_group_crystal_system       triclinic
_cell_length_a                    9.888793
_cell_length_b                    10.752876
_cell_length_c                    15.490036
_cell_angle_alpha                 91.339126
_cell_angle_beta                  68.158568
_cell_angle_gamma                 89.146024
_cell_volume                      1527.95575832

loop_
_atom_site_label
_atom_site_type_symbol
_atom_type_description
_atom_site_fract_x
_atom_site_fract_y
_atom_site_fract_z
_atom_type_partial_charge
C1    C     C_R   0.503276 0.739143 0.491560 0.926317
C2    C     C_R   0.715678 0.387403 0.040245 0.096743
C3    C     C_R   0.574171 0.436252 0.091536 0.091564
C4    C     C_R   0.409185 0.500483 0.675859 0.854244
C5    C     C_R   0.818404 0.377054 0.082728 -0.194022
C6    C     C_R   0.782435 0.418417 0.174856 -0.209556
C7    C     C_R   0.545066 0.486151 0.180571 -0.241746
C8    C     C_R   0.269953 0.891970 0.453992 0.587583
C9    C     C_R   0.132474 0.950852 0.486262 -0.239709
C10   C     C_R   0.107896 0.060450 0.539732 -0.276061
C11   C     C_R   0.223283 0.116667 0.555053 -0.125187
C12   C     C_R   0.408567 0.447786 0.913360 0.093461
C13   C     C_R   0.365597 0.062488 0.517589 -0.020134
C14   C     C_R   0.381645 0.940145 0.482236 -0.030894
C15   C     C_R   0.505887 0.871620 0.480749 -0.191051
C16   C     C_R   0.496666 0.259992 0.506816 0.897232
C17   C     C_R   0.626132 0.931816 0.486550 -0.348286
C18   C     C_R   0.625394 0.059263 0.495187 0.521553
C19   C     C_R   0.493479 0.125888 0.512398 -0.226435
C20   C     C_R   0.786671 0.660806 0.624562 -0.366310
C21   C     C_R   0.816731 0.735089 0.690765 0.435859
C22   C     C_R   0.958692 0.732555 0.691082 0.446868
C23   C     C_R   0.259832 0.472465 0.969158 0.168667
C24   C     C_R   0.065466 0.656216 0.626234 -0.330543
C25   C     C_R   0.035490 0.578031 0.561870 0.120506
C26   C     C_R   0.891481 0.579048 0.561408 0.129949
C27   C     C_R   0.964912 0.427344 0.439356 -0.090813
C28   C     C_R   0.590847 0.497078 0.324127 0.861877
C29   C     C_R   0.108001 0.426780 0.439692 -0.095376
C30   C     C_R   0.353712 0.492325 0.776746 -0.096616
C31   C     C_R   0.644857 0.473091 0.223854 -0.058528
C32   C     C_R   0.159130 0.500539 0.927653 -0.214923
C33   C     C_R   0.205336 0.506959 0.831322 -0.173787
C34   C     C_R   0.509780 0.415485 0.954960 -0.063879
C35   C     C_R   0.453769 0.467493 0.818452 -0.184349
C36   C     C_3   0.391877 0.826311 0.303590 -0.325430
C37   C     C_3   0.859542 0.108203 0.408125 -0.324930
C38   C     C_3   0.624567 0.877130 0.726886 -0.362974
C39   C     C_3   0.955719 0.922617 0.766286 -0.199605
C40   C     C_3   0.643335 0.195348 0.813926 -0.341700
C41   C     C_R   0.466635 0.437804 0.051888 0.011405
C42   C     C_R   0.316994 0.459314 0.106552 -0.201196
C43   C     C_R   0.214856 0.473126 0.065526 -0.239048
C44   C     C_R   0.651519 0.361402 0.904616 0.508760
C45   C     C_R   0.751802 0.348270 0.947975 -0.320782
H1    H     H_    0.924965 0.334511 0.045454 0.137692
H2    H     H_    0.568215 0.470033 0.776502 0.230809
H3    H     H_    0.275415 0.462019 0.181681 0.143193
H4    H     H_    0.101528 0.490351 0.109360 0.145314
H5    H     H_    0.504810 0.829269 0.302421 0.158615
H6    H     H_    0.360159 0.916944 0.282111 0.152273
H7    H     H_    0.390844 0.754880 0.251128 0.190870
H8    H     H_    0.044933 0.911643 0.469241 0.160332
H9    H     H_    0.958031 0.152814 0.411141 0.184865
H10   H     H_    0.826077 0.158158 0.356845 0.162093
H11   H     H_    0.891752 0.010219 0.383826 0.152710
H12   H     H_    0.721974 0.880366 0.485290 0.186213
H13   H     H_    0.541193 0.824188 0.710405 0.180878
H14   H     H_    0.695152 0.928508 0.665346 0.168240
H15   H     H_    0.564325 0.947131 0.781936 0.189011
H16   H     H_    0.854502 0.939540 0.828436 0.199839
H17   H     H_    0.940691 0.959300 0.703805 0.143124
H18   H     H_    0.043059 0.976747 0.777081 0.162359
H19   H     H_    0.171495 0.660392 0.628563 0.238096
H20   H     H_    0.859679 0.404277 0.208422 0.142381
H21   H     H_    0.859036 0.308096 0.908550 0.167261
H22   H     H_    0.126436 0.527588 0.800061 0.183959
H23   H     H_    0.000275 0.104050 0.567013 0.198085
H24   H     H_    0.688616 0.131901 0.852786 0.160885
H25   H     H_    0.522135 0.194320 0.843101 0.165802
H26   H     H_    0.680805 0.159262 0.740906 0.208780
H27   H     H_    0.199069 0.201195 0.597797 0.175658
H28   H     H_    0.940979 0.369552 0.389110 0.124819
H29   H     H_    0.679340 0.667680 0.625851 0.237662
H30   H     H_    0.443318 0.535127 0.218196 0.155791
H31   H     H_    0.191486 0.366843 0.390519 0.136786
H32   H     H_    0.045613 0.520151 0.969590 0.159269
N1    N     N_R   0.856800 0.501200 0.500850 -0.087279
N2    N     N_R   0.142390 0.501280 0.500880 -0.085106
O1    O     O_R   0.385310 0.683220 0.500000 -0.583093
O2    O     O_3   0.748591 0.116553 0.497710 -0.596436
O3    O     O_3   0.706151 0.798602 0.762309 -0.588103
O4    O     O_3   0.995963 0.794948 0.758331 -0.604843
O5    O     O_3   0.694392 0.316943 0.813717 -0.618388
O6    O     O_R   0.614640 0.683250 0.500010 -0.654820
O7    O     O_R   0.319840 0.499980 0.632240 -0.642263
O8    O     O_R   0.549160 0.500000 0.632250 -0.625240
O9    O     O_R   0.385360 0.316750 0.499990 -0.634478
O10   O     O_R   0.614690 0.316780 0.500000 -0.549542
O11   O     O_R   0.450840 0.500000 0.367750 -0.595967
O12   O     O_R   0.680160 0.500020 0.367760 -0.625348
O13   O     O_3   0.293056 0.792195 0.391589 -0.592229
Zn1   Zn    Zn3+2 0.346880 0.499980 0.499990 0.962292
Zn2   Zn    Zn3+2 0.653120 0.500020 0.500010 0.958460

loop_
_geom_bond_atom_site_label_1
_geom_bond_atom_site_label_2
_ccdc_geom_bond_type
C40   H26   S    
C27   C29   A    
C41   C42   A    
C40   O5    S    
C27   N1    A    
C35   H2    S    
C29   H31   S    
C12   C23   A    
C26   N1    A    
C40   H25   S    
C30   C35   A    
N2    Zn1   S    
C3    C7    A    
C5    C6    A    
C4    O7    A    
O8    Zn2   S    
C18   O2    S    
C23   C43   A    
C18   C19   A    
O10   Zn2   S    
C32   H32   S    
C38   H13   S    
C37   H11   S    
C6    H20   S    
C8    C9    A    
C1    C15   S    
C9    C10   A    
C36   H7    S    
C36   O13   S    
C6    C31   A    
C38   H15   S    
C16   O10   A    
C24   H19   S    
C13   C14   A    
C38   O3    S    
C37   O2    S    
C34   C41   A    
C2    C45   A    
C1    O6    A    
C39   H16   S    
C7    C31   A    
C40   H24   S    
C13   C19   A    
C34   C44   A    
C24   C25   A    
C4    O8    A    
C11   H27   S    
C43   H4    S    
C7    H30   S    
C25   C26   A    
C32   C33   A    
O7    Zn1   S    
O6    Zn2   S    
C29   N2    A    
C17   C18   A    
C20   H29   S    
C42   H3    S    
C21   O3    S    
C12   C35   A    
C36   H6    S    
C8    O13   S    
C37   H9    S    
C22   C24   A    
C2    C5    A    
C9    H8    S    
C42   C43   A    
C12   C34   A    
C36   H5    S    
C44   C45   A    
C33   H22   S    
O11   Zn1   S    
C15   C17   A    
C39   H17   S    
O9    Zn1   S    
C3    C41   A    
C8    C14   A    
C30   C33   A    
C25   N2    A    
C28   C31   S    
C44   O5    S    
C10   H23   S    
C39   H18   S    
C5    H1    S    
C22   O4    S    
C2    C3    A    
C39   O4    S    
C27   H28   S    
C23   C32   A    
O12   Zn2   S    
C11   C13   A    
C20   C26   A    
N1    Zn2   S    
C16   C19   S    
C28   O12   A    
C10   C11   A    
C38   H14   S    
C37   H10   S    
C20   C21   A    
C45   H21   S    
C16   O9    A    
C1    O1    A    
C14   C15   A    
C28   O11   A    
O1    Zn1   S    
C21   C22   A    
C4    C30   S    
C17   H12   S    
