data_mof_unit_38829.cif
_audit_creation_date              2013-03-05T16:46:55-0500
_audit_creation_method            fapswitch 2.2
_symmetry_space_group_name_H-M    P1
_symmetry_Int_Tables_number       1
_space_group_crystal_system       triclinic
_cell_length_a                    18.183293
_cell_length_b                    18.283141
_cell_length_c                    18.429169
_cell_angle_alpha                 120.249768
_cell_angle_beta                  89.939568
_cell_angle_gamma                 119.721059
_cell_volume                      4336.34933913

loop_
_atom_site_label
_atom_site_type_symbol
_atom_site_description
_atom_site_fract_x
_atom_site_fract_y
_atom_site_fract_z
_atom_type_partial_charge
Zn1   Zn    Zn3+2 0.456040 0.586770 0.543190 1.091339
Zn2   Zn    Zn3+2 0.456820 0.413240 0.543960 0.978340
Zn3   Zn    Zn3+2 0.631110 0.586750 0.543190 1.061244
Zn4   Zn    Zn3+2 0.456040 0.413240 0.369660 1.061052
O1    O     O_3   0.500000 0.500000 0.500000 -0.524925
O2    O     O_R   0.383400 0.268380 0.323710 -0.650582
O3    O     O_R   0.555060 0.731630 0.615290 -0.601424
O4    O     O_R   0.383950 0.439280 0.616600 -0.651749
O5    O     O_R   0.677590 0.560710 0.444390 -0.571217
O6    O     O_R   0.556370 0.439260 0.616600 -0.650190
O7    O     O_R   0.382640 0.439290 0.322940 -0.608577
O8    O     O_R   0.678360 0.560700 0.616060 -0.641820
O9    O     O_R   0.382640 0.560750 0.444390 -0.578801
O10   O     O_R   0.383400 0.560740 0.616060 -0.626407
O11   O     O_R   0.555060 0.439270 0.322940 -0.633190
O12   O     O_R   0.383950 0.268380 0.445700 -0.649704
O13   O     O_R   0.677590 0.731610 0.615290 -0.630930
C1    C     C_R   0.360269 0.220083 0.361021 0.824714
C2    C     C_R   0.640589 0.780882 0.638842 0.883001
C3    C     C_R   0.359878 0.501270 0.641331 0.790866
C4    C     C_R   0.640998 0.503784 0.360030 0.909737
C5    C     C_R   0.642017 0.501689 0.641367 0.813142
C6    C     C_R   0.358039 0.500353 0.359428 0.863444
C7    C     C_3   0.345288 0.519920 0.234203 0.808049
C8    C     C_3   0.285875 0.523950 0.177458 -0.483640
H1    H     H_    0.323541 0.601753 0.190528 0.200105
H2    H     H_    0.269398 0.468288 0.105000 0.193178
H3    H     H_    0.212516 0.330234 0.208536 0.229081
H4    H     H_    0.130503 0.332766 0.116095 0.209858
C9    C     C_3   0.206446 0.395720 0.248293 -0.433553
C10   C     C_3   0.286840 0.589880 0.359736 0.167878
C11   C     C_3   0.300176 0.500824 0.301896 -0.167899
H5    H     H_    0.353712 0.664873 0.390988 0.195537
C12   C     C_3   0.198397 0.501082 0.200326 0.012243
C13   C     C_3   0.148035 0.395011 0.186678 -0.372583
C14   C     C_3   0.224630 0.586631 0.299838 -0.425584
H6    H     H_    0.259760 0.663418 0.311020 0.186457
H7    H     H_    0.162788 0.572585 0.317844 0.234866
H8    H     H_    0.171931 0.380066 0.293386 0.234329
H9    H     H_    0.084073 0.376926 0.201069 0.190149
C15   C     C_3   0.636663 0.939529 0.717843 0.031919
H10   H     H_    0.598244 0.908961 0.754216 0.120000
C16   C     C_3   0.695411 0.059953 0.782556 0.766221
H11   H     H_    0.711688 0.911016 0.820486 0.222088
H12   H     H_    0.814330 0.089208 0.913459 0.247082
C17   C     C_3   0.755494 0.938146 0.785105 -0.535956
C18   C     C_3   0.764712 0.942701 0.651030 0.071061
C19   C     C_3   0.696988 0.897283 0.694244 -0.168917
H13   H     H_    0.812666 0.921509 0.650966 0.123926
C20   C     C_3   0.798238 0.102907 0.802176 -0.179218
C21   C     C_3   0.818919 0.057892 0.845477 -0.520487
C22   C     C_3   0.821756 0.064227 0.713711 0.045347
H14   H     H_    0.892525 0.089705 0.734016 0.109107
H15   H     H_    0.796528 0.906605 0.773842 0.205909
H16   H     H_    0.889658 0.082029 0.854775 0.201094
C23   C     C_3   0.688450 0.403301 0.251306 -0.449890
H17   H     H_    0.618347 0.340393 0.204555 0.202166
H18   H     H_    0.699799 0.384061 0.296820 0.247307
C24   C     C_3   0.753825 0.404379 0.197782 -0.500224
H19   H     H_    0.805298 0.401419 0.226502 0.231497
H20   H     H_    0.716294 0.334317 0.127836 0.221624
H21   H     H_    0.600108 0.458891 0.193585 0.142362
H22   H     H_    0.678651 0.435473 0.102162 0.091186
C25   C     C_3   0.672033 0.523188 0.234004 -0.042474
C26   C     C_3   0.803745 0.596169 0.362480 0.808861
C27   C     C_3   0.700565 0.509590 0.304563 -0.192234
C28   C     C_3   0.800093 0.503537 0.200622 -0.086317
C29   C     C_3   0.725994 0.509795 0.167867 0.414951
C30   C     C_3   0.858347 0.598815 0.298577 -0.414317
H23   H     H_    0.917127 0.601761 0.321187 0.221494
H24   H     H_    0.885663 0.670318 0.301650 0.231746
C31   C     C_R   0.445861 0.187546 0.570583 -0.392662
H25   H     H_    0.513888 0.218035 0.602159 0.222784
C32   C     C_R   0.413629 0.138905 0.478502 0.238342
C33   C     C_R   0.323804 0.099070 0.438924 -0.243510
C34   C     C_R   0.268861 0.107914 0.492081 0.473162
C35   C     C_R   0.302448 0.156651 0.583409 0.519008
C36   C     C_R   0.390796 0.196463 0.622572 0.483448
C37   C     C_R   0.230375 0.944124 0.287293 -0.121264
H26   H     H_    0.217030 0.901399 0.315989 0.176238
C38   C     C_R   0.193365 0.892315 0.195847 -0.062708
C39   C     C_R   0.211997 0.948976 0.158960 0.061447
C40   C     C_R   0.267607 0.055817 0.214713 -0.215198
H27   H     H_    0.280810 0.098542 0.186036 0.181232
C41   C     C_R   0.304716 0.107665 0.306204 -0.039377
C42   C     C_R   0.286331 0.050961 0.343022 0.200086
C43   C     C_R   0.224071 0.883142 0.006512 -0.198009
H28   H     H_    0.290351 0.904840 0.032346 0.164521
C44   C     C_R   0.188057 0.836194 0.915857 -0.102460
H29   H     H_    0.226479 0.821986 0.872137 0.144025
C45   C     C_R   0.102464 0.807530 0.881633 -0.202594
H30   H     H_    0.074651 0.771259 0.811478 0.159801
C46   C     C_R   0.052728 0.825686 0.938000 -0.215135
H31   H     H_    0.986548 0.803561 0.911325 0.159818
C47   C     C_R   0.088194 0.872038 0.028631 0.687496
C48   C     C_R   0.174117 0.900753 0.063318 0.004274
H32   H     H_    0.991126 0.831568 0.642203 0.179152
C49   C     C_R   0.937919 0.681512 0.613165 -0.047713
H33   H     H_    0.969184 0.661616 0.563142 0.182365
C50   C     C_R   0.885658 0.611602 0.633539 -0.148233
H34   H     H_    0.877044 0.537885 0.599162 0.157483
C51   C     C_R   0.845128 0.637232 0.698467 0.125624
C52   C     C_R   0.858419 0.734003 0.743522 -0.123677
H35   H     H_    0.828662 0.755448 0.794719 0.125349
C53   C     C_R   0.910500 0.803522 0.722742 -0.143386
H36   H     H_    0.920618 0.877994 0.757486 0.124134
C54   C     C_R   0.950280 0.777333 0.657693 -0.040739
C55   C     C_R   0.842275 0.559830 0.775040 -0.242307
H37   H     H_    0.914488 0.603092 0.790335 0.173062
C56   C     C_R   0.799742 0.500932 0.807916 -0.034579
C57   C     C_R   0.705852 0.446414 0.788887 -0.012094
C58   C     C_R   0.656724 0.449573 0.735016 -0.221149
H38   H     H_    0.584654 0.407512 0.720741 0.204239
C59   C     C_R   0.698960 0.506644 0.700650 -0.037512
C60   C     C_R   0.793507 0.565725 0.723468 -0.000617
C61   C     C_R   0.618537 0.280774 0.775213 -0.080966
H39   H     H_    0.629932 0.243067 0.713146 0.173531
C62   C     C_R   0.565636 0.222907 0.805765 0.083150
H40   H     H_    0.536739 0.141074 0.767390 0.226690
C63   C     C_R   0.549475 0.270514 0.885234 -0.043240
H41   H     H_    0.508215 0.225726 0.908784 0.190221
C64   C     C_R   0.586047 0.376020 0.934097 -0.119149
H42   H     H_    0.572621 0.412528 0.995011 0.169752
C65   C     C_R   0.639136 0.434213 0.903847 -0.060808
H43   H     H_    0.666394 0.515690 0.941615 0.162172
C66   C     C_R   0.655593 0.386756 0.824256 0.095764
C67   C     C_R   0.426176 0.844372 0.793870 -0.191893
H44   H     H_    0.491710 0.914301 0.839197 0.218590
C68   C     C_R   0.402335 0.752921 0.782329 -0.201319
H45   H     H_    0.448830 0.754307 0.820542 0.149698
C69   C     C_R   0.316466 0.662098 0.726915 0.150392
C70   C     C_R   0.255836 0.662991 0.680906 -0.153585
H46   H     H_    0.188300 0.594172 0.639996 0.171275
C71   C     C_R   0.279813 0.754234 0.692069 -0.144017
H47   H     H_    0.230920 0.753500 0.657731 0.188203
C72   C     C_R   0.364776 0.846221 0.749700 0.413403
C73   C     C_R   0.227718 0.571149 0.787632 -0.246368
H48   H     H_    0.212855 0.628632 0.816854 0.170591
C74   C     C_R   0.193961 0.496299 0.804419 -0.050863
C75   C     C_R   0.214888 0.422583 0.767113 -0.018607
C76   C     C_R   0.269103 0.426537 0.714154 -0.193360
H49   H     H_    0.284128 0.369243 0.685403 0.211305
C77   C     C_R   0.303689 0.502537 0.697973 -0.061772
C78   C     C_R   0.282284 0.575753 0.735331 0.010757
C79   C     C_R   0.224269 0.359786 0.857683 -0.071613
H50   H     H_    0.282151 0.436706 0.908869 0.130659
C80   C     C_R   0.191778 0.280981 0.869852 -0.070718
H51   H     H_    0.224501 0.297123 0.930111 0.171059
C81   C     C_R   0.117097 0.181364 0.804222 -0.110638
H52   H     H_    0.092034 0.120407 0.813665 0.133248
C82   C     C_R   0.074990 0.160324 0.726202 -0.051965
H53   H     H_    0.017589 0.083009 0.675165 0.162287
C83   C     C_R   0.106836 0.239086 0.714084 0.000790
H54   H     H_    0.073609 0.222086 0.653523 0.176012
C84   C     C_R   0.181162 0.339453 0.780141 0.107650
Zn5   Zn    Zn3+2 0.041710 0.413240 0.959030 0.980678
Zn6   Zn    Zn3+2 0.866640 0.413270 0.959030 1.073427
Zn7   Zn    Zn3+2 0.040930 0.586780 0.958260 1.003096
Zn8   Zn    Zn3+2 0.041710 0.586770 0.132560 0.999946
O14   O     O_3   0.997750 0.500010 0.002220 -0.506155
O15   O     O_R   0.942690 0.560750 0.179280 -0.646961
O16   O     O_R   0.114340 0.439270 0.886160 -0.640972
O17   O     O_R   0.820160 0.268410 0.886930 -0.566338
O18   O     O_R   0.113800 0.731630 0.056520 -0.646780
O19   O     O_R   0.819390 0.439310 0.886160 -0.627104
O20   O     O_R   0.115110 0.560720 0.179280 -0.646710
O21   O     O_R   0.941380 0.560750 0.885620 -0.647186
O22   O     O_R   0.115110 0.439270 0.057830 -0.655917
O23   O     O_R   0.942690 0.268390 0.886930 -0.652583
O24   O     O_R   0.114340 0.731630 0.178520 -0.636166
O25   O     O_R   0.820160 0.439310 0.057830 -0.626395
O26   O     O_R   0.113800 0.560730 0.885620 -0.646172
C85   C     C_R   0.857191 0.500461 0.142810 0.892362
C86   C     C_R   0.137855 0.498561 0.860994 0.822929
C87   C     C_R   0.856781 0.219166 0.862820 0.874174
C88   C     C_R   0.137528 0.779915 0.141169 0.833707
C89   C     C_R   0.855892 0.500219 0.862530 0.835912
C90   C     C_R   0.139901 0.500130 0.142757 0.807717
N1    N     N_R   0.360323 0.440280 0.174937 0.211637
O27   O     O_R   0.441696 0.465236 0.180682 -0.292111
O28   O     O_R   0.294039 0.347734 0.109493 -0.462638
N2    N     N_R   0.568379 0.899406 0.640025 0.269017
O29   O     O_R   0.483796 0.841357 0.628385 -0.318015
O30   O     O_R   0.589435 0.929475 0.588052 -0.210490
F1    F     F_    0.677094 0.100191 0.744060 -0.600484
N3    N     N_R   0.672726 0.093262 0.865623 0.178033
O31   O     O_R   0.669514 0.054987 0.909919 -0.481908
O32   O     O_R   0.650087 0.157709 0.893139 -0.319927
F2    F     F_    0.428014 0.615319 0.282761 -0.615351
N4    N     N_R   0.726402 0.898389 0.556952 0.290273
O33   O     O_R   0.780545 0.929612 0.517201 -0.238641
O34   O     O_R   0.647562 0.811737 0.507137 -0.276806
N5    N     N_R   0.822178 0.113964 0.670733 0.257967
O35   O     O_R   0.898547 0.183759 0.675545 -0.402695
O36   O     O_R   0.748659 0.087463 0.624717 -0.210120
N6    N     N_R   0.828905 0.702034 0.428763 0.222827
O37   O     O_R   0.913044 0.775644 0.476485 -0.369037
O38   O     O_R   0.770220 0.723466 0.447892 -0.312965
F3    F     F_    0.829600 0.567582 0.409172 -0.674697
N7    N     N_R   0.678456 0.620085 0.275375 0.276396
O39   O     O_R   0.614277 0.624930 0.303413 -0.243918
O40   O     O_R   0.749796 0.703919 0.291204 -0.214627
F4    F     F_    0.762122 0.585960 0.152987 -0.615822
F5    F     F_    0.423293 0.243803 0.711255 -0.623194
N8    N     N_R   0.472959 0.132310 0.427387 0.241683
O41   O     O_R   0.441927 0.056420 0.343667 -0.382322
O42   O     O_R   0.559513 0.198044 0.466351 -0.366122
F6    F     F_    0.183023 0.070845 0.455390 -0.586682
F7    F     F_    0.249223 0.165713 0.634180 -0.599401
F8    F     F_    0.038899 0.888576 0.082437 -0.650912
N9    N     N_R   0.387825 0.941386 0.765047 0.211201
O43   O     O_R   0.456954 0.029260 0.832200 -0.394059
O44   O     O_R   0.337601 0.941430 0.714830 -0.365778
N10   N     N_R   0.253153 0.588782 0.432063 0.226376
O45   O     O_R   0.171575 0.516575 0.415806 -0.419076
O46   O     O_R   0.301585 0.668370 0.513902 -0.317355

loop_
_geom_bond_atom_site_label_1
_geom_bond_atom_site_label_2
_geom_bond_distance
_ccdc_geom_bond_type
C43   H28   1.083214 S    
C46   H31   1.082406 S    
Zn8   O24   1.936497 S    
C4    C27   1.490739 S    
O19   C89   1.274918 A    
C15   H10   1.113120 S    
C47   C48   1.405673 A    
O17   C87   1.281499 A    
C58   C59   1.396384 A    
C38   C39   1.418151 A    
C34   F6    1.358055 S    
C18   H13   1.115787 S    
C10   N10   1.471524 S    
O24   C88   1.293637 A    
C35   C36   1.394680 A    
C61   H39   1.083161 S    
C73   C74   1.392286 A    
N4    O33   1.301672 A    
C9    C13   1.546500 S    
C40   H27   1.084832 S    
Zn1   O1    1.942430 S    
C25   C29   1.563093 S    
C55   C60   1.378792 A    
C14   H6    1.114026 S    
C80   C81   1.398467 A    
C36   F5    1.356134 S    
C76   C77   1.402069 A    
Zn8   O14   1.957760 S    
C41   C42   1.418299 A    
C37   C42   1.384118 A    
N10   O46   1.299475 A    
Zn5   O22   1.955853 S    
C51   C60   1.480449 S    
C77   C78   1.415941 A    
C49   H33   1.082339 S    
O8    C5    1.271864 A    
Zn5   O23   1.937133 S    
C55   H37   1.084243 S    
O9    C6    1.280927 A    
C12   C13   1.552715 S    
O7    C6    1.279394 A    
C30   H24   1.113804 S    
C62   H40   1.081646 S    
H21   C25   1.114700 S    
Zn3   O8    1.954754 S    
C80   H51   1.082344 S    
C24   C28   1.545766 S    
C26   F3    1.390082 S    
H12   C21   1.108537 S    
C57   C58   1.377610 A    
C79   C84   1.404609 A    
C23   H18   1.113341 S    
N7    O39   1.300691 A    
N5    O36   1.298913 A    
C31   C36   1.396263 A    
C82   H53   1.082483 S    
Zn8   O15   1.941543 S    
C7    C8    1.557275 S    
O18   C88   1.278797 A    
C7    F2    1.390850 S    
O20   C90   1.275410 A    
C83   C84   1.403380 A    
Zn2   O12   1.934574 S    
Zn6   O17   1.931718 S    
C10   C14   1.539983 S    
C12   C14   1.552165 S    
Zn7   O26   1.937580 S    
C35   F7    1.356636 S    
C8    C12   1.548946 S    
C31   H25   1.081850 S    
C26   N6    1.479457 S    
C53   C54   1.397439 A    
C82   C83   1.398491 A    
Zn5   O16   1.947068 S    
C24   H19   1.113202 S    
C46   C47   1.399295 A    
C25   N7    1.472259 S    
C61   C66   1.402733 A    
C29   F4    1.386808 S    
Zn7   O14   1.961651 S    
C15   C16   1.560787 S    
C3    C77   1.459769 S    
C51   C52   1.405160 A    
C67   C68   1.397126 A    
C57   C66   1.475276 S    
C58   H38   1.084230 S    
C79   C80   1.398737 A    
O26   C86   1.289214 A    
Zn7   O21   1.950447 S    
C79   H50   1.083134 S    
N2    O30   1.298948 A    
C34   C35   1.396886 A    
N8    O42   1.301660 A    
O2    C1    1.293182 A    
C17   C19   1.564944 S    
C24   H20   1.113387 S    
C1    C41   1.454949 S    
C39   C48   1.480938 S    
C32   C33   1.420527 A    
C28   C29   1.554676 S    
C38   C88   1.454731 S    
O10   C3    1.277002 A    
Zn5   O14   1.942430 S    
C67   C72   1.406158 A    
C31   C32   1.406714 A    
Zn6   O19   1.954609 S    
C45   H30   1.082632 S    
C37   C38   1.397223 A    
N10   O45   1.301398 A    
C70   H46   1.083374 S    
C71   C72   1.403821 A    
H11   C17   1.112946 S    
C16   N3    1.480857 S    
C8    H1    1.113391 S    
N8    O41   1.301040 A    
C17   C21   1.551132 S    
O6    C5    1.284725 A    
C49   C54   1.398063 A    
C56   C57   1.411707 A    
C20   C87   1.505241 S    
C28   C30   1.556086 S    
C25   C27   1.573820 S    
C33   C34   1.407997 A    
C7    C11   1.582330 S    
N9    O43   1.300137 A    
Zn3   O5    1.943864 S    
C45   C46   1.398371 A    
C72   N9    1.436788 S    
O15   C85   1.280725 A    
C74   C86   1.457979 S    
C33   C42   1.484450 S    
C20   C22   1.574094 S    
C18   C19   1.578135 S    
C5    C59   1.443445 S    
C43   C48   1.404675 A    
C17   H15   1.112682 S    
C7    N1    1.476339 S    
C50   C51   1.403607 A    
C20   C21   1.557172 S    
O23   C87   1.285355 A    
C52   C53   1.398263 A    
C18   N4    1.474896 S    
O4    C3    1.286409 A    
C75   C76   1.388523 A    
Zn4   O7    1.948172 S    
C71   H47   1.082499 S    
N3    O31   1.301722 A    
C70   C71   1.395926 A    
Zn4   O2    1.936543 S    
O21   C89   1.281920 A    
C73   C78   1.384719 A    
N5    O35   1.301429 A    
Zn6   O14   1.953314 S    
C49   C50   1.398626 A    
C43   C44   1.398900 A    
N9    O44   1.301447 A    
C15   N2    1.475518 S    
C12   C90   1.490870 S    
Zn2   O1    1.961503 S    
C44   C45   1.398217 A    
C23   H17   1.113650 S    
C64   C65   1.397400 A    
C67   H44   1.080626 S    
Zn2   O6    1.950548 S    
C22   H14   1.115322 S    
C63   C64   1.397590 A    
C65   C66   1.402898 A    
C68   H45   1.083235 S    
C73   H48   1.085680 S    
C26   C30   1.543478 S    
H22   C29   1.112776 S    
C10   H5    1.114858 S    
N4    O34   1.301247 A    
C40   C41   1.398089 A    
C2    C19   1.507360 S    
C47   F8    1.357528 S    
C10   C11   1.577470 S    
Zn2   O4    1.937537 S    
C22   N5    1.474124 S    
N6    O37   1.301564 A    
Zn3   O1    1.953314 S    
C69   C70   1.402992 A    
C74   C75   1.417160 A    
Zn8   O20   1.948168 S    
C16   C20   1.581999 S    
C59   C60   1.414828 A    
C18   C22   1.574294 S    
O16   C86   1.272628 A    
Zn7   O18   1.934472 S    
N1    O27   1.300363 A    
C8    H2    1.112598 S    
C53   H36   1.082224 S    
H4    C13   1.112855 S    
O3    C2    1.279430 A    
C56   C89   1.443666 S    
C23   C24   1.542825 S    
C6    C11   1.500582 S    
Zn4   O11   1.941547 S    
C81   C82   1.398047 A    
C13   H9    1.112971 S    
C83   H54   1.083053 S    
C81   H52   1.082458 S    
Zn6   O25   1.943864 S    
C14   H7    1.113233 S    
C9    C11   1.554596 S    
O5    C4    1.276014 A    
C55   C56   1.398338 A    
C28   C85   1.487086 S    
C23   C27   1.562859 S    
Zn4   O1    1.957760 S    
H3    C9    1.108851 S    
C50   H34   1.083047 S    
O13   C2    1.288016 A    
C15   C19   1.577840 S    
C61   C62   1.396994 A    
C9    H8    1.107623 S    
Zn3   O13   1.931719 S    
C21   H16   1.113563 S    
C26   C27   1.588101 S    
C30   H23   1.113623 S    
C62   C63   1.398995 A    
N6    O38   1.300413 A    
C75   C84   1.478818 S    
C37   H26   1.084779 S    
H32   C54   1.082073 S    
O25   C85   1.283620 A    
O11   C4    1.289443 A    
Zn1   O9    1.955955 S    
O12   C1    1.279262 A    
C39   C40   1.383972 A    
C52   H35   1.083181 S    
C64   H42   1.082315 S    
C16   F1    1.387374 S    
C63   H41   1.081659 S    
Zn1   O3    1.937235 S    
Zn1   O10   1.947169 S    
N1    O28   1.301952 A    
C44   H29   1.082886 S    
C76   H49   1.084857 S    
N3    O32   1.301333 A    
O22   C90   1.280793 A    
N7    O40   1.302294 A    
C69   C78   1.475160 S    
N2    O29   1.300245 A    
C65   H43   1.083116 S    
C68   C69   1.400772 A    
C32   N8    1.441594 S    
