data_mof_unit_48011.cif
_audit_creation_date              2012-12-10T18:09:53-0500
_audit_creation_method            fapswitch 2.2
_symmetry_space_group_name_H-M    P1
_symmetry_Int_Tables_number       1
_space_group_crystal_system       triclinic
_cell_length_a                    10.654147
_cell_length_b                    12.602502
_cell_length_c                    13.303405
_cell_angle_alpha                 83.012052
_cell_angle_beta                  89.86088
_cell_angle_gamma                 101.819859
_cell_volume                      1734.68424443

loop_
_atom_site_label
_atom_site_type_symbol
_atom_type_description
_atom_site_fract_x
_atom_site_fract_y
_atom_site_fract_z
_atom_type_partial_charge
C1    C     C_R   0.475744 0.440198 0.691286 0.873262
C2    C     C_R   0.520724 0.461157 0.968707 0.062521
C3    C     C_R   0.479867 0.488884 0.869639 0.017101
C4    C     C_R   0.741397 0.499923 0.499259 0.846073
C5    C     C_R   0.543277 0.544322 0.033521 0.032522
C6    C     C_R   0.562328 0.656020 0.993715 0.017481
C7    C     C_R   0.528640 0.681872 0.894482 -0.248899
C8    C     C_R   0.466263 0.598933 0.841850 0.013721
C9    C     C_R   0.524984 0.518052 0.137065 -0.329149
C10   C     C_R   0.591815 0.708542 0.163692 0.405615
C11   C     C_R   0.458073 0.407134 0.802167 -0.181645
C12   C     C_3   0.120899 0.499125 0.498385 0.132747
C13   C     C_R   0.337001 0.091101 0.339222 -0.288943
C14   C     C_R   0.657399 0.800737 0.624048 0.017011
C15   C     C_R   0.700938 0.907865 0.641863 -0.278333
C16   C     C_R   0.520089 0.560789 0.309525 0.928022
C17   C     C_R   0.646779 0.989579 0.590593 -0.109223
C18   C     C_R   0.543479 0.963827 0.524705 0.033884
C19   C     C_R   0.509877 0.854636 0.503560 0.224011
C20   C     C_R   0.477328 0.042122 0.474888 -0.038322
C21   C     C_R   0.394343 0.013126 0.394852 0.115055
C22   C     C_R   0.368213 0.906218 0.371950 -0.251895
C23   C     C_3   0.092506 0.579348 0.407742 -0.453705
C24   C     C_R   0.422484 0.827702 0.427449 -0.152630
C25   C     C_R   0.488153 0.147778 0.502179 0.503279
C26   C     C_R   0.360386 0.196875 0.364244 -0.058583
C27   C     C_R   0.258045 0.499826 0.499529 0.824899
C28   C     C_3   0.900468 0.383159 0.483551 -0.388490
C29   C     C_3   0.042886 0.382606 0.487982 -0.382467
C30   C     C_3   0.948764 0.584134 0.410402 -0.162825
C31   C     C_3   0.934241 0.530505 0.601259 -0.180141
C32   C     C_3   0.877843 0.498869 0.498387 0.075269
C33   C     C_1   0.387188 0.207614 0.787338 0.258180
C34   C     C_3   0.079486 0.535428 0.598198 -0.408476
C35   C     C_1   0.605164 0.320622 0.086894 0.174548
C36   C     C_1   0.367949 0.628276 0.776654 0.207841
C37   C     C_1   0.892296 0.567453 0.310597 0.175177
C38   C     C_1   0.871371 0.454920 0.689326 0.163734
C39   C     C_R   0.595620 0.738383 0.058043 0.320752
C40   C     C_R   0.545795 0.597961 0.202024 -0.170130
C41   C     C_R   0.444180 0.296329 0.842668 -0.026957
C42   C     C_R   0.486020 0.269979 0.939622 -0.216900
C43   C     C_R   0.534073 0.351610 0.999411 -0.008885
H1    H     H_    0.864081 0.359848 0.409240 0.197046
H2    H     H_    0.303627 0.882586 0.311953 0.154888
H3    H     H_    0.275476 0.070561 0.276672 0.158827
H4    H     H_    0.700336 0.736615 0.661983 0.145623
H5    H     H_    0.692904 0.071917 0.600115 0.192074
H6    H     H_    0.778681 0.927965 0.693018 0.169109
H7    H     H_    0.396685 0.747040 0.407113 0.209266
H8    H     H_    0.060116 0.324084 0.553686 0.186297
H9    H     H_    0.072996 0.353459 0.417749 0.185274
H10   H     H_    0.121471 0.552693 0.335808 0.169400
H11   H     H_    0.918436 0.613117 0.612082 0.141887
H12   H     H_    0.127411 0.621982 0.600266 0.201716
H13   H     H_    0.110279 0.485035 0.664669 0.172635
H14   H     H_    0.658412 0.858257 0.192387 0.377539
H15   H     H_    0.547284 0.865317 0.988517 0.327457
H16   H     H_    0.592376 0.246958 0.580774 0.371236
H17   H     H_    0.940391 0.667535 0.425166 0.148840
H18   H     H_    0.150856 0.662780 0.411473 0.164550
H19   H     H_    0.528894 0.765678 0.864130 0.169101
H20   H     H_    0.482556 0.434875 0.166957 0.193830
H21   H     H_    0.486461 0.185325 0.967098 0.155057
H22   H     H_    0.847913 0.319754 0.543078 0.181076
H23   H     H_    0.319097 0.258783 0.320648 0.148616
N1    N     N_R   0.433240 0.222190 0.444680 -0.141038
N2    N     N_R   0.566070 0.776970 0.554790 -0.128405
N3    N     N_1   0.340055 0.136043 0.744061 -0.156045
N4    N     N_1   0.662030 0.295645 0.156776 -0.185507
N5    N     N_1   0.289936 0.655480 0.725765 -0.229275
N6    N     N_1   0.848208 0.554318 0.232521 -0.183839
N7    N     N_1   0.821872 0.395900 0.758085 -0.192850
O1    O     O_R   0.468120 0.366740 0.627160 -0.598266
O2    O     O_3   0.625886 0.847354 0.019781 -0.777425
O3    O     O_3   0.541754 0.172084 0.592218 -0.794430
O4    O     O_R   0.510770 0.544830 0.662520 -0.616837
O5    O     O_R   0.663880 0.410950 0.482330 -0.651952
O6    O     O_R   0.706530 0.589040 0.517700 -0.631145
O7    O     O_R   0.489230 0.455170 0.337480 -0.633661
O8    O     O_R   0.531880 0.633260 0.372840 -0.577197
O9    O     O_R   0.293470 0.410960 0.482300 -0.627613
O10   O     O_R   0.336120 0.589050 0.517670 -0.643076
O11   O     O_3   0.624171 0.785401 0.230260 -0.748771
Zn1   Zn    Zn3+2 0.471520 0.381090 0.476390 0.950486
Zn2   Zn    Zn3+2 0.528480 0.618910 0.523610 0.959395

loop_
_geom_bond_atom_site_label_1
_geom_bond_atom_site_label_2
_ccdc_geom_bond_type
C34   H13   S    
C12   C29   S    
N2    Zn2   S    
C41   C42   A    
C25   N1    A    
C17   H5    S    
C7    C8    A    
C5    C9    A    
C12   C23   S    
C1    O1    A    
C28   C29   S    
C13   H3    S    
C20   C25   A    
C1    O4    A    
C10   C40   A    
C18   C19   A    
C8    C36   S    
C35   N4    T    
C30   H17   S    
C11   C41   A    
C39   O2    S    
C35   C43   S    
O8    Zn2   S    
C36   N5    T    
C33   N3    T    
C34   H12   S    
C31   H11   S    
C21   C22   A    
H15   O2    S    
C23   H10   S    
C24   H7    S    
N1    Zn1   S    
C12   C27   S    
C26   H23   S    
C23   C30   S    
C28   C32   S    
C4    O6    A    
C3    C8    A    
C28   H1    S    
C9    C40   A    
C30   C37   S    
C10   C39   A    
C16   O7    A    
C7    H19   S    
C4    O5    A    
O7    Zn1   S    
C31   C32   S    
C2    C43   A    
C6    C39   A    
O10   Zn2   S    
C17   C18   A    
C31   C34   S    
C13   C21   A    
C19   N2    A    
C4    C32   S    
C6    C7    A    
C16   C40   S    
O5    Zn1   S    
O4    Zn2   S    
C22   C24   A    
C13   C26   A    
C2    C5    A    
C42   C43   A    
C26   N1    A    
C12   C34   S    
C42   H21   S    
C29   H8    S    
C15   C17   A    
H14   O11   S    
C9    H20   S    
C19   C24   A    
C27   O9    A    
C14   H4    S    
O9    Zn1   S    
C31   C38   S    
C25   O3    S    
C33   C41   S    
C27   O10   A    
C28   H22   S    
C30   C32   S    
C5    C6    A    
C10   O11   S    
C16   O8    A    
C2    C3    A    
C18   C20   A    
C15   H6    S    
O1    Zn1   S    
C3    C11   A    
C23   H18   S    
C22   H2    S    
C20   C21   A    
C37   N6    T    
C14   N2    A    
C14   C15   A    
C1    C11   S    
H16   O3    S    
C29   H9    S    
O6    Zn2   S    
C38   N7    T    
