data_mof_unit_45464.cif
_audit_creation_date              2012-12-11T15:54:54-0500
_audit_creation_method            fapswitch 2.2
_symmetry_space_group_name_H-M    P1
_symmetry_Int_Tables_number       1
_space_group_crystal_system       triclinic
_cell_length_a                    17.591134
_cell_length_b                    24.345862
_cell_length_c                    15.122864
_cell_angle_alpha                 90.016268
_cell_angle_beta                  126.189194
_cell_angle_gamma                 90.001177
_cell_volume                      5227.15191039

loop_
_atom_site_label
_atom_site_type_symbol
_atom_type_description
_atom_site_fract_x
_atom_site_fract_y
_atom_site_fract_z
_atom_type_partial_charge
C1    C     C_R   0.904650 0.871221 0.090278 -0.130953
C2    C     C_R   0.148488 0.847595 0.090334 -0.152350
C3    C     C_R   0.315735 0.641755 0.997525 -0.009415
C4    C     C_R   0.698384 0.999966 0.631879 -0.006938
C5    C     C_R   0.198384 0.499957 0.631880 -0.006867
C6    C     C_R   0.989163 0.000411 0.312896 0.047091
C7    C     C_R   0.489400 0.500438 0.313105 0.047111
C8    C     C_R   0.267849 0.953888 0.247665 -0.140720
C9    C     C_R   0.267898 0.046093 0.247706 -0.140795
C10   C     C_R   0.767839 0.453881 0.247657 -0.140676
C11   C     C_R   0.767907 0.546085 0.247699 -0.140822
C12   C     C_R   0.952680 0.046096 0.697906 -0.155444
C13   C     C_R   0.648649 0.652376 0.090422 -0.152163
C14   C     C_R   0.953145 0.954171 0.697701 -0.157265
C15   C     C_R   0.452653 0.546108 0.697911 -0.155500
C16   C     C_R   0.453123 0.454184 0.697676 -0.157308
C17   C     C_3   0.798906 0.069465 0.427287 -1.055536
C18   C     C_3   0.792700 0.935098 0.427813 -1.067972
C19   C     C_3   0.299338 0.569726 0.427341 -1.055456
C20   C     C_3   0.292474 0.435366 0.427653 -1.068419
C21   C     C_R   0.648478 0.347593 0.090332 -0.152367
C22   C     C_R   0.324133 0.999980 0.274132 -0.009281
C23   C     C_R   0.824133 0.499965 0.274122 -0.009293
C24   C     C_R   0.937510 0.000254 0.636100 0.035142
C25   C     C_R   0.437493 0.500278 0.636094 0.035315
C26   C     C_R   0.118082 0.816829 0.998161 -0.007500
C27   C     C_R   0.118327 0.183134 0.998296 -0.007391
C28   C     C_R   0.618070 0.316826 0.998158 -0.007496
C29   C     C_R   0.904799 0.129100 0.090172 -0.132034
C30   C     C_R   0.618315 0.683136 0.998295 -0.007380
C31   C     C_3   0.918666 0.054933 0.385942 -0.444425
C32   C     C_3   0.902428 0.952175 0.372358 -0.439755
C33   C     C_3   0.419451 0.555144 0.386576 -0.444710
C34   C     C_3   0.402117 0.452442 0.372072 -0.439696
C35   C     C_3   0.901743 0.055281 0.474616 0.188742
C36   C     C_3   0.894110 0.948303 0.467844 0.192698
C37   C     C_3   0.402195 0.555423 0.474960 0.188569
C38   C     C_3   0.393899 0.448461 0.467626 0.192699
C39   C     C_3   0.064052 0.995463 0.506360 -0.430783
C40   C     C_R   0.404632 0.371249 0.090283 -0.130942
C41   C     C_3   0.564163 0.495152 0.506516 -0.430928
C42   C     C_3   0.968842 0.000700 0.392824 0.315842
C43   C     C_3   0.469046 0.500746 0.392999 0.315952
C44   C     C_3   0.940840 0.000505 0.542308 0.305467
C45   C     C_3   0.440913 0.500547 0.542371 0.305519
C46   C     C_R   0.811194 0.126242 0.906314 -0.142882
C47   C     C_R   0.811094 0.873891 0.906389 -0.142938
C48   C     C_R   0.311189 0.626236 0.906314 -0.142862
C49   C     C_R   0.311085 0.373904 0.906393 -0.142932
C50   C     C_3   0.048306 0.998050 0.594790 -0.557267
C51   C     C_R   0.404788 0.629088 0.090172 -0.132081
C52   C     C_3   0.548382 0.497874 0.594916 -0.557209
C53   C     C_3   0.655540 0.184797 0.889836 -0.407494
C54   C     C_3   0.655377 0.815393 0.890184 -0.407452
C55   C     C_3   0.155534 0.684793 0.889837 -0.407492
C56   C     C_3   0.155362 0.315409 0.890198 -0.407436
C57   C     C_3   0.100104 0.733124 0.891066 -0.408551
C58   C     C_3   0.100114 0.266935 0.891355 -0.408360
C59   C     C_3   0.600101 0.233122 0.891069 -0.408560
C60   C     C_3   0.600118 0.766928 0.891345 -0.408370
C61   C     C_3   0.306277 0.740067 0.004480 -0.401976
C62   C     C_R   0.057782 0.848701 0.907404 -0.146810
C63   C     C_3   0.306171 0.260193 0.004308 -0.401523
C64   C     C_3   0.806276 0.240077 0.004479 -0.402005
C65   C     C_3   0.806178 0.760171 0.004314 -0.401564
C66   C     C_3   0.751995 0.180061 0.094903 -0.398897
C67   C     C_3   0.752172 0.819989 0.095287 -0.398109
C68   C     C_3   0.251989 0.680057 0.094904 -0.398948
C69   C     C_3   0.252169 0.319995 0.095302 -0.398126
C70   C     C_3   0.757831 0.185237 0.996503 0.406019
C71   C     C_3   0.757758 0.814964 0.996680 0.405651
C72   C     C_3   0.257825 0.685229 0.996504 0.406025
C73   C     C_R   0.057919 0.151280 0.907482 -0.146962
C74   C     C_3   0.257747 0.314982 0.996687 0.405642
C75   C     C_3   0.165076 0.767550 0.997328 0.409619
C76   C     C_3   0.165223 0.232494 0.997507 0.409857
C77   C     C_3   0.665070 0.267551 0.997326 0.409637
C78   C     C_3   0.665218 0.732490 0.997504 0.409855
C79   C     C_3   0.251070 0.788342 0.003320 -0.395242
C80   C     C_3   0.251167 0.211832 0.003287 -0.395502
C81   C     C_3   0.751058 0.288348 0.003310 -0.395224
C82   C     C_3   0.751162 0.711817 0.003292 -0.395485
C83   C     C_3   0.198914 0.729646 0.096812 -0.409532
C84   C     C_R   0.557777 0.348701 0.907403 -0.146814
C85   C     C_3   0.199120 0.270354 0.097114 -0.410451
C86   C     C_3   0.698919 0.229648 0.096815 -0.409583
C87   C     C_3   0.699116 0.770355 0.097104 -0.410446
C88   C     C_3   0.475853 0.948258 0.359950 -0.402110
C89   C     C_3   0.476147 0.051343 0.359353 -0.402028
C90   C     C_3   0.975814 0.448172 0.360085 -0.402095
C91   C     C_3   0.976198 0.551255 0.359209 -0.402038
C92   C     C_R   0.744869 0.954271 0.695216 -0.145210
C93   C     C_R   0.744852 0.045688 0.695213 -0.143956
C94   C     C_R   0.244882 0.454266 0.695218 -0.145278
C95   C     C_R   0.557910 0.651282 0.907482 -0.146980
C96   C     C_R   0.244840 0.545684 0.695211 -0.143874
C97   C     C_3   0.579869 0.948208 0.459714 -0.412743
C98   C     C_3   0.580197 0.051389 0.459148 -0.409993
C99   C     C_3   0.079785 0.448083 0.459939 -0.412870
C100  C     C_3   0.080291 0.551261 0.458923 -0.409770
C101  C     C_3   0.434322 0.000271 0.471246 -0.394206
C102  C     C_3   0.934323 0.500375 0.471234 -0.394186
C103  C     C_3   0.425666 0.999964 0.363043 0.403484
C104  C     C_3   0.925668 0.499941 0.363034 0.403467
C105  C     C_3   0.601525 0.999955 0.531313 0.404711
C106  C     C_R   0.148654 0.152375 0.090422 -0.152160
C107  C     C_3   0.101527 0.499938 0.531310 0.404689
C108  C     C_3   0.537220 0.000262 0.569603 -0.395250
C109  C     C_3   0.037219 0.500452 0.569592 -0.395305
C110  C     C_R   0.008906 0.046277 0.276681 -0.152037
C111  C     C_R   0.009005 0.954184 0.277328 -0.149980
C112  C     C_R   0.509034 0.546293 0.276769 -0.152176
C113  C     C_R   0.509131 0.454197 0.277452 -0.150006
C114  C     C_R   0.815573 0.858513 0.997644 -0.009513
C115  C     C_R   0.815746 0.141766 0.997526 -0.009409
C116  C     C_R   0.315555 0.358538 0.997649 -0.009524
H1    H     H_    0.936310 0.857517 0.172644 0.080511
H2    H     H_    0.936826 0.912027 0.517413 0.104231
H3    H     H_    0.051495 0.537547 0.620451 0.152844
H4    H     H_    0.018606 0.087898 0.305418 0.084315
H5    H     H_    0.018409 0.912743 0.307100 0.081842
H6    H     H_    0.518727 0.587925 0.305445 0.084407
H7    H     H_    0.518495 0.412755 0.307218 0.081793
H8    H     H_    0.288792 0.911346 0.263106 0.088688
H9    H     H_    0.288964 0.088624 0.263300 0.088619
H10   H     H_    0.788756 0.411335 0.263073 0.088686
H11   H     H_    0.788999 0.588612 0.263309 0.088621
H12   H     H_    0.941934 0.088786 0.674012 0.093196
H13   H     H_    0.445332 0.589915 0.530992 0.099297
H14   H     H_    0.943851 0.911553 0.673338 0.092383
H15   H     H_    0.441867 0.588801 0.674040 0.093266
H16   H     H_    0.443856 0.411570 0.673288 0.092293
H17   H     H_    0.016495 0.837167 0.822040 0.084802
H18   H     H_    0.016647 0.162835 0.822147 0.084594
H19   H     H_    0.516491 0.337168 0.822037 0.084806
H20   H     H_    0.516635 0.662837 0.822147 0.084594
H21   H     H_    0.191337 0.165829 0.174736 0.083403
H22   H     H_    0.191144 0.834140 0.174627 0.083481
H23   H     H_    0.691338 0.665827 0.174738 0.083409
H24   H     H_    0.436478 0.412099 0.516957 0.104412
H25   H     H_    0.691129 0.334135 0.174623 0.083479
H26   H     H_    0.962797 0.091314 0.400456 0.126214
H27   H     H_    0.929276 0.912132 0.366304 0.126478
H28   H     H_    0.464137 0.591339 0.401737 0.126280
H29   H     H_    0.428458 0.412336 0.365453 0.126548
H30   H     H_    0.787935 0.114408 0.412390 0.243805
H31   H     H_    0.748044 0.049147 0.347570 0.261876
H32   H     H_    0.782394 0.058355 0.485287 0.258436
H33   H     H_    0.775814 0.891933 0.398417 0.246895
H34   H     H_    0.784813 0.939146 0.494974 0.255753
H35   H     H_    0.112577 0.029168 0.519460 0.169130
H36   H     H_    0.739653 0.961214 0.358496 0.267786
H37   H     H_    0.288591 0.614697 0.412743 0.243812
H38   H     H_    0.248569 0.549552 0.347422 0.261789
H39   H     H_    0.282514 0.558529 0.485025 0.258495
H40   H     H_    0.275284 0.392300 0.397681 0.247021
H41   H     H_    0.284775 0.439169 0.494995 0.255677
H42   H     H_    0.239514 0.461712 0.358761 0.267992
H43   H     H_    0.098473 0.955782 0.512643 0.166052
H44   H     H_    0.613107 0.528641 0.519867 0.169220
H45   H     H_    0.598097 0.455316 0.512547 0.165958
H46   H     H_    0.085208 0.034824 0.647145 0.181088
H47   H     H_    0.081867 0.961417 0.648827 0.180639
H48   H     H_    0.585450 0.534612 0.647309 0.181124
H49   H     H_    0.936524 0.143161 0.172347 0.080679
H50   H     H_    0.581750 0.461213 0.648920 0.180625
H51   H     H_    0.654797 0.189249 0.816241 0.144588
H52   H     H_    0.654432 0.811113 0.816425 0.144562
H53   H     H_    0.154790 0.689239 0.816241 0.144582
H54   H     H_    0.154409 0.311139 0.816432 0.144556
H55   H     H_    0.620206 0.145323 0.882198 0.152779
H56   H     H_    0.620023 0.854799 0.882885 0.152852
H57   H     H_    0.120193 0.645323 0.882203 0.152784
H58   H     H_    0.120003 0.354810 0.882912 0.152851
H59   H     H_    0.538203 0.217621 0.886179 0.152107
H60   H     H_    0.436279 0.357570 0.172661 0.080520
H61   H     H_    0.538186 0.782290 0.886527 0.152087
H62   H     H_    0.038198 0.717630 0.886166 0.152103
H63   H     H_    0.038180 0.282288 0.886541 0.152085
H64   H     H_    0.073328 0.758158 0.816702 0.144325
H65   H     H_    0.073385 0.241942 0.816923 0.144312
H66   H     H_    0.573311 0.258154 0.816699 0.144322
H67   H     H_    0.573385 0.741931 0.816916 0.144319
H68   H     H_    0.311273 0.744053 0.934668 0.153519
H69   H     H_    0.310910 0.256281 0.934291 0.153489
H70   H     H_    0.811276 0.244064 0.934671 0.153521
H71   H     H_    0.436504 0.643142 0.172347 0.080699
H72   H     H_    0.810923 0.756252 0.934303 0.153493
H73   H     H_    0.755606 0.133582 0.821065 0.088680
H74   H     H_    0.755464 0.866522 0.821153 0.088813
H75   H     H_    0.255603 0.633577 0.821065 0.088670
H76   H     H_    0.255454 0.366534 0.821157 0.088816
H77   H     H_    0.227691 0.815048 0.931613 0.155085
H78   H     H_    0.227763 0.185117 0.931549 0.154946
H79   H     H_    0.727671 0.315051 0.931595 0.155087
H80   H     H_    0.727757 0.685100 0.931558 0.154949
H81   H     H_    0.822880 0.178763 0.174443 0.144054
H82   H     H_    0.851892 0.059555 0.302157 0.170771
H83   H     H_    0.823139 0.821207 0.174722 0.143149
H84   H     H_    0.322874 0.678760 0.174443 0.144071
H85   H     H_    0.323139 0.321210 0.174733 0.143113
H86   H     H_    0.715206 0.141341 0.088017 0.154284
H87   H     H_    0.715500 0.858694 0.088750 0.154989
H88   H     H_    0.215199 0.641338 0.088021 0.154273
H89   H     H_    0.215497 0.358697 0.088780 0.155017
H90   H     H_    0.637723 0.215380 0.094616 0.152440
H91   H     H_    0.637939 0.784576 0.094987 0.152447
H92   H     H_    0.137711 0.715380 0.094604 0.152444
H93   H     H_    0.832433 0.958547 0.292688 0.174811
H94   H     H_    0.137944 0.284570 0.095003 0.152440
H95   H     H_    0.247549 0.751896 0.175289 0.145560
H96   H     H_    0.247785 0.248083 0.175520 0.145336
H97   H     H_    0.747557 0.251900 0.175289 0.145560
H98   H     H_    0.747776 0.748085 0.175514 0.145343
H99   H     H_    0.379374 0.741530 0.081336 0.152308
H100  H     H_    0.379368 0.258758 0.080992 0.152288
H101  H     H_    0.879370 0.241544 0.081338 0.152305
H102  H     H_    0.879372 0.758734 0.081003 0.152289
H103  H     H_    0.298149 0.813475 0.078570 0.152955
H104  H     H_    0.352876 0.560121 0.302746 0.170744
H105  H     H_    0.298385 0.186739 0.078517 0.152948
H106  H     H_    0.798133 0.313487 0.078553 0.152954
H107  H     H_    0.798373 0.686725 0.078525 0.152948
H108  H     H_    0.443200 0.909872 0.362580 0.143577
H109  H     H_    0.443644 0.089933 0.361446 0.143346
H110  H     H_    0.943081 0.409822 0.362703 0.143524
H111  H     H_    0.943772 0.589880 0.361307 0.143392
H112  H     H_    0.470557 0.947667 0.282900 0.154545
H113  H     H_    0.470873 0.051461 0.282313 0.154481
H114  H     H_    0.970612 0.447523 0.283095 0.154603
H115  H     H_    0.332149 0.459152 0.292559 0.174982
H116  H     H_    0.970840 0.551314 0.282116 0.154430
H117  H     H_    0.625576 0.947521 0.431534 0.167430
H118  H     H_    0.625967 0.051630 0.431017 0.164506
H119  H     H_    0.125573 0.447196 0.431878 0.167369
H120  H     H_    0.125995 0.551304 0.430697 0.164476
H121  H     H_    0.732262 0.911853 0.669416 0.082594
H122  H     H_    0.732171 0.088096 0.669407 0.082531
H123  H     H_    0.232306 0.411849 0.669417 0.082622
H124  H     H_    0.232127 0.588091 0.669404 0.082478
H125  H     H_    0.593257 0.909939 0.506851 0.145482
H126  H     H_    0.944824 0.089852 0.530430 0.099346
H127  H     H_    0.593821 0.089864 0.505871 0.145031
H128  H     H_    0.092992 0.409895 0.507223 0.145526
H129  H     H_    0.094087 0.589811 0.505503 0.144962
H130  H     H_    0.398920 0.963546 0.475668 0.152885
H131  H     H_    0.399162 0.037237 0.475290 0.152644
H132  H     H_    0.898972 0.463663 0.475792 0.152941
H133  H     H_    0.899111 0.537353 0.475143 0.152592
H134  H     H_    0.551294 0.963504 0.621119 0.153141
H135  H     H_    0.551509 0.037245 0.620729 0.152855
H136  H     H_    0.051303 0.463807 0.621370 0.153162
N1    N     N_R   0.950530 0.896220 0.057200 -0.034173
N2    N     N_R   0.818150 0.028600 0.792440 -0.030591
N3    N     N_R   0.318150 0.471400 0.792440 -0.030475
N4    N     N_R   0.318150 0.528600 0.792440 -0.030594
N5    N     N_R   0.025710 0.028600 0.207560 -0.034893
N6    N     N_R   0.025710 0.971400 0.207560 -0.034777
N7    N     N_R   0.525710 0.528600 0.207560 -0.034868
N8    N     N_R   0.525710 0.471400 0.207560 -0.034748
N9    N     N_R   0.181850 0.971400 0.207560 -0.038452
N10   N     N_R   0.181850 0.028600 0.207560 -0.038464
N11   N     N_R   0.681850 0.471400 0.207560 -0.038450
N12   N     N_R   0.950530 0.103780 0.057200 -0.033996
N13   N     N_R   0.681850 0.528600 0.207560 -0.038455
N14   N     N_R   0.974290 0.028600 0.792440 -0.033270
N15   N     N_R   0.974290 0.971400 0.792440 -0.032903
N16   N     N_R   0.474290 0.528600 0.792440 -0.033285
N17   N     N_R   0.474290 0.471400 0.792440 -0.032897
N18   N     N_R   0.049470 0.896220 0.942800 -0.033885
N19   N     N_R   0.049470 0.103780 0.942800 -0.033933
N20   N     N_R   0.549470 0.396220 0.942800 -0.033884
N21   N     N_R   0.549470 0.603780 0.942800 -0.033937
N22   N     N_R   0.106670 0.103780 0.057200 -0.032723
N23   N     N_R   0.450530 0.396220 0.057200 -0.034183
N24   N     N_R   0.106670 0.896220 0.057200 -0.032741
N25   N     N_R   0.606670 0.603780 0.057200 -0.032721
N26   N     N_R   0.606670 0.396220 0.057200 -0.032746
N27   N     N_R   0.450530 0.603780 0.057200 -0.033995
N28   N     N_R   0.893330 0.103780 0.942800 -0.035021
N29   N     N_R   0.893330 0.896220 0.942800 -0.035109
N30   N     N_R   0.393330 0.603780 0.942800 -0.035022
N31   N     N_R   0.393330 0.396220 0.942800 -0.035114
N32   N     N_R   0.818150 0.971400 0.792440 -0.030478
Ni1   Ni    Ni4+2 0.065600 0.934400 0.131190 0.203705
Ni2   Ni    Ni4+2 0.065600 0.065600 0.131190 0.203511
Ni3   Ni    Ni4+2 0.565600 0.434400 0.131190 0.203716
Ni4   Ni    Ni4+2 0.565600 0.565600 0.131190 0.203518
Ni5   Ni    Ni4+2 0.934400 0.065600 0.868810 0.206010
Ni6   Ni    Ni4+2 0.934400 0.934400 0.868810 0.205870
Ni7   Ni    Ni4+2 0.434400 0.565600 0.868810 0.206014
Ni8   Ni    Ni4+2 0.434400 0.434400 0.868810 0.205863

loop_
_geom_bond_atom_site_label_1
_geom_bond_atom_site_label_2
_ccdc_geom_bond_type
C78   C87   S    
C47   C114  A    
C18   C36   S    
C84   H19   S    
C69   H85   S    
C31   C42   S    
C41   H45   S    
C68   H88   S    
C102  H133  S    
C19   H39   S    
C6    C111  A    
C34   H115  S    
C106  N22   A    
C91   C104  S    
N23   Ni3   S    
C85   H94   S    
C86   H90   S    
C5    C94   A    
C53   C59   S    
C58   C76   S    
C109  H136  S    
C49   H76   S    
C54   C60   S    
C10   N11   A    
C81   H106  S    
C60   H67   S    
C60   C78   S    
C83   H92   S    
C98   C105  S    
C46   C115  A    
C7    C113  A    
C58   H65   S    
C83   H95   S    
C32   C36   S    
C62   H17   S    
C17   C35   S    
C17   H31   S    
C59   H59   S    
C55   H53   S    
C112  N7    A    
C5    C107  S    
N9    N10   A    
C34   H29   S    
N1    Ni1   S    
C9    C22   A    
C15   C25   A    
C15   H15   S    
C28   C84   A    
C101  H130  S    
C25   C45   S    
C14   C24   A    
C39   H35   S    
C3    C48   A    
C29   N12   A    
C20   C38   S    
C7    C112  A    
C12   N14   A    
N5    N6    A    
N27   N30   A    
C29   H49   S    
C99   H128  S    
C55   H57   S    
C38   C45   S    
C100  H129  S    
C47   N29   A    
N13   Ni4   S    
C52   H50   S    
C80   H105  S    
C53   H55   S    
C94   N3    A    
C53   H51   S    
C54   C71   S    
C1    N1    A    
C111  H5    S    
C63   H69   S    
C113  H7    S    
C8    C22   A    
C80   H78   S    
C88   H108  S    
C58   H63   S    
N22   Ni2   S    
C113  N8    A    
C64   C70   S    
C63   H100  S    
C61   H68   S    
N2    Ni5   S    
C19   C37   S    
C90   C104  S    
C41   C52   S    
C82   H80   S    
C55   C72   S    
C36   C44   S    
N29   Ni6   S    
C63   C80   S    
C56   H54   S    
C69   H89   S    
C101  C108  S    
C29   C115  A    
C65   H72   S    
N32   Ni6   S    
C101  C103  S    
C20   H42   S    
C66   H81   S    
C89   C103  S    
C40   C116  A    
C41   C43   S    
C59   C77   S    
N19   N22   A    
C18   H36   S    
C53   C70   S    
C27   C106  A    
C105  C108  S    
N1    N29   A    
C16   N17   A    
C39   C42   S    
C107  C109  S    
N24   Ni1   S    
C56   C58   S    
C33   H28   S    
N25   Ni4   S    
C92   H121  S    
C21   H25   S    
N11   Ni3   S    
N26   Ni3   S    
C84   N20   A    
C108  H135  S    
C13   N25   A    
C2    H22   S    
N18   N24   A    
C13   C30   A    
C17   H32   S    
C102  H132  S    
C24   C44   S    
C96   N4    A    
C110  N5    A    
C27   C73   A    
C15   N16   A    
C73   N19   A    
C110  H4    S    
N14   N15   A    
C40   H60   S    
C3    C51   A    
C93   N2    A    
C8    H8    S    
C106  H21   S    
C82   H107  S    
C45   C52   S    
C60   H61   S    
C65   C71   S    
C97   H125  S    
C49   N31   A    
N21   N25   A    
C57   H62   S    
C71   C114  S    
C56   H58   S    
C67   C87   S    
C33   C43   S    
C6    C110  A    
C59   H66   S    
C11   H11   S    
C112  H6    S    
C30   C95   A    
N23   N31   A    
C69   C85   S    
C54   H56   S    
N3    N4    A    
C81   H79   S    
C41   H44   S    
C99   H119  S    
C78   C82   S    
C79   H103  S    
C23   C104  S    
C98   H118  S    
C77   C81   S    
C93   H122  S    
C68   C72   S    
C97   H117  S    
C9    N10   A    
C39   C50   S    
C26   C75   S    
C11   N13   A    
C51   N27   A    
C69   C74   S    
C2    C26   A    
N9    Ni1   S    
C1    H1    S    
N20   N26   A    
N16   N17   A    
N16   Ni7   S    
C102  C104  S    
C28   C77   S    
C20   H40   S    
C35   C44   S    
C98   H127  S    
C96   H124  S    
C62   N18   A    
N5    Ni2   S    
C64   H101  S    
C61   C72   S    
N10   Ni2   S    
C21   C28   A    
C52   H48   S    
C77   C86   S    
C7    C43   S    
C20   H41   S    
N6    Ni1   S    
C91   C100  S    
N27   Ni4   S    
C31   C35   S    
C100  H120  S    
C1    C114  A    
C46   H73   S    
C37   C45   S    
C27   C76   S    
C18   H33   S    
C85   H96   S    
C13   H23   S    
C90   C99   S    
C5    C96   A    
C36   H2    S    
C14   N15   A    
C109  H3    S    
C33   C37   S    
C14   H14   S    
C33   H104  S    
C44   C50   S    
C16   C25   A    
N11   N13   A    
C57   H64   S    
C100  C107  S    
C48   N30   A    
C111  N6    A    
N3    Ni8   S    
C91   H111  S    
C50   H47   S    
C34   C38   S    
C68   C83   S    
C39   H43   S    
C90   H110  S    
N15   Ni6   S    
C34   C43   S    
C76   C80   S    
C70   C115  S    
C54   H52   S    
C88   C103  S    
C79   H77   S    
C87   H91   S    
C66   C86   S    
N17   Ni8   S    
C48   H75   S    
C12   H12   S    
C63   C74   S    
N31   Ni8   S    
C66   C70   S    
C99   C107  S    
C4    C105  S    
C12   C24   A    
C67   H83   S    
N28   Ni5   S    
C95   N21   A    
C67   H87   S    
C68   H84   S    
C89   C98   S    
C40   N23   A    
N12   Ni2   S    
C50   H46   S    
C57   C75   S    
C31   H26   S    
C55   C57   S    
C3    C72   S    
C88   H112  S    
C88   C97   S    
C97   C105  S    
C94   H123  S    
C92   N32   A    
C91   H116  S    
C10   H10   S    
C74   C116  S    
N20   Ni8   S    
C32   H93   S    
C38   H24   S    
C75   C83   S    
C65   C82   S    
C65   H102  S    
C30   C78   S    
C61   C79   S    
C19   H37   S    
C11   C23   A    
C95   H20   S    
N12   N28   A    
C87   H98   S    
C37   H13   S    
C17   H30   S    
N14   Ni5   S    
C67   C71   S    
C46   N28   A    
N4    Ni7   S    
C26   C62   A    
N7    Ni4   S    
C16   H16   S    
C64   H70   S    
C64   C81   S    
C86   H97   S    
N8    Ni3   S    
C51   H71   S    
C10   C23   A    
C22   C103  S    
C2    N24   A    
C4    C93   A    
C66   H86   S    
C9    H9    S    
C31   H82   S    
N30   Ni7   S    
C49   C116  A    
C89   H109  S    
C73   H18   S    
C35   H126  S    
C47   H74   S    
C6    C42   S    
N18   Ni6   S    
C108  H134  S    
C21   N26   A    
C19   H38   S    
C32   C42   S    
C90   H114  S    
C102  C109  S    
C61   H99   S    
N21   Ni7   S    
C89   H113  S    
C8    N9    A    
C18   H34   S    
C75   C79   S    
C76   C85   S    
N19   Ni5   S    
C56   C74   S    
C32   H27   S    
N7    N8    A    
N2    N32   A    
C4    C92   A    
C101  H131  S    
