data_mof_unit_50053.cif
_audit_creation_date              2013-03-05T15:48:44-0500
_audit_creation_method            fapswitch 2.2
_symmetry_space_group_name_H-M    P1
_symmetry_Int_Tables_number       1
_space_group_crystal_system       triclinic
_cell_length_a                    10.939029
_cell_length_b                    13.034354
_cell_length_c                    11.785179
_cell_angle_alpha                 100.191309
_cell_angle_beta                  94.665521
_cell_angle_gamma                 93.655412
_cell_volume                      1643.13721853

loop_
_atom_site_label
_atom_site_type_symbol
_atom_site_description
_atom_site_fract_x
_atom_site_fract_y
_atom_site_fract_z
_atom_type_partial_charge
O1    O     O_R   0.506640 0.354460 0.582000 -0.619478
O2    O     O_R   0.490840 0.341410 0.386200 -0.528125
C1    C     C_R   0.500186 0.299486 0.478350 0.873389
O3    O     O_R   0.325590 0.506510 0.597900 -0.611600
O4    O     O_R   0.309790 0.493450 0.402100 -0.533191
C2    C     C_R   0.259965 0.503628 0.499358 0.865750
Cu1   Cu    Cu3+1 0.509350 0.507730 0.615930 0.978125
Cu2   Cu    Cu3+1 0.490650 0.492270 0.384070 1.087445
O5    O     O_R   0.509160 0.658590 0.613800 -0.546566
O6    O     O_R   0.493360 0.645540 0.418000 -0.601734
O7    O     O_R   0.690210 0.506550 0.597900 -0.612210
O8    O     O_R   0.674410 0.493490 0.402100 -0.507095
C3    C     C_R   0.501280 0.701130 0.522393 0.834339
C4    C     C_R   0.739664 0.500234 0.501770 0.868865
C5    C     C_3   0.084338 0.503282 0.627199 -0.079070
H1    H     H_    0.122171 0.432963 0.652822 0.202963
C6    C     C_3   0.941150 0.484149 0.628027 -0.134770
H2    H     H_    0.923084 0.400277 0.633481 0.207472
H3    H     H_    0.933724 0.661310 0.573970 0.138992
C7    C     C_3   0.071516 0.610410 0.459338 0.121223
C8    C     C_3   0.054879 0.397101 0.418039 0.373733
C9    C     C_3   0.121153 0.505476 0.497386 -0.162575
C10   C     C_3   0.877095 0.501665 0.506288 -0.237186
C11   C     C_3   0.932853 0.611784 0.486871 0.194399
C12   C     C_3   0.910438 0.403579 0.418361 -0.016749
H4    H     H_    0.872664 0.336920 0.454755 0.156462
C13   C     C_R   0.498723 0.815463 0.537617 -0.204555
C14   C     C_R   0.504163 0.186559 0.466483 -0.074784
C15   C     C_R   0.548100 0.019832 0.356838 0.106444
C16   C     C_R   0.541558 0.127543 0.366794 -0.080707
C17   C     C_R   0.475980 0.138804 0.558766 -0.178053
C18   C     C_R   0.485003 0.031727 0.554049 0.071813
C19   C     C_R   0.519129 0.970971 0.450867 0.116304
C20   C     C_R   0.524399 0.863354 0.444293 -0.227000
C21   C     C_R   0.469563 0.876515 0.642302 0.346170
C22   C     C_R   0.462187 0.985026 0.650930 0.038699
H5    H     H_    0.549342 0.815499 0.366175 0.208142
H6    H     H_    0.569161 0.166014 0.297991 0.225148
H7    H     H_    0.447415 0.186689 0.634638 0.162471
N1    N     N_R   0.523430 0.519360 0.790130 -0.212627
N2    N     N_R   0.476570 0.480640 0.209880 -0.282441
C23   C     C_R   0.379176 0.398743 0.023621 0.183063
C24   C     C_R   0.409229 0.398004 0.140722 0.503246
C25   C     C_R   0.540658 0.551556 0.159124 0.046580
C26   C     C_R   0.535327 0.542782 0.035717 -0.119000
C27   C     C_R   0.449622 0.466943 0.965778 -0.154507
C28   C     C_R   0.443989 0.457563 0.841739 0.300564
C29   C     C_R   0.605978 0.591350 0.858043 0.017089
C30   C     C_R   0.614321 0.605305 0.980244 0.289890
H8    H     H_    0.665266 0.640163 0.816855 0.178775
H9    H     H_    0.599928 0.611751 0.215451 0.229747
C31   C     C_3   0.143859 0.593186 0.726452 -0.688711
H10   H     H_    0.164489 0.561702 0.806977 0.232954
H11   H     H_    0.231232 0.631168 0.708858 0.285462
H12   H     H_    0.082938 0.656880 0.748309 0.242745
N3    N     N_R   0.841065 0.384820 0.302191 0.191780
O9    O     O_R   0.864463 0.439366 0.223437 -0.264028
O10   O     O_R   0.759899 0.304893 0.273560 -0.323894
C32   C     C_3   0.086029 0.619610 0.331468 -0.551387
H13   H     H_    0.057623 0.695557 0.312118 0.241620
H14   H     H_    0.183446 0.616796 0.312119 0.230935
H15   H     H_    0.026956 0.562120 0.269264 0.302091
N4    N     N_R   0.854373 0.665861 0.412289 0.119869
O11   O     O_R   0.823732 0.627900 0.303553 -0.294430
O12   O     O_R   0.813607 0.754534 0.456380 -0.364741
N5    N     N_R   0.446008 0.828736 0.739681 0.120635
O13   O     O_R   0.537072 0.819338 0.814292 -0.330797
O14   O     O_R   0.333824 0.816434 0.766783 -0.383712
C33   C     C_3   0.589872 0.960327 0.247154 -0.642415
H16   H     H_    0.608022 0.011626 0.183479 0.257885
H17   H     H_    0.676753 0.925346 0.268420 0.277600
H18   H     H_    0.517665 0.898390 0.205388 0.243638
C34   C     C_3   0.432336 0.051083 0.763552 -0.642003
H19   H     H_    0.423251 0.006992 0.834908 0.293946
H20   H     H_    0.507086 0.113890 0.794807 0.221631
H21   H     H_    0.343971 0.086380 0.749115 0.244975
C35   C     C_3   0.352071 0.375259 0.769628 -0.641810
H22   H     H_    0.258274 0.392984 0.790242 0.223608
H23   H     H_    0.344454 0.366671 0.676886 0.266695
H24   H     H_    0.374056 0.297246 0.786178 0.211229
N6    N     N_R   0.273678 0.331524 0.969743 0.122785
O15   O     O_R   0.280092 0.230692 0.947246 -0.289427
O16   O     O_R   0.165858 0.368257 0.971372 -0.290298
N7    N     N_R   0.706750 0.680809 0.045256 0.156789
O17   O     O_R   0.815285 0.690323 0.008735 -0.319695
O18   O     O_R   0.676944 0.751900 0.127996 -0.358771
N8    N     N_R   0.393352 0.299656 0.177483 0.159700
O19   O     O_R   0.458305 0.224711 0.134050 -0.344566
O20   O     O_R   0.297707 0.276235 0.228822 -0.209622
C36   C     C_3   0.890998 0.537030 0.742454 -0.682135
H25   H     H_    0.869483 0.618739 0.740477 0.236552
H26   H     H_    0.808957 0.491052 0.761780 0.245273
H27   H     H_    0.955803 0.535410 0.819325 0.260013
C37   C     C_3   0.145035 0.713651 0.526639 -0.755883
H28   H     H_    0.118930 0.741006 0.614278 0.247464
H29   H     H_    0.245525 0.706585 0.530738 0.209922
H30   H     H_    0.127420 0.781874 0.484575 0.251052
N9    N     N_R   0.082061 0.369648 0.295209 0.201216
O21   O     O_R   0.150512 0.427690 0.242998 -0.334974
O22   O     O_R   0.040627 0.277689 0.237255 -0.178862
N10   N     N_R   0.097009 0.308570 0.471977 0.092208
O23   O     O_R   0.209499 0.283145 0.463785 -0.341400
O24   O     O_R   0.024141 0.249523 0.519905 -0.361998

loop_
_geom_bond_atom_site_label_1
_geom_bond_atom_site_label_2
_geom_bond_distance
_ccdc_geom_bond_type
N1    C28   1.394276 A    
N5    O14   1.300194 A    
N8    O19   1.300705 A    
N4    O12   1.302159 A    
N10   O23   1.301281 A    
C20   H5    1.081872 S    
C34   H20   1.110598 S    
C34   H19   1.106649 S    
C21   C22   1.407930 A    
C12   N3    1.482869 S    
N6    O15   1.301550 A    
Cu1   Cu2   2.694074 S    
C35   H22   1.102771 S    
C25   C26   1.434641 A    
Cu1   O7    2.007660 S    
C6    C10   1.604464 S    
C18   C22   1.417522 A    
C30   N7    1.434618 S    
C1    C14   1.457505 S    
N7    O18   1.298555 A    
O4    C2    1.298256 A    
O7    C4    1.286586 A    
C5    H1    1.108393 S    
C2    C9    1.518552 S    
C15   C19   1.419558 A    
N3    O9    1.296686 A    
C16   H6    1.079134 S    
N1    C29   1.358346 A    
C23   C27   1.435726 A    
C33   H17   1.109463 S    
O5    C3    1.295258 A    
C7    C37   1.570749 S    
C5    C9    1.617940 S    
C7    C11   1.577303 S    
C17   H7    1.076828 S    
Cu1   N1    2.024073 S    
C31   H12   1.105672 S    
C8    N10   1.492565 S    
C29   H8    1.081172 S    
N5    O13   1.300643 A    
C32   H13   1.111798 S    
N10   O24   1.302168 A    
C8    C9    1.639255 S    
N2    C24   1.362931 A    
C33   H16   1.111087 S    
C23   N6    1.434456 S    
O3    Cu1   2.002842 S    
N6    O16   1.301202 A    
C31   H11   1.099918 S    
C19   C20   1.396250 A    
C15   C33   1.505927 S    
C35   H23   1.074608 S    
C13   C20   1.396092 A    
C32   H14   1.109277 S    
Cu2   N2    2.023958 S    
O3    C2    1.308035 A    
C37   H30   1.111726 S    
C13   C21   1.416356 A    
C12   H4    1.106593 S    
C26   C27   1.415382 A    
O1    C1    1.296281 A    
C4    C10   1.498776 S    
C33   H18   1.110288 S    
C15   C16   1.394930 A    
C36   H26   1.108789 S    
C17   C18   1.397056 A    
C26   C30   1.424383 A    
Cu2   O8    2.002841 S    
C6    H2    1.112519 S    
C5    C31   1.568159 S    
N7    O17   1.301345 A    
C7    C32   1.552736 S    
C37   H29   1.106815 S    
C25   H9    1.075835 S    
C29   C30   1.413952 A    
O8    C4    1.309988 A    
C11   N4    1.476506 S    
N9    O22   1.303565 A    
N8    O20   1.296738 A    
C34   H21   1.110252 S    
C23   C24   1.394277 A    
C28   C35   1.511596 S    
C31   H10   1.111181 S    
C36   H27   1.108117 S    
C35   H24   1.106168 S    
Cu1   O5    1.971090 S    
C8    C12   1.587944 S    
C27   C28   1.441111 A    
C32   H15   1.087794 S    
O1    Cu1   1.964614 S    
C14   C17   1.391023 A    
O2    Cu2   1.971090 S    
C6    C36   1.560211 S    
C7    C9    1.624435 S    
O6    C3    1.305893 A    
O4    Cu2   2.007659 S    
C5    C6    1.571382 S    
C21   N5    1.432431 S    
C24   N8    1.428820 S    
C18   C19   1.419847 A    
C14   C16   1.392062 A    
O2    C1    1.299056 A    
C8    N9    1.487360 S    
C36   H25   1.109085 S    
N2    C25   1.372939 A    
N3    O10   1.302472 A    
H3    C11   1.110679 S    
C10   C12   1.579076 S    
C37   H28   1.098214 S    
C22   C34   1.520382 S    
C10   C11   1.584879 S    
N4    O11   1.297662 A    
Cu2   O6    1.964614 S    
N9    O21   1.295802 A    
C3    C13   1.471510 S    
