data_mof_unit_48478.cif
_audit_creation_date              2013-03-05T15:58:05-0500
_audit_creation_method            fapswitch 2.2
_symmetry_space_group_name_H-M    P1
_symmetry_Int_Tables_number       1
_space_group_crystal_system       triclinic
_cell_length_a                    12.582626
_cell_length_b                    13.142452
_cell_length_c                    14.995688
_cell_angle_alpha                 90.719823
_cell_angle_beta                  102.691993
_cell_angle_gamma                 82.013951
_cell_volume                      2395.31680122

loop_
_atom_site_label
_atom_site_type_symbol
_atom_site_description
_atom_site_fract_x
_atom_site_fract_y
_atom_site_fract_z
_atom_type_partial_charge
O1    O     O_R   0.366740 0.627160 0.477250 -0.618085
O2    O     O_R   0.544830 0.662520 0.507680 -0.622852
C1    C     C_R   0.438442 0.691147 0.484495 0.854057
O3    O     O_R   0.410940 0.482340 0.616930 -0.624606
O4    O     O_R   0.589030 0.517700 0.647360 -0.617849
C2    C     C_R   0.500441 0.500834 0.673091 0.896947
Zn1   Zn    Zn3+2 0.381090 0.476390 0.479680 0.939936
Zn2   Zn    Zn3+2 0.618910 0.523610 0.520320 0.956373
O5    O     O_R   0.455170 0.337480 0.492320 -0.620529
O6    O     O_R   0.633260 0.372840 0.522750 -0.582595
O7    O     O_R   0.410970 0.482300 0.352640 -0.621941
O8    O     O_R   0.589060 0.517660 0.383070 -0.661220
C3    C     C_R   0.561855 0.308013 0.511691 0.892042
C4    C     C_R   0.499567 0.499195 0.326914 0.867745
C5    C     C_R   0.599308 0.492694 0.203433 -0.263432
C6    C     C_R   0.499294 0.497672 0.230824 -0.065712
C7    C     C_R   0.399621 0.502383 0.166572 -0.256352
C8    C     C_R   0.399150 0.503467 0.074125 0.116538
C9    C     C_R   0.499906 0.499175 0.046404 0.062318
C10   C     C_R   0.600374 0.493446 0.111433 0.119994
C11   C     C_R   0.299750 0.509357 0.009112 -0.213337
C12   C     C_R   0.300020 0.510943 0.916507 -0.210101
C13   C     C_R   0.399709 0.506549 0.888616 0.116130
C14   C     C_R   0.500191 0.500750 0.953643 0.060866
C15   C     C_R   0.600951 0.496437 0.925922 0.116230
C16   C     C_R   0.700356 0.490515 0.990948 -0.210231
C17   C     C_R   0.700077 0.488990 0.083559 -0.217862
C18   C     C_R   0.400742 0.507458 0.796601 -0.250138
C19   C     C_R   0.500766 0.502365 0.769209 -0.076272
C20   C     C_R   0.600466 0.497535 0.833464 -0.248514
H1    H     H_    0.676498 0.488191 0.253561 0.158443
H2    H     H_    0.322438 0.506590 0.188357 0.161953
H3    H     H_    0.222092 0.512803 0.029887 0.147957
H4    H     H_    0.222550 0.515461 0.866785 0.151807
H5    H     H_    0.323516 0.512219 0.746412 0.160367
H6    H     H_    0.677649 0.493270 0.811668 0.169033
H7    H     H_    0.778020 0.487028 0.970177 0.150072
H8    H     H_    0.777540 0.484461 0.133302 0.147105
C21   C     C_R   0.716041 0.053480 0.463695 -0.265039
H9    H     H_    0.716951 0.865995 0.394227 0.151287
H10   H     H_    0.794798 0.019652 0.450921 0.179888
C22   C     C_R   0.598871 0.197110 0.510117 -0.173164
C23   C     C_R   0.293623 0.839158 0.482969 -0.195776
C24   C     C_R   0.261641 0.944472 0.484354 -0.131709
C25   C     C_R   0.336197 0.011576 0.478238 -0.188088
C26   C     C_R   0.443132 0.973685 0.465960 0.097384
C27   C     C_R   0.467468 0.868469 0.448552 0.083455
C28   C     C_R   0.528056 0.035513 0.472955 0.081050
C29   C     C_R   0.628878 0.995345 0.450030 0.108125
C30   C     C_R   0.642477 0.896377 0.416236 -0.219275
C31   C     C_R   0.562067 0.833804 0.414489 -0.194461
C32   C     C_R   0.517190 0.134642 0.506281 -0.294356
C33   C     C_R   0.703545 0.153663 0.496703 0.307437
C34   C     C_R   0.397925 0.800490 0.468215 -0.115446
H11   H     H_    0.443991 0.166124 0.528765 0.177240
H12   H     H_    0.237903 0.788059 0.495871 0.156215
H13   H     H_    0.307258 0.092387 0.481783 0.140939
H14   H     H_    0.180563 0.974140 0.494522 0.163577
H15   H     H_    0.575382 0.757722 0.387090 0.173969
C35   C     C_R   0.085743 0.352807 0.367329 -0.287903
H16   H     H_    0.253641 0.334120 0.354395 0.136917
H17   H     H_    0.877319 0.325767 0.342723 0.168529
H18   H     H_    0.062778 0.295778 0.316521 0.148988
N1    N     N_R   0.222190 0.444670 0.452360 -0.103189
C36   C     C_R   0.800053 0.628474 0.609872 0.028396
C37   C     C_R   0.904692 0.657021 0.632159 -0.247067
C38   C     C_R   0.985795 0.609329 0.589745 -0.194169
C39   C     C_R   0.962176 0.532325 0.524504 0.015682
C40   C     C_R   0.854080 0.506264 0.504166 0.235876
C41   C     C_R   0.041031 0.479995 0.479103 -0.014784
C42   C     C_R   0.009353 0.405445 0.412611 0.182203
C43   C     C_R   0.902218 0.382883 0.392929 -0.220001
C44   C     C_R   0.826687 0.430710 0.439852 -0.138329
C45   C     C_R   0.150958 0.497746 0.497195 -0.043731
C46   C     C_R   0.193090 0.373830 0.388603 0.003566
N2    N     N_R   0.776970 0.554790 0.547140 -0.129689
H19   H     H_    0.182871 0.552495 0.546311 0.120667
H20   H     H_    0.736478 0.665368 0.642364 0.140663
H21   H     H_    0.065416 0.634620 0.609088 0.133449
H22   H     H_    0.922870 0.716032 0.681996 0.154851
H23   H     H_    0.747792 0.405501 0.425499 0.208232
N3    N     N_R   0.798358 0.206283 0.520614 0.200165
O9    O     O_R   0.816134 0.255476 0.597134 -0.374258
O10   O     O_R   0.879578 0.183259 0.479853 -0.432602

loop_
_geom_bond_atom_site_label_1
_geom_bond_atom_site_label_2
_geom_bond_distance
_ccdc_geom_bond_type
C8    C11   1.399970 A    
C9    C10   1.410097 A    
C21   H10   1.084079 S    
C25   C26   1.418700 A    
H16   C46   1.081895 S    
Zn1   O7    2.025628 S    
C25   H13   1.078428 S    
C16   C17   1.389943 A    
C36   N2    1.357311 A    
C35   H18   1.083896 S    
C18   C19   1.400100 A    
C22   C33   1.416243 A    
O4    C2    1.303976 A    
C1    C34   1.461208 S    
C11   H3    1.083995 S    
C17   H8    1.084198 S    
C5    C6    1.400089 A    
Zn2   N2    2.038596 S    
C40   N2    1.362305 A    
C8    C9    1.412220 A    
O5    C3    1.312768 A    
C18   H5    1.085115 S    
C24   H14   1.082752 S    
C6    C7    1.397850 A    
C45   H19   1.076312 S    
C41   C45   1.401547 A    
C13   C14   1.410160 A    
C40   C44   1.399964 A    
C41   C42   1.422091 A    
C32   H11   1.077146 S    
C37   C38   1.391493 A    
C11   C12   1.389841 A    
O3    Zn1   2.011873 S    
C44   H23   1.066432 S    
C3    C22   1.468752 S    
C30   C31   1.385497 A    
C5    C10   1.382778 A    
C12   H4    1.084118 S    
C26   C28   1.415258 A    
C38   C39   1.414421 A    
C38   H21   1.077372 S    
C14   C15   1.412231 A    
O3    C2    1.300279 A    
C39   C40   1.415908 A    
C27   C31   1.412778 A    
C35   C42   1.397772 A    
C15   C16   1.400094 A    
N3    O9    1.301325 A    
C33   N3    1.437045 S    
O1    C1    1.303239 A    
C23   C24   1.387888 A    
C19   C20   1.398018 A    
C23   C34   1.403211 A    
Zn2   O8    2.011873 S    
C7    C8    1.385252 A    
H17   C43   1.084415 S    
C13   C18   1.382963 A    
C27   C34   1.409976 A    
C39   C41   1.420019 A    
C28   C29   1.416767 A    
C21   C29   1.399547 A    
O8    C4    1.300053 A    
C29   C30   1.391967 A    
N3    O10   1.301339 A    
C4    C6    1.440080 S    
C31   H15   1.081697 S    
C24   C25   1.391389 A    
C15   C20   1.385391 A    
Zn1   O5    1.922465 S    
C26   C27   1.407994 A    
C36   H20   1.081649 S    
O1    Zn1   1.964620 S    
O2    Zn2   1.922466 S    
C43   C44   1.382079 A    
O6    C3    1.305490 A    
O4    Zn2   2.025628 S    
C16   H7    1.083989 S    
C5    H1    1.084531 S    
C10   C17   1.400496 A    
C37   H22   1.082554 S    
C35   C46   1.383714 A    
C20   H6    1.084910 S    
C9    C14   1.392234 A    
C42   C43   1.387909 A    
C21   C33   1.401284 A    
H9    C30   1.084021 S    
O7    C4    1.304141 A    
N1    C46   1.354055 A    
O2    C1    1.308896 A    
Zn1   N1    2.050980 S    
C23   H12   1.083366 S    
C28   C32   1.389203 A    
C2    C19   1.440348 S    
Zn2   O6    1.964621 S    
C36   C37   1.388067 A    
C7    H2    1.084899 S    
N1    C45   1.349534 A    
C12   C13   1.400522 A    
C22   C32   1.393167 A    
