data_mof_unit_28642.cif
_audit_creation_date              2012-12-10T16:54:59-0500
_audit_creation_method            fapswitch 2.2
_symmetry_space_group_name_H-M    P1
_symmetry_Int_Tables_number       1
_space_group_crystal_system       triclinic
_cell_length_a                    7.766138
_cell_length_b                    8.593542
_cell_length_c                    15.675792
_cell_angle_alpha                 89.410294
_cell_angle_beta                  87.361545
_cell_angle_gamma                 93.788128
_cell_volume                      1042.69527609

loop_
_atom_site_label
_atom_site_type_symbol
_atom_type_description
_atom_site_fract_x
_atom_site_fract_y
_atom_site_fract_z
_atom_type_partial_charge
C1    C     C_R   0.545967 0.794714 0.498211 0.960527
C2    C     C_2   0.430299 0.041563 0.504808 -0.387722
C3    C     C_R   0.503977 0.496969 0.661518 0.902018
C4    C     C_R   0.454132 0.205268 0.502757 0.955263
C5    C     C_R   0.496155 0.504098 0.338408 0.906878
C6    C     C_3   0.319157 0.557796 0.949583 -0.107281
C7    C     C_3   0.645997 0.661826 0.948791 -0.131669
C8    C     C_3   0.617913 0.671860 0.047780 -0.447626
C9    C     C_1   0.487695 0.521332 0.249848 -0.188497
C10   C     C_3   0.509937 0.533524 0.916265 0.272323
C11   C     C_R   0.237341 0.691288 0.904945 0.114792
C12   C     C_3   0.308712 0.563903 0.048845 -0.445622
C13   C     C_R   0.145402 0.658943 0.830952 -0.187760
C14   C     C_R   0.094632 0.779896 0.779611 -0.101952
C15   C     C_R   0.133635 0.934552 0.801670 -0.093397
C16   C     C_R   0.215150 0.968547 0.877473 -0.150183
C17   C     C_R   0.265260 0.847971 0.929484 -0.140554
C18   C     C_R   0.673698 0.824672 0.906003 0.118983
C19   C     C_R   0.603770 0.867483 0.827957 -0.116095
C20   C     C_R   0.646805 0.013358 0.789811 -0.147540
C21   C     C_R   0.760766 0.119788 0.828068 -0.150198
C22   C     C_R   0.830380 0.081368 0.905291 -0.145731
C23   C     C_3   0.488798 0.538516 0.082740 0.335573
C24   C     C_R   0.790064 0.934803 0.942999 -0.125454
C25   C     C_3   0.548210 0.379604 0.052013 -0.410602
C26   C     C_3   0.558681 0.375994 0.954281 -0.454729
C27   C     C_1   0.483748 0.534428 0.174613 -0.102884
C28   C     C_1   0.518771 0.514329 0.825078 -0.136155
C29   C     C_1   0.515428 0.502045 0.749997 -0.203420
C30   C     C_2   0.569958 0.958391 0.497801 -0.387230
H1    H     H_    0.261706 0.675138 0.073071 0.162274
H2    H     H_    0.567658 0.785682 0.066238 0.165698
H3    H     H_    0.744314 0.664588 0.077946 0.157016
H4    H     H_    0.473117 0.277113 0.931930 0.184779
H5    H     H_    0.692978 0.354573 0.932993 0.180358
H6    H     H_    0.456199 0.283074 0.076980 0.170993
H7    H     H_    0.120076 0.539875 0.810612 0.128186
H8    H     H_    0.028242 0.753634 0.721742 0.129049
H9    H     H_    0.098000 0.028246 0.760774 0.131445
H10   H     H_    0.242423 0.088683 0.895111 0.116767
H11   H     H_    0.335800 0.878750 0.985342 0.126565
H12   H     H_    0.240489 0.449470 0.933621 0.114464
H13   H     H_    0.511878 0.793730 0.795810 0.155639
H14   H     H_    0.590968 0.043954 0.730367 0.136976
H15   H     H_    0.794740 0.232326 0.798041 0.134210
H16   H     H_    0.919710 0.163878 0.934969 0.112683
H17   H     H_    0.852721 0.906822 0.000944 0.121063
H18   H     H_    0.213589 0.470382 0.074521 0.155995
H19   H     H_    0.677308 0.359116 0.076573 0.173543
H20   H     H_    0.701690 0.009935 0.491263 0.180202
H21   H     H_    0.298586 0.990016 0.511569 0.180004
H22   H     H_    0.013048 0.383813 0.437266 0.193893
H23   H     H_    0.986964 0.616100 0.562800 0.186466
H24   H     H_    0.775018 0.614016 0.937535 0.141239
N1    N     N_2   0.950340 0.457950 0.477370 -0.174569
N2    N     N_2   0.049660 0.542050 0.522630 -0.177487
O1    O     O_R   0.389240 0.738570 0.505550 -0.611509
O2    O     O_R   0.678400 0.711630 0.491050 -0.631085
O3    O     O_R   0.355360 0.513470 0.630110 -0.616004
O4    O     O_R   0.644510 0.486530 0.615610 -0.626638
O5    O     O_R   0.321600 0.288370 0.508950 -0.632837
O6    O     O_R   0.610760 0.261430 0.494450 -0.612497
O7    O     O_R   0.355490 0.513470 0.384390 -0.620199
O8    O     O_R   0.644640 0.486530 0.369890 -0.611202
Zn1   Zn    Zn3+2 0.306930 0.517990 0.509680 0.934338
Zn2   Zn    Zn3+2 0.693070 0.482010 0.490320 0.936129

loop_
_geom_bond_atom_site_label_1
_geom_bond_atom_site_label_2
_ccdc_geom_bond_type
C6    C10   S    
C7    C10   S    
C2    C4    S    
N1    N2    D    
O7    Zn1   S    
C26   H4    S    
C5    C9    S    
C23   C27   S    
C14   H8    S    
C5    O7    A    
C3    O3    A    
C13   H7    S    
C19   C20   A    
H22   N1    S    
C12   H18   S    
C2    C30   D    
C7    C18   S    
C3    O4    A    
C10   C26   S    
C30   H20   S    
O4    Zn2   S    
C7    C8    S    
C21   C22   A    
O3    Zn1   S    
C11   C13   A    
C12   C23   S    
C15   H9    S    
C4    O6    A    
C1    O2    A    
C16   H10   S    
C18   C24   A    
C1    C30   S    
C22   H16   S    
C19   H13   S    
C21   H15   S    
C8    H3    S    
C23   C25   S    
C12   H1    S    
C6    C12   S    
C22   C24   A    
C17   H11   S    
C2    H21   S    
O6    Zn2   S    
C25   H6    S    
N2    Zn1   S    
C8    H2    S    
O5    Zn1   S    
C26   H5    S    
N1    Zn2   S    
C20   C21   A    
C9    C27   T    
C18   C19   A    
C6    H12   S    
H23   N2    S    
C10   C28   S    
C6    C11   S    
C3    C29   S    
C1    O1    A    
C14   C15   A    
C28   C29   T    
C7    H24   S    
C20   H14   S    
C25   C26   S    
C13   C14   A    
C24   H17   S    
C4    O5    A    
O2    Zn2   S    
C11   C17   A    
C8    C23   S    
C15   C16   A    
C5    O8    A    
O1    Zn1   S    
C16   C17   A    
C25   H19   S    
O8    Zn2   S    
