data_mof_unit_18008.cif
_audit_creation_date              2012-10-26T20:19:31-0400
_audit_creation_method            fapswitch 2.2
_symmetry_space_group_name_H-M    P1
_symmetry_Int_Tables_number       1
_space_group_crystal_system       triclinic
_cell_length_a                    10.748948
_cell_length_b                    10.820983
_cell_length_c                    9.633106
_cell_angle_alpha                 90.543864
_cell_angle_beta                  89.597555
_cell_angle_gamma                 93.525093
_cell_volume                      1118.27323365

loop_
_atom_site_label
_atom_site_type_symbol
_atom_type_description
_atom_site_fract_x
_atom_site_fract_y
_atom_site_fract_z
_atom_type_partial_charge
Br1   Br    Br    0.145305 0.769300 0.485183 -0.419022
Br2   Br    Br    0.323232 0.772156 0.805063 -0.409566
Br3   Br    Br    0.852521 0.867234 0.830867 -0.479870
Br4   Br    Br    0.307441 0.306824 0.830211 -0.431830
C1    C     C_R   0.510108 0.263246 0.499946 0.542419
C2    C     C_R   0.533959 0.065130 0.628020 0.016696
C3    C     C_R   0.520569 0.128956 0.501734 -0.004852
C4    C     C_R   0.260007 0.499501 0.499845 0.561557
C5    C     C_R   0.498813 0.061895 0.378831 -0.131824
C6    C     C_R   0.484323 0.934345 0.381199 -0.120701
C7    C     C_R   0.480527 0.871420 0.507802 0.040244
C8    C     C_R   0.663709 0.668457 0.144081 -0.128517
C9    C     C_R   0.743048 0.751827 0.072383 -0.145609
C10   C     C_R   0.743043 0.752117 0.929100 0.116518
C11   C     C_R   0.663710 0.668515 0.856850 -0.071430
C12   C     C_3   0.877310 0.498393 0.498231 -0.019578
C13   C     C_R   0.579997 0.583191 0.925639 0.107992
C14   C     C_R   0.579490 0.583611 0.074862 0.131475
C15   C     C_R   0.428345 0.415237 0.073499 0.116529
C16   C     C_R   0.490645 0.736991 0.501886 0.580545
C17   C     C_R   0.425487 0.418246 0.925567 0.289302
C18   C     C_R   0.739683 0.499683 0.499391 0.517769
C19   C     C_3   0.062786 0.380982 0.575540 -0.126741
C20   C     C_3   0.917900 0.380955 0.571876 -0.207817
C21   C     C_3   0.077367 0.616487 0.572235 0.043579
C22   C     C_3   0.070995 0.494107 0.346671 -0.215334
C23   C     C_3   0.933657 0.614313 0.575549 -0.207797
C24   C     C_3   0.121263 0.497621 0.498232 -0.002598
C25   C     C_2   0.355541 0.314232 0.145849 0.294451
C26   C     C_2   0.113394 0.261374 0.520802 0.261911
C27   C     C_3   0.928843 0.498626 0.347049 -0.224268
C28   C     C_R   0.588871 0.121895 0.747474 -0.052821
C29   C     C_R   0.577405 0.064598 0.875989 -0.076942
C30   C     C_R   0.506491 0.953551 0.888086 -0.043503
C31   C     C_R   0.458839 0.892250 0.769681 0.204291
C32   C     C_R   0.489347 0.940099 0.635216 0.051165
Cu1   Cu    Cu3+1 0.499990 0.499990 0.640660 1.002648
Cu2   Cu    Cu3+1 0.500010 0.500010 0.359340 0.937855
H1    H     H_    0.090259 0.388780 0.686432 0.150068
H2    H     H_    0.805753 0.815859 0.129056 0.172415
H3    H     H_    0.671839 0.674182 0.747247 0.193368
H4    H     H_    0.873990 0.298071 0.518423 0.182707
H5    H     H_    0.881311 0.378410 0.680323 0.126225
H6    H     H_    0.111104 0.618931 0.681125 0.192803
H7    H     H_    0.901331 0.613384 0.685546 0.145557
H8    H     H_    0.112676 0.572997 0.285386 0.189044
H9    H     H_    0.096934 0.408189 0.292385 0.139560
H10   H     H_    0.887557 0.417331 0.288020 0.157847
H11   H     H_    0.299487 0.331532 0.235800 0.142717
H12   H     H_    0.903028 0.583663 0.292743 0.145769
H13   H     H_    0.211616 0.246547 0.533068 0.152331
H14   H     H_    0.899814 0.699190 0.527904 0.182716
H15   H     H_    0.494759 0.107752 0.280037 0.187117
H16   H     H_    0.642365 0.209737 0.742362 0.143671
H17   H     H_    0.617044 0.110071 0.967502 0.140337
H18   H     H_    0.485828 0.916564 0.990323 0.146599
H19   H     H_    0.475765 0.885050 0.282965 0.155959
H20   H     H_    0.673771 0.673223 0.253608 0.185782
N1    N     N_R   0.501200 0.501210 0.147910 -0.284540
N2    N     N_R   0.501250 0.501290 0.852040 -0.240398
O1    O     O_R   0.499990 0.319640 0.618810 -0.477186
O2    O     O_2   0.047256 0.181154 0.462819 -0.458086
O3    O     O_R   0.500000 0.319660 0.381240 -0.520966
O4    O     O_R   0.317680 0.499970 0.618790 -0.445819
O5    O     O_R   0.317700 0.499990 0.381210 -0.529427
O6    O     O_R   0.500000 0.680340 0.618760 -0.491891
O7    O     O_R   0.500010 0.680360 0.381190 -0.520308
O8    O     O_R   0.682300 0.500010 0.618790 -0.541175
O9    O     O_R   0.682320 0.500030 0.381210 -0.526829
O10   O     O_2   0.358895 0.207214 0.105473 -0.492295

loop_
_geom_bond_atom_site_label_1
_geom_bond_atom_site_label_2
_ccdc_geom_bond_type
Br2   C31   S    
C29   H17   S    
Cu1   O1    S    
C19   C20   S    
Cu1   O8    S    
C15   N1    A    
C30   H18   S    
Cu1   Cu2   S    
C21   C23   S    
C20   H4    S    
C5    C6    A    
C16   O7    A    
C2    C28   A    
C31   C32   A    
C28   H16   S    
Cu2   O5    S    
C26   H13   S    
C8    H20   S    
C28   C29   A    
C23   H7    S    
C12   C23   S    
C29   C30   A    
Cu2   O9    S    
C1    O1    A    
C22   C27   S    
C12   C20   S    
C25   H11   S    
C9    C10   A    
Cu1   O6    S    
C21   C24   S    
Br1   C21   S    
Br4   C17   S    
C18   O8    A    
C2    C3    A    
Br3   C10   S    
C22   H9    S    
C4    O4    A    
C19   H1    S    
C21   H6    S    
C16   O6    A    
C7    C32   A    
C15   C17   A    
C2    C32   A    
C30   C31   A    
C25   O10   D    
C27   H10   S    
C26   O2    D    
C23   H14   S    
C4    C24   S    
C7    C16   S    
Cu1   N2    S    
C5    H15   S    
C6    C7    A    
C22   H8    S    
C13   N2    A    
Cu2   N1    S    
C15   C25   S    
C19   C26   S    
C3    C5    A    
C14   N1    A    
C4    O5    A    
C6    H19   S    
Cu2   O7    S    
C1    O3    A    
C17   N2    A    
C13   C14   A    
Cu2   O3    S    
C8    C14   A    
C1    C3    S    
C20   H5    S    
C10   C11   A    
C9    H2    S    
C12   C18   S    
C18   O9    A    
C8    C9    A    
C11   C13   A    
C22   C24   S    
C27   H12   S    
C19   C24   S    
C11   H3    S    
Cu1   O4    S    
C12   C27   S    
