data_mof_unit_20934.cif
_audit_creation_date              2012-12-10T18:44:24-0500
_audit_creation_method            fapswitch 2.2
_symmetry_space_group_name_H-M    P1
_symmetry_Int_Tables_number       1
_space_group_crystal_system       triclinic
_cell_length_a                    12.729445
_cell_length_b                    10.618451
_cell_length_c                    9.965752
_cell_angle_alpha                 88.321431
_cell_angle_beta                  98.274533
_cell_angle_gamma                 91.111044
_cell_volume                      1332.2889799

loop_
_atom_site_label
_atom_site_type_symbol
_atom_type_description
_atom_site_fract_x
_atom_site_fract_y
_atom_site_fract_z
_atom_type_partial_charge
C1    C     C_R   0.501855 0.260589 0.501591 0.929791
C2    C     C_R   0.498145 0.739411 0.498409 0.929794
C3    C     C_R   0.496293 0.871999 0.496702 -0.160976
C4    C     C_R   0.503707 0.128001 0.503298 -0.160977
C5    C     C_R   0.553754 0.592074 0.077373 0.023099
C6    C     C_R   0.446246 0.407926 0.922627 0.023101
C7    C     C_R   0.558860 0.586892 0.934895 0.467912
C8    C     C_R   0.441139 0.413108 0.065105 0.467911
C9    C     C_R   0.298748 0.496843 0.472506 0.883016
C10   C     C_R   0.701252 0.503157 0.527494 0.883014
C11   C     C_R   0.813155 0.519719 0.543898 -0.028232
C12   C     C_R   0.186845 0.480280 0.456103 -0.028230
C13   C     C_R   0.048022 0.335479 0.498829 -0.210729
C14   C     C_R   0.951979 0.664520 0.501174 -0.210729
C15   C     C_R   0.150244 0.357517 0.473887 -0.282349
C16   C     C_R   0.849757 0.642482 0.526118 -0.282348
C17   C     C_R   0.121773 0.584620 0.458624 0.100916
C18   C     C_R   0.878227 0.415378 0.541376 0.100915
C19   C     C_R   0.018532 0.563024 0.489361 0.129875
C20   C     C_R   0.981468 0.436974 0.510640 0.129875
C21   C     C_R   0.568900 0.067369 0.424030 0.497737
C22   C     C_R   0.431099 0.932630 0.575970 0.497742
C23   C     C_R   0.566095 0.937496 0.423689 -0.410846
C24   C     C_R   0.433905 0.062504 0.576310 -0.410849
H1    H     H_    0.796645 0.721455 0.523066 0.139783
H2    H     H_    0.203356 0.278544 0.476941 0.139782
H3    H     H_    0.023731 0.238505 0.513353 0.164678
H4    H     H_    0.976271 0.761494 0.486652 0.164679
H5    H     H_    0.620356 0.887774 0.370505 0.165145
H6    H     H_    0.379643 0.112226 0.629494 0.165142
N1    N     N_R   0.499970 0.499970 0.857200 -0.151439
N2    N     N_R   0.500030 0.500030 0.142800 -0.151438
O1    O     O_R   0.499990 0.316750 0.614620 -0.645585
O2    O     O_R   0.500010 0.683250 0.385380 -0.645586
O3    O     O_R   0.499990 0.316780 0.385290 -0.538643
O4    O     O_R   0.500010 0.683220 0.614710 -0.538639
O5    O     O_R   0.346360 0.499970 0.595710 -0.610906
O6    O     O_R   0.653640 0.500030 0.404290 -0.610908
O7    O     O_R   0.346360 0.499990 0.366380 -0.619355
O8    O     O_R   0.653640 0.500010 0.633620 -0.619356
Zn1   Zn    Zn3+2 0.500000 0.499980 0.653120 0.967580
Zn2   Zn    Zn3+2 0.500000 0.500020 0.346880 0.967578
C25   C     C_3   0.836710 0.282731 0.565960 -0.888634
H7    H     H_    0.755505 0.280086 0.593984 0.246097
H8    H     H_    0.835267 0.227263 0.473006 0.273806
H9    H     H_    0.888814 0.236297 0.651332 0.226508
C26   C     C_3   0.163289 0.717267 0.434035 -0.888639
H10   H     H_    0.244493 0.719912 0.406008 0.246097
H11   H     H_    0.111183 0.763700 0.348664 0.226509
H12   H     H_    0.164733 0.772737 0.526988 0.273806
O9    O     O_3   0.641636 0.135643 0.358932 -0.619952
C27   C     C_3   0.617318 0.122028 0.217141 0.132807
H13   H     H_    0.531317 0.137138 0.180933 0.178839
H14   H     H_    0.639545 0.026974 0.187716 0.123268
C28   C     C_3   0.680621 0.219823 0.146295 -0.814646
H15   H     H_    0.766978 0.203581 0.174835 0.245030
H16   H     H_    0.659786 0.213052 0.034595 0.195415
H17   H     H_    0.662362 0.315937 0.176351 0.271202
O10   O     O_3   0.358362 0.864356 0.641064 -0.619951
C29   C     C_3   0.382672 0.877976 0.782855 0.132808
H18   H     H_    0.468673 0.862874 0.819071 0.178830
H19   H     H_    0.360437 0.973028 0.812274 0.123271
C30   C     C_3   0.319371 0.780177 0.853698 -0.814670
H20   H     H_    0.340193 0.786956 0.965396 0.195417
H21   H     H_    0.233016 0.796406 0.825144 0.245041
H22   H     H_    0.337643 0.684065 0.823657 0.271200
C31   C     C_3   0.598260 0.706956 0.151846 -0.803735
H23   H     H_    0.643783 0.771079 0.091257 0.223270
H24   H     H_    0.531337 0.764406 0.173480 0.241994
H25   H     H_    0.652141 0.680329 0.245050 0.260603
C32   C     C_3   0.401740 0.293044 0.848154 -0.803740
H26   H     H_    0.347859 0.319671 0.754950 0.260604
H27   H     H_    0.356217 0.228920 0.908744 0.223269
H28   H     H_    0.468664 0.235594 0.826520 0.241993
O11   O     O_3   0.619276 0.673707 0.872236 -0.590214
C33   C     C_3   0.727755 0.641876 0.903327 0.102514
H29   H     H_    0.743853 0.553055 0.854633 0.170914
H30   H     H_    0.754132 0.628587 0.014179 0.127693
C34   C     C_3   0.794867 0.747698 0.851897 -0.828941
H31   H     H_    0.789269 0.833475 0.911460 0.240224
H32   H     H_    0.879167 0.719067 0.862489 0.213462
H33   H     H_    0.765903 0.770177 0.743725 0.262020
O12   O     O_3   0.380724 0.326293 0.127764 -0.590219
C35   C     C_3   0.272245 0.358125 0.096675 0.102514
H34   H     H_    0.245866 0.371406 0.985823 0.127696
H35   H     H_    0.256149 0.446950 0.145363 0.170911
C36   C     C_3   0.205134 0.252308 0.148116 -0.828938
H36   H     H_    0.234103 0.229831 0.256287 0.262021
H37   H     H_    0.120835 0.280942 0.137529 0.213463
H38   H     H_    0.210728 0.166529 0.088555 0.240221

loop_
_geom_bond_atom_site_label_1
_geom_bond_atom_site_label_2
_ccdc_geom_bond_type
C36   H36   S    
C30   H21   S    
C11   C18   A    
C8    O12   S    
C3    C23   A    
C19   C20   A    
O2    Zn2   S    
C35   C36   S    
C5    C31   S    
C1    O1    A    
C26   H11   S    
C29   C30   S    
C23   H5    S    
C22   C24   A    
C29   H19   S    
C35   H35   S    
O6    Zn2   S    
C4    C24   A    
C9    O7    A    
C10   O8    A    
O3    Zn2   S    
O12   C35   S    
C12   C17   A    
C33   C34   S    
O7    Zn2   S    
C27   C28   S    
C5    N2    A    
C2    O2    A    
C6    N1    A    
C30   H22   S    
O10   C29   S    
O4    Zn1   S    
C9    C12   S    
C27   H14   S    
C26   H12   S    
C5    C7    A    
C21   C23   A    
C6    C32   S    
C7    N1    A    
C31   H23   S    
C8    N2    A    
C33   H29   S    
C22   O10   S    
C34   H32   S    
C15   H2    S    
C6    C8    A    
O9    C27   S    
C29   H18   S    
C31   H24   S    
O11   C33   S    
C32   H28   S    
C11   C16   A    
C26   H10   S    
C12   C15   A    
C28   H15   S    
C9    O5    A    
C35   H34   S    
C25   H8    S    
O8    Zn1   S    
C13   C15   A    
C25   H7    S    
C14   C16   A    
C28   H17   S    
C21   O9    S    
C27   H13   S    
C1    O3    A    
C32   H27   S    
C2    O4    A    
C16   H1    S    
N1    Zn1   S    
C13   C20   A    
C14   C19   A    
C17   C26   S    
C33   H30   S    
C30   H20   S    
C34   H33   S    
C7    O11   S    
C10   O6    A    
C1    C4    S    
O1    Zn1   S    
C31   H25   S    
C28   H16   S    
C2    C3    S    
C32   H26   S    
C18   C25   S    
C4    C21   A    
C17   C19   A    
C18   C20   A    
O5    Zn1   S    
C25   H9    S    
C24   H6    S    
C10   C11   S    
C34   H31   S    
C36   H38   S    
C36   H37   S    
N2    Zn2   S    
C13   H3    S    
C3    C22   A    
C14   H4    S    
