data_mof_unit_19466.cif
_audit_creation_date              2012-12-10T17:02:13-0500
_audit_creation_method            fapswitch 2.2
_symmetry_space_group_name_H-M    P1
_symmetry_Int_Tables_number       1
_space_group_crystal_system       triclinic
_cell_length_a                    10.622428
_cell_length_b                    10.608179
_cell_length_c                    10.024767
_cell_angle_alpha                 92.159733
_cell_angle_beta                  88.916972
_cell_angle_gamma                 89.799628
_cell_volume                      1128.62291866

loop_
_atom_site_label
_atom_site_type_symbol
_atom_type_description
_atom_site_fract_x
_atom_site_fract_y
_atom_site_fract_z
_atom_type_partial_charge
C1    C     C_R   0.499812 0.262051 0.497072 1.009730
C2    C     C_2   0.494720 0.128653 0.487185 -0.336929
C3    C     C_2   0.526819 0.598646 0.928149 0.490995
C4    C     C_R   0.259976 0.487215 0.500919 0.872899
C5    C     C_2   0.553908 0.585619 0.074899 0.055944
C6    C     C_R   0.483847 0.737172 0.502962 0.928429
C7    C     C_R   0.738476 0.479577 0.497435 0.935424
C8    C     C_R   0.124992 0.347656 0.716900 -0.324773
C9    C     C_R   0.058456 0.294420 0.822738 0.352168
C10   C     C_R   0.927423 0.278808 0.814017 0.371819
C11   C     C_R   0.864969 0.317485 0.698973 0.361106
C12   C     C_R   0.062610 0.398767 0.607789 -0.009332
C13   C     C_R   0.930506 0.387312 0.601090 -0.034103
C14   C     C_1   0.641307 0.672482 0.136959 0.186689
C15   C     C_1   0.887380 0.462550 0.239696 0.267369
C16   C     C_1   0.386057 0.875521 0.275400 0.255839
C17   C     C_1   0.419206 0.920277 0.649085 0.256527
C18   C     C_R   0.127690 0.455229 0.500017 -0.046428
C19   C     C_R   0.067212 0.471846 0.379727 -0.217636
C20   C     C_R   0.940006 0.457869 0.371603 -0.054777
C21   C     C_R   0.869679 0.438398 0.489646 -0.112058
C22   C     C_2   0.406492 0.932868 0.406748 -0.162177
C23   C     C_2   0.439061 0.866788 0.513968 -0.286648
C24   C     C_2   0.402856 0.070983 0.418441 0.417382
H1    H     H_    0.118544 0.499166 0.290772 0.191896
H2    H     H_    0.248300 0.081539 0.319244 0.345871
H3    H     H_    0.569179 0.077277 0.534728 0.121236
H4    H     H_    0.513644 0.414031 0.891511 0.194383
H5    H     H_    0.225943 0.341862 0.720131 0.201516
H6    H     H_    0.542553 0.780954 0.942192 0.327201
H7    H     H_    0.370090 0.386774 0.165095 0.399245
H8    H     H_    0.211397 0.270996 0.924116 0.360194
H9    H     H_    0.912681 0.202679 0.988887 0.394290
H10   H     H_    0.712944 0.221809 0.743871 0.381624
N1    N     N_2   0.501340 0.501330 0.852150 -0.172708
N2    N     N_2   0.501380 0.501360 0.147810 0.025307
N3    N     N_1   0.711399 0.742414 0.186329 -0.177020
N4    N     N_1   0.846914 0.464827 0.133449 -0.178891
N5    N     N_1   0.368769 0.830457 0.170449 -0.184384
N6    N     N_1   0.403242 0.962747 0.756155 -0.149485
O1    O     O_R   0.499980 0.319060 0.613040 -0.617263
O2    O     O_3   0.404237 0.438910 0.093205 -0.724960
O3    O     O_3   0.120524 0.250855 0.932058 -0.752269
O4    O     O_3   0.858119 0.221891 0.913246 -0.767914
O5    O     O_3   0.744225 0.276711 0.672948 -0.768878
O6    O     O_3   0.311289 0.140680 0.357406 -0.753147
O7    O     O_R   0.500020 0.319100 0.386900 -0.589002
O8    O     O_R   0.316750 0.499980 0.613090 -0.629279
O9    O     O_R   0.316790 0.500020 0.386950 -0.622458
O10   O     O_R   0.499980 0.680900 0.613100 -0.538842
O11   O     O_R   0.500020 0.680940 0.386960 -0.615967
O12   O     O_R   0.683210 0.499980 0.613050 -0.560968
O13   O     O_R   0.683250 0.500020 0.386910 -0.637439
O14   O     O_3   0.534458 0.714613 0.870799 -0.725925
Zn1   Zn    Zn3+2 0.499970 0.499970 0.650990 1.029793
Zn2   Zn    Zn3+2 0.500030 0.500030 0.349010 1.016784

loop_
_geom_bond_atom_site_label_1
_geom_bond_atom_site_label_2
_ccdc_geom_bond_type
C8    C9    A    
O8    Zn1   S    
C15   N4    T    
C2    H3    S    
N2    Zn2   S    
H7    O2    S    
C6    O11   A    
O9    Zn2   S    
C11   C13   A    
C9    C10   A    
N2    O2    S    
C19   C20   A    
O12   Zn1   S    
C3    N1    D    
C4    O9    A    
C8    C12   A    
C24   O6    S    
C20   C21   A    
C13   C21   A    
H10   O5    S    
C7    C21   S    
C6    O10   A    
C14   N3    T    
H6    O14   S    
C5    C14   S    
C17   C23   S    
C8    H5    S    
C1    O1    A    
H8    O3    S    
C7    O12   A    
C1    C2    S    
C2    C24   D    
C15   C20   S    
C19   H1    S    
C3    O14   S    
C22   C24   S    
C11   O5    S    
C9    O3    S    
C10   C11   A    
H2    O6    S    
C16   N5    T    
N1    Zn1   S    
C5    N2    D    
C12   C13   A    
C18   C19   A    
C4    O8    A    
O13   Zn2   S    
C12   C18   A    
C7    O13   A    
C22   C23   D    
O1    Zn1   S    
C16   C22   S    
C6    C23   S    
H9    O4    S    
C10   O4    S    
C4    C18   S    
C1    O7    A    
O10   Zn1   S    
H4    N1    S    
O7    Zn2   S    
C3    C5    S    
C17   N6    T    
O11   Zn2   S    
