data_mof_unit_22727.cif
_audit_creation_date              2012-12-11T16:31:28-0500
_audit_creation_method            fapswitch 2.2
_symmetry_space_group_name_H-M    P1
_symmetry_Int_Tables_number       1
_space_group_crystal_system       triclinic
_cell_length_a                    6.978243
_cell_length_b                    18.305397
_cell_length_c                    20.138513
_cell_angle_alpha                 68.248475
_cell_angle_beta                  90.384205
_cell_angle_gamma                 90.605199
_cell_volume                      2389.17803191

loop_
_atom_site_label
_atom_site_type_symbol
_atom_type_description
_atom_site_fract_x
_atom_site_fract_y
_atom_site_fract_z
_atom_type_partial_charge
O1    O     O_R   0.488990 0.443920 0.942160 -0.537417
O2    O     O_R   0.823840 0.406530 0.087600 -0.537535
O3    O     O_R   0.999650 0.556080 0.057840 -0.530377
C1    C     C_R   0.654975 0.383814 0.115078 0.692021
O4    O     O_R   0.818390 0.434590 0.944530 -0.543224
O5    O     O_R   0.994160 0.584350 0.913750 -0.534631
C2    C     C_R   0.649155 0.420385 0.924237 0.712289
O6    O     O_R   0.494480 0.415650 0.086250 -0.537555
O7    O     O_3   0.662600 0.549100 0.990070 -0.359024
V1    V     V_3+5 0.935320 0.490890 0.001840 1.458857
O8    O     O_R   0.324240 0.593470 0.912400 -0.539611
C3    C     C_R   0.155382 0.616378 0.885025 0.689645
O9    O     O_R   0.329690 0.565410 0.055470 -0.531908
C4    C     C_R   0.161695 0.579487 0.075751 0.717990
V2    V     V_3+5 0.435990 0.509110 0.998160 1.470383
O10   O     O_3   0.158840 0.450900 0.009930 -0.373505
C5    C     C_3   0.994680 0.674750 0.266986 0.078664
C6    C     C_3   0.341623 0.706386 0.244354 0.031368
C7    C     C_3   0.339882 0.760020 0.289768 0.059476
H1    H     H_    0.031774 0.681744 0.373320 0.230014
H2    H     H_    0.374013 0.644776 0.279258 0.218252
H3    H     H_    0.437470 0.811207 0.265137 0.185315
C8    C     C_1   0.114186 0.874932 0.378577 -0.128474
C9    C     C_3   0.145653 0.709695 0.206509 -0.031269
C10   C     C_3   0.992687 0.720874 0.318078 -0.280197
C11   C     C_3   0.133292 0.791987 0.291993 -0.015491
C12   C     C_3   0.077127 0.845270 0.213918 0.084006
C13   C     C_3   0.105645 0.799357 0.162779 0.150488
C14   C     C_1   0.124113 0.837510 0.339935 0.097507
C15   C     C_1   0.149221 0.663211 0.159174 0.164949
C16   C     C_1   0.154479 0.625260 0.120922 -0.083883
H4    H     H_    0.235881 0.825613 0.131476 0.176395
H5    H     H_    0.853224 0.678083 0.242566 0.216446
H6    H     H_    0.844682 0.740890 0.321451 0.221826
H7    H     H_    0.175254 0.897306 0.196162 0.114448
H8    H     H_    0.924302 0.529079 0.695895 0.114654
C17   C     C_R   0.262346 0.773901 0.874242 -0.174466
C18   C     C_R   0.313996 0.848970 0.870937 0.358817
C19   C     C_R   0.301738 0.912779 0.806475 -0.102432
C20   C     C_R   0.237877 0.901991 0.745012 -0.192855
C21   C     C_R   0.186360 0.826348 0.746515 0.067973
C22   C     C_R   0.199054 0.760950 0.812514 0.019333
C23   C     C_R   0.119512 0.815513 0.684008 -0.159464
C24   C     C_R   0.065601 0.739230 0.687567 0.061059
C25   C     C_R   0.078161 0.673841 0.753580 0.069849
C26   C     C_R   0.145067 0.684666 0.816054 -0.154478
C27   C     C_R   0.002711 0.726204 0.625836 -0.126688
C28   C     C_R   0.951476 0.651140 0.629216 -0.086484
C29   C     C_R   0.963210 0.587377 0.693624 -0.123434
C30   C     C_R   0.026621 0.598175 0.755117 -0.147741
H9    H     H_    0.271367 0.726319 0.925755 0.134484
H10   H     H_    0.340666 0.971172 0.803943 0.166000
H11   H     H_    0.228137 0.953798 0.696594 0.128689
H12   H     H_    0.993731 0.773549 0.574174 0.109110
H13   H     H_    0.903555 0.642359 0.581451 0.143401
H14   H     H_    0.036173 0.546365 0.803535 0.107569
H15   H     H_    0.655729 0.475776 0.314714 0.176054
C31   C     C_R   0.616945 0.224416 0.119900 -0.143691
C32   C     C_R   0.592870 0.148566 0.120378 -0.097475
C33   C     C_R   0.577648 0.084947 0.184855 -0.066078
C34   C     C_R   0.588814 0.096480 0.249408 -0.145452
C35   C     C_R   0.612160 0.172840 0.250638 0.057082
C36   C     C_R   0.625283 0.238161 0.184521 0.070546
C37   C     C_R   0.620071 0.184824 0.316255 -0.170778
C38   C     C_R   0.634171 0.262348 0.315676 0.070920
C39   C     C_R   0.644806 0.327739 0.249526 0.054332
C40   C     C_R   0.643802 0.315526 0.183993 -0.170601
C41   C     C_R   0.635518 0.276357 0.380203 -0.144521
C42   C     C_R   0.643667 0.352735 0.379527 -0.090556
C43   C     C_R   0.651706 0.416569 0.314960 -0.038447
C44   C     C_R   0.654019 0.404555 0.250574 -0.141066
H16   H     H_    0.627096 0.272089 0.068402 0.093680
H17   H     H_    0.584956 0.139167 0.070418 0.140877
H18   H     H_    0.556280 0.026349 0.184848 0.174436
H19   H     H_    0.576818 0.045063 0.298166 0.114681
H20   H     H_    0.628408 0.228597 0.431734 0.091423
H21   H     H_    0.642809 0.362440 0.429384 0.132292
H22   H     H_    0.661254 0.456100 0.201755 0.115908
O11   O     O_R   0.770890 0.084490 0.414040 -0.535421
O12   O     O_R   0.445980 0.065450 0.555510 -0.543612
O13   O     O_R   0.270670 0.915620 0.586180 -0.536027
C45   C     C_R   0.614974 0.079404 0.576181 0.718502
O14   O     O_R   0.441480 0.093500 0.412450 -0.538728
O15   O     O_R   0.266140 0.943870 0.442100 -0.533312
C46   C     C_R   0.610261 0.116426 0.385169 0.692212
O16   O     O_R   0.775410 0.056240 0.558120 -0.533437
O17   O     O_3   0.602660 0.950990 0.510100 -0.364298
V3    V     V_3+5 0.329740 0.009100 0.498130 1.447642
O18   O     O_R   0.936120 0.934420 0.444240 -0.535560
C47   C     C_R   0.104569 0.920413 0.424036 0.712807
O19   O     O_R   0.940610 0.906370 0.587310 -0.537893
C48   C     C_R   0.109367 0.883723 0.614952 0.692272
V4    V     V_3+5 0.829110 0.990690 0.501470 1.463120
O20   O     O_3   0.106080 0.049010 0.489880 -0.370465
C49   C     C_3   0.827146 0.249020 0.705850 -0.310876
C50   C     C_3   0.473897 0.270916 0.686547 -0.391522
C51   C     C_3   0.474695 0.318830 0.736260 -0.330089
H23   H     H_    0.860988 0.359622 0.723710 0.143167
H24   H     H_    0.855678 0.289549 0.649938 0.144892
H25   H     H_    0.330364 0.243121 0.688393 0.145227
H26   H     H_    0.498130 0.311512 0.630332 0.169111
H27   H     H_    0.498293 0.382254 0.703659 0.160727
H28   H     H_    0.332128 0.313283 0.762222 0.143945
C52   C     C_1   0.639765 0.374151 0.879277 -0.184005
C53   C     C_3   0.631042 0.206757 0.709478 0.205548
C54   C     C_3   0.828924 0.296696 0.755745 -0.328923
C55   C     C_3   0.633455 0.289303 0.794152 0.224511
C56   C     C_3   0.595499 0.200834 0.838141 -0.325180
C57   C     C_3   0.590433 0.152364 0.788617 0.160629
C58   C     C_1   0.635580 0.335824 0.841227 -0.076991
C59   C     C_1   0.628098 0.161634 0.661165 -0.035941
C60   C     C_1   0.623829 0.124501 0.622104 -0.159730
H29   H     H_    0.444941 0.125826 0.791564 0.114045
H30   H     H_    0.708397 0.178353 0.879842 0.191005
H31   H     H_    0.945311 0.205571 0.721294 0.177165
H32   H     H_    0.945726 0.274841 0.795987 0.152017
H33   H     H_    0.456262 0.193570 0.866615 0.138248
Br1   Br    Br    0.400164 0.864305 0.955177 -0.365589
Br2   Br    Br    0.029034 0.562299 0.321745 -0.581513
Br3   Br    Br    0.543350 0.736254 0.173682 -0.493529
Br4   Br    Br    0.766925 0.063816 0.823792 -0.515501
Br5   Br    Br    0.443880 0.702898 0.385275 -0.552998
Br6   Br    Br    0.927057 0.822605 0.082622 -0.304686
Br7   Br    Br    0.821637 0.890297 0.208922 -0.513668

loop_
_geom_bond_atom_site_label_1
_geom_bond_atom_site_label_2
_ccdc_geom_bond_type
C28   H13   S    
O17   V3    S    
C7    Br5   S    
V4    O20   S    
C6    H2    S    
C21   C22   A    
C42   H21   S    
C59   C60   T    
O11   C46   A    
C4    C16   S    
C1    O6    A    
C57   Br4   S    
C13   Br6   S    
C25   C26   A    
C34   H19   S    
C11   C12   S    
C17   C18   A    
C5    H5    S    
C6    C9    S    
C8    C14   T    
C49   C54   S    
O11   V4    S    
O5    C3    A    
C18   C19   A    
C17   H9    S    
C49   H24   S    
H1    C10   S    
V2    O10   S    
C50   H25   S    
C56   C57   S    
C6    C7    S    
C22   C26   A    
C56   H30   S    
C17   C22   A    
C7    C11   S    
C35   C37   A    
C49   C53   S    
O13   C48   A    
O8    V2    S    
C39   C44   A    
C49   H31   S    
C41   C42   A    
C55   C56   S    
C43   C44   A    
O1    V2    S    
H15   C43   S    
O7    V1    S    
C32   H17   S    
C51   H27   S    
C24   C27   A    
C57   H29   S    
C10   H6    S    
O14   V3    S    
C53   C59   S    
C32   C33   A    
O9    C4    A    
O18   V4    S    
C21   C23   A    
C42   C43   A    
O15   C47   A    
C36   C40   A    
V3    O20   S    
C5    C9    S    
C9    C13   S    
C13   H4    S    
C7    H3    S    
C3    C26   S    
C19   C20   A    
O4    C2    A    
C12   H7    S    
C10   C11   S    
C45   O16   A    
C30   H14   S    
C54   H32   S    
C33   C34   A    
C45   C60   S    
O2    C1    A    
C23   C24   A    
C35   C36   A    
O16   V4    S    
O19   V4    S    
C27   C28   A    
O8    C3    A    
C38   C41   A    
C50   C51   S    
C8    C47   S    
C51   H28   S    
O3    C4    A    
C27   H12   S    
O12   C45   A    
C20   C21   A    
O14   C46   A    
C20   H11   S    
O6    V2    S    
C2    C52   S    
O9    V2    S    
C55   C58   S    
O2    V1    S    
C6    Br3   S    
C37   C46   S    
O19   C48   A    
C24   C25   A    
C50   C53   S    
C31   C36   A    
C53   C57   S    
C28   C29   A    
O1    C2    A    
C56   H33   S    
O15   V3    S    
O5    V1    S    
C1    C40   S    
C12   Br7   S    
C41   H20   S    
C23   C48   S    
H23   C54   S    
C5    C10   S    
C37   C38   A    
C31   C32   A    
O4    V1    S    
O12   V3    S    
O3    V1    S    
V1    O10   S    
C52   C58   T    
C31   H16   S    
C15   C16   T    
C25   C30   A    
O17   V4    S    
C33   H18   S    
C39   C40   A    
C38   C39   A    
O7    V2    S    
C34   C35   A    
C9    C15   S    
O13   V3    S    
C5    Br2   S    
C51   C55   S    
C11   C14   S    
C29   C30   A    
C54   C55   S    
C12   C13   S    
C18   Br1   S    
O18   C47   A    
C50   H26   S    
C44   H22   S    
H8    C29   S    
C19   H10   S    
