data_mof_unit_13943.cif
_audit_creation_date              2012-10-26T19:21:07-0400
_audit_creation_method            fapswitch 2.2
_symmetry_space_group_name_H-M    P1
_symmetry_Int_Tables_number       1
_space_group_crystal_system       triclinic
_cell_length_a                    9.935538
_cell_length_b                    11.111779
_cell_length_c                    13.439897
_cell_angle_alpha                 94.954696
_cell_angle_beta                  82.300788
_cell_angle_gamma                 110.608832
_cell_volume                      1375.07987409

loop_
_atom_site_label
_atom_site_type_symbol
_atom_type_description
_atom_site_fract_x
_atom_site_fract_y
_atom_site_fract_z
_atom_type_partial_charge
C1    C     C_R   0.556157 0.743978 0.504057 0.556871
C2    C     C_R   0.373833 0.430256 0.796439 0.052354
C3    C     C_2   0.587019 0.879255 0.489238 0.027787
C4    C     C_R   0.421305 0.473679 0.689543 0.592528
C5    C     C_2   0.494602 0.936415 0.536669 0.108205
C6    C     C_2   0.420613 0.115780 0.497630 0.152081
C7    C     C_2   0.522942 0.073980 0.526848 0.211385
C8    C     C_2   0.926753 0.496919 0.485807 0.109516
C9    C     C_2   0.071749 0.503143 0.511760 0.210172
C10   C     C_R   0.444959 0.254761 0.494918 0.603515
C11   C     C_R   0.577967 0.519698 0.310390 0.568040
C12   C     C_R   0.438001 0.428817 0.967518 -0.048760
C13   C     C_R   0.810075 0.575837 0.058528 0.048255
C14   C     C_R   0.623958 0.535604 0.201687 0.028064
C15   C     C_R   0.226057 0.371790 0.831734 0.075972
C16   C     C_R   0.185070 0.331298 0.931659 0.125348
C17   C     C_R   0.289985 0.357879 0.999659 0.046367
C18   C     C_2   0.703871 0.937367 0.407902 0.178684
C19   C     C_2   0.884086 0.432709 0.388018 0.344003
C20   C     C_2   0.912882 0.676798 0.587895 0.405753
C21   C     C_2   0.873572 0.580975 0.829994 0.240883
C22   C     C_2   0.965661 0.601004 0.023628 0.284820
C23   C     C_R   0.478111 0.440035 0.863375 0.015242
C24   C     C_2   0.248526 0.287015 0.094553 0.257551
C25   C     C_2   0.640831 0.346349 0.752977 0.254551
C26   C     C_R   0.550696 0.480684 0.032567 -0.014791
C27   C     C_R   0.699969 0.525177 0.991842 0.007830
C28   C     C_R   0.732072 0.512077 0.886107 -0.047699
C29   C     C_R   0.619780 0.445211 0.828627 0.033560
C30   C     C_R   0.517700 0.497151 0.136178 -0.161276
C31   C     C_R   0.770070 0.585861 0.163029 0.099123
Cu1   Cu    Cu3+1 0.362000 0.479240 0.482530 0.971824
Cu2   Cu    Cu3+1 0.638000 0.520760 0.517470 1.077067
H1    H     H_    0.407921 0.482708 0.167628 0.151011
H2    H     H_    0.218420 0.634985 0.596382 0.302712
H3    H     H_    0.956399 0.466723 0.320847 0.106591
H4    H     H_    0.160867 0.320059 0.346792 0.286330
H5    H     H_    0.068931 0.258762 0.455712 0.246246
H6    H     H_    0.022863 0.735717 0.561663 0.089804
H7    H     H_    0.920046 0.532088 0.769828 0.079999
H8    H     H_    0.997714 0.530638 0.974781 0.087421
H9    H     H_    0.036022 0.372889 0.793340 0.195003
H10   H     H_    0.075422 0.238605 0.753995 0.241295
H11   H     H_    0.325959 0.254180 0.123477 0.106782
H12   H     H_    0.920335 0.748156 0.213179 0.277287
H13   H     H_    0.006733 0.171505 0.917887 0.250256
H14   H     H_    0.970583 0.308325 0.955082 0.212017
H15   H     H_    0.747760 0.351846 0.718508 0.090941
H16   H     H_    0.672929 0.128159 0.626265 0.226629
H17   H     H_    0.743315 0.159537 0.507493 0.273952
H18   H     H_    0.959131 0.612522 0.219762 0.244197
H19   H     H_    0.284446 0.870204 0.597527 0.258025
H20   H     H_    0.406084 0.923181 0.681889 0.259048
H21   H     H_    0.202227 0.040080 0.513268 0.228008
H22   H     H_    0.280608 0.043526 0.393469 0.249047
H23   H     H_    0.793898 0.902283 0.391397 0.122782
H24   H     H_    0.103011 0.501339 0.656616 0.270347
N1    N     N_2   0.845330 0.551960 0.543750 -0.271547
N2    N     N_3   0.656679 0.161243 0.559906 -0.546698
N3    N     N_2   0.154690 0.448120 0.456210 -0.178654
N4    N     N_3   0.876323 0.651070 0.230405 -0.607827
N5    N     N_3   0.384455 0.870850 0.613854 -0.623324
N6    N     N_3   0.288332 0.024470 0.466912 -0.660785
N7    N     N_3   0.114527 0.568868 0.604739 -0.652744
N8    N     N_3   0.086812 0.331860 0.406272 -0.505954
N9    N     N_3   0.118881 0.338758 0.762977 -0.628660
N10   N     N_3   0.037201 0.255925 0.963113 -0.533998
O1    O     O_R   0.426290 0.668220 0.490680 -0.493522
O2    O     O_2   0.781504 0.333395 0.381592 -0.434713
O3    O     O_2   0.844971 0.721665 0.653672 -0.440327
O4    O     O_2   0.934836 0.695943 0.846493 -0.413957
O5    O     O_2   0.058772 0.701520 0.046901 -0.463354
O6    O     O_2   0.129562 0.266565 0.142142 -0.455249
O7    O     O_2   0.536733 0.253498 0.731934 -0.518349
O8    O     O_R   0.659360 0.703290 0.520190 -0.491386
O9    O     O_R   0.326580 0.473880 0.629020 -0.487929
O10   O     O_R   0.559660 0.508940 0.658530 -0.469902
O11   O     O_R   0.340640 0.296710 0.479810 -0.532376
O12   O     O_R   0.573710 0.331780 0.509320 -0.415192
O13   O     O_R   0.440340 0.491060 0.341470 -0.519855
O14   O     O_R   0.673420 0.526120 0.370980 -0.471193
O15   O     O_2   0.696552 0.018021 0.354642 -0.453057

loop_
_geom_bond_atom_site_label_1
_geom_bond_atom_site_label_2
_ccdc_geom_bond_type
C8    C9    S    
Cu2   N1    S    
C9    N7    S    
C31   N4    S    
H18   N4    S    
C14   C31   A    
C10   O11   A    
C11   O14   A    
C12   C23   A    
C26   C27   A    
C21   O4    D    
H17   N2    S    
C23   C29   A    
H22   N6    S    
C28   C29   A    
C19   H3    S    
C11   C14   S    
C24   O6    D    
C22   H8    S    
H21   N6    S    
C15   C16   A    
C1    O1    A    
C3    C18   S    
C25   O7    D    
C22   O5    D    
C8    N1    D    
Cu2   O8    S    
C16   C17   A    
H4    N8    S    
C12   C17   A    
C5    N5    S    
H2    N7    S    
C18   H23   S    
Cu1   O1    S    
C7    N2    S    
C20   O3    D    
C14   C30   A    
H14   N10   S    
C8    C19   S    
C25   C29   S    
C17   C24   S    
C30   H1    S    
C1    O8    A    
C5    C7    S    
C20   H6    S    
Cu2   O12   S    
C15   N9    S    
C12   C26   A    
C1    C3    S    
C6    N6    S    
C2    C4    S    
Cu1   O9    S    
Cu1   O13   S    
H20   N5    S    
H5    N8    S    
C16   N10   S    
C2    C15   A    
C25   H15   S    
C21   C28   S    
N3    N8    S    
C26   C30   A    
C24   H11   S    
C19   O2    D    
Cu1   N3    S    
C20   N1    S    
C2    C23   A    
H24   N7    S    
C13   C31   A    
C3    C5    D    
C6    C10   S    
C10   O12   A    
C6    C7    D    
H16   N2    S    
C9    N3    D    
Cu1   Cu2   S    
C4    O10   A    
H19   N5    S    
Cu2   O10   S    
C21   H7    S    
H10   N9    S    
H12   N4    S    
C18   O15   D    
C13   C22   S    
C4    O9    A    
C11   O13   A    
Cu1   O11   S    
H13   N10   S    
C27   C28   A    
H9    N9    S    
C13   C27   A    
Cu2   O14   S    
