data_mof_unit_40554.cif
_audit_creation_date              2012-12-11T17:43:36-0500
_audit_creation_method            fapswitch 2.2
_symmetry_space_group_name_H-M    P1
_symmetry_Int_Tables_number       1
_space_group_crystal_system       triclinic
_cell_length_a                    14.941225
_cell_length_b                    15.213825
_cell_length_c                    17.008831
_cell_angle_alpha                 108.503477
_cell_angle_beta                  105.713921
_cell_angle_gamma                 108.677545
_cell_volume                      3160.76799706

loop_
_atom_site_label
_atom_site_type_symbol
_atom_type_description
_atom_site_fract_x
_atom_site_fract_y
_atom_site_fract_z
_atom_type_partial_charge
C1    C     C_R   0.086677 0.285068 0.071554 -0.101238
C2    C     C_R   0.935114 0.012721 0.955503 -0.271723
C3    C     C_R   0.986722 0.911345 0.022375 0.042638
C4    C     C_R   0.992105 0.098806 0.040223 0.058727
C5    C     C_R   0.935657 0.919759 0.944558 0.060316
C6    C     C_R   0.045584 0.092421 0.118461 0.076124
C7    C     C_R   0.062893 0.246678 0.245075 -0.122870
C8    C     C_R   0.974291 0.823519 0.819924 -0.140444
C9    C     C_R   0.227634 0.363495 0.375161 -0.277195
C10   C     C_R   0.843604 0.724906 0.664459 -0.267863
C11   C     C_R   0.296166 0.163107 0.042306 -0.098799
C12   C     C_R   0.905960 0.719555 0.960634 -0.104790
C13   C     C_R   0.597335 0.735641 0.863137 -0.096304
C14   C     C_R   0.354543 0.244501 0.028706 -0.172755
C15   C     C_R   0.543049 0.634335 0.848963 -0.182094
C16   C     C_R   0.936240 0.504993 0.741444 -0.073770
C17   C     C_R   0.061163 0.550775 0.262665 -0.126181
C18   C     C_R   0.310370 0.259471 0.952641 0.103070
C19   C     C_R   0.566620 0.606545 0.920573 0.104829
C20   C     C_R   0.206351 0.192544 0.891360 -0.136791
C21   C     C_R   0.646025 0.682050 0.006369 -0.131101
C22   C     C_R   0.148495 0.110596 0.904915 -0.096192
C23   C     C_R   0.027005 0.558185 0.735911 0.067400
C24   C     C_R   0.702020 0.782666 0.019515 -0.110518
C25   C     C_R   0.193762 0.095636 0.979975 -0.094746
C26   C     C_R   0.677264 0.809625 0.948122 -0.101797
C27   C     C_R   0.473022 0.355134 0.943795 -0.238826
C28   C     C_R   0.396481 0.475723 0.883630 -0.217368
C29   C     C_R   0.539816 0.439623 0.938176 0.054117
C30   C     C_R   0.340133 0.412584 0.914701 0.053244
C31   C     C_R   0.500857 0.502298 0.908810 0.026168
C32   C     C_R   0.374048 0.343188 0.936320 0.033985
C33   C     C_R   0.123154 0.336330 0.327602 -0.205818
C34   C     C_R   0.968111 0.535909 0.270944 0.061869
C35   C     C_R   0.946266 0.767313 0.727345 -0.200162
C36   C     C_R   0.957209 0.576248 0.356328 0.126835
C37   C     C_R   0.033056 0.587000 0.662530 0.120011
C38   C     C_R   0.133777 0.669468 0.593973 -0.217405
C39   C     C_R   0.853659 0.538010 0.438796 -0.216967
C40   C     C_R   0.728718 0.211884 0.820314 0.699364
C41   C     C_R   0.276318 0.784596 0.177306 0.694095
C42   C     C_R   0.129332 0.646307 0.665968 -0.186314
C43   C     C_R   0.859617 0.536575 0.358518 -0.162411
C44   C     C_R   0.941229 0.555560 0.588142 -0.279121
C45   C     C_R   0.676646 0.213442 0.741668 -0.120147
C46   C     C_R   0.046876 0.635763 0.438209 -0.257736
C47   C     C_R   0.945170 0.577303 0.515846 0.172418
C48   C     C_R   0.042248 0.631465 0.517270 0.173159
C49   C     C_R   0.601831 0.124660 0.659747 -0.025438
C50   C     C_R   0.407744 0.867058 0.335858 -0.024324
C51   C     C_R   0.582393 0.998180 0.428113 -0.122596
C52   C     C_R   0.427946 0.992035 0.567917 -0.137074
C53   C     C_R   0.507530 0.919823 0.344063 -0.228496
C54   C     C_R   0.502628 0.070279 0.651909 -0.236329
C55   C     C_R   0.379670 0.892792 0.408769 0.684073
C56   C     C_R   0.331180 0.779870 0.253316 -0.114624
C57   C     C_R   0.630113 0.099652 0.586981 0.704313
C58   C     C_R   0.453964 0.968864 0.493114 -0.091316
C59   C     C_R   0.556281 0.022244 0.502845 -0.103676
C60   C     C_R   0.271944 0.300798 0.340483 0.824480
C61   C     C_R   0.769381 0.741728 0.693967 0.831035
C62   C     C_R   0.212042 0.211268 0.257718 -0.347393
C63   C     C_R   0.798462 0.802553 0.786057 -0.350380
C64   C     C_R   0.246993 0.524529 0.940519 -0.096058
C65   C     C_R   0.701898 0.418154 0.005705 -0.136798
C66   C     C_R   0.107183 0.183935 0.208879 0.043036
C67   C     C_R   0.273123 0.448062 0.951815 0.055031
C68   C     C_R   0.900708 0.842561 0.849969 0.049357
C69   C     C_R   0.728875 0.309322 0.746498 0.155053
C70   C     C_R   0.274639 0.686235 0.249567 0.136607
C71   C     C_R   0.246181 0.433306 0.020508 -0.146454
C72   C     C_R   0.709625 0.510846 0.927287 -0.146269
C73   C     C_R   0.107847 0.593901 0.818983 -0.155273
C74   C     C_R   0.888553 0.464094 0.186201 -0.126350
C75   C     C_R   0.913929 0.202934 0.994248 -0.118950
C76   C     C_R   0.080149 0.805245 0.038154 -0.135335
C77   C     C_R   0.998766 0.193904 0.038918 0.025094
C78   C     C_R   0.647933 0.459863 0.960897 0.045574
C79   C     C_R   0.989824 0.816031 0.013255 0.042998
C80   C     C_3   0.682348 0.359626 0.694847 -0.409753
C81   C     C_3   0.569847 0.335047 0.682347 -0.327469
C82   C     C_3   0.534148 0.405599 0.649649 -0.786176
C83   C     C_3   0.316518 0.633177 0.300746 -0.409048
C84   C     C_3   0.411471 0.625296 0.286995 -0.330444
C85   C     C_3   0.444458 0.559191 0.328407 -0.776780
C86   C     C_R   0.040851 0.996482 0.108642 -0.264562
F1    F     F_    0.729153 0.152250 0.598344 -0.720383
F2    F     F_    0.280052 0.842449 0.397273 -0.738737
F3    F     F_    0.373408 0.327437 0.386640 -0.709925
F4    F     F_    0.670322 0.703004 0.632806 -0.708335
F5    F     F_    0.694001 0.138461 0.847978 -0.731558
F6    F     F_    0.314272 0.854159 0.146783 -0.727163
H1    H     H_    0.164516 0.306006 0.116847 0.107755
H2    H     H_    0.481275 0.578032 0.782710 0.127552
H3    H     H_    0.170828 0.202692 0.832427 0.124365
H4    H     H_    0.663780 0.663238 0.063224 0.119762
H5    H     H_    0.068871 0.058271 0.856859 0.128943
H6    H     H_    0.763595 0.840141 0.085415 0.124905
H7    H     H_    0.499227 0.301351 0.958684 0.133452
H8    H     H_    0.367980 0.522294 0.858148 0.122101
H9    H     H_    0.122170 0.673629 0.439034 0.151914
H10   H     H_    0.865875 0.511034 0.583633 0.131245
H11   H     H_    0.788391 0.495672 0.297327 0.119230
H12   H     H_    0.825646 0.701455 0.925546 0.118894
H13   H     H_    0.201517 0.672632 0.722628 0.126966
H14   H     H_    0.208850 0.711530 0.595947 0.141679
H15   H     H_    0.778349 0.499586 0.438108 0.145192
H16   H     H_    0.858485 0.478742 0.694378 0.087194
H17   H     H_    0.138076 0.602214 0.314931 0.130542
H18   H     H_    0.088922 0.384952 0.354510 0.157157
H19   H     H_    0.005111 0.759463 0.704385 0.169444
H20   H     H_    0.482532 0.091058 0.709534 0.175162
H21   H     H_    0.527546 0.898643 0.286438 0.173621
H22   H     H_    0.660296 0.038753 0.434699 0.193418
H23   H     H_    0.982091 0.226802 0.208904 0.128831
H24   H     H_    0.350172 0.951020 0.561409 0.190719
H25   H     H_    0.274215 0.433162 0.438858 0.159766
H26   H     H_    0.822117 0.681161 0.592726 0.157182
H27   H     H_    0.247854 0.164464 0.230724 0.159880
H28   H     H_    0.742658 0.821825 0.807124 0.155024
H29   H     H_    0.257089 0.557155 0.894354 0.096913
H30   H     H_    0.671293 0.361025 0.028362 0.101938
H31   H     H_    0.259666 0.384294 0.051226 0.121950
H32   H     H_    0.686474 0.534890 0.875005 0.116284
H33   H     H_    0.186588 0.651594 0.843829 0.103178
H34   H     H_    0.054504 0.856872 0.867333 0.126946
H35   H     H_    0.806343 0.433546 0.168142 0.095484
H36   H     H_    0.833466 0.149755 0.969865 0.180930
H37   H     H_    0.158742 0.865913 0.073029 0.178492
H38   H     H_    0.080729 0.988249 0.167476 0.155760
H39   H     H_    0.898762 0.020828 0.895297 0.159350
H40   H     H_    0.583501 0.487858 0.700481 0.244348
H41   H     H_    0.538405 0.395701 0.583391 0.296458
H42   H     H_    0.452571 0.385571 0.640616 0.246002
H43   H     H_    0.517200 0.253669 0.631041 0.223076
H44   H     H_    0.563078 0.345154 0.747789 0.207937
H45   H     H_    0.149930 0.031817 0.990156 0.119537
H46   H     H_    0.729181 0.444768 0.734548 0.181268
H47   H     H_    0.685525 0.334480 0.627207 0.212738
H48   H     H_    0.463286 0.592671 0.402463 0.284409
H49   H     H_    0.381294 0.478887 0.294182 0.248689
H50   H     H_    0.514423 0.556501 0.319070 0.243968
H51   H     H_    0.392992 0.589861 0.213026 0.208114
H52   H     H_    0.477404 0.703817 0.319665 0.218187
H53   H     H_    0.337436 0.676374 0.374449 0.206867
H54   H     H_    0.255493 0.553464 0.275324 0.187778
H55   H     H_    0.719645 0.887973 0.958800 0.126003
H56   H     H_    0.330576 0.151813 0.100794 0.132905
H57   H     H_    0.576839 0.756792 0.808160 0.141470
H58   H     H_    0.434076 0.296060 0.077650 0.120023
N1    N     N_R   0.055660 0.348550 0.045620 -0.045862
N2    N     N_R   0.185200 0.638170 0.176300 -0.096860
N3    N     N_R   0.201680 0.494570 0.045620 -0.053149
N4    N     N_R   0.798320 0.505430 0.954380 -0.045533
N5    N     N_R   0.068420 0.560530 0.871650 -0.039191
N6    N     N_R   0.931580 0.439470 0.128350 -0.040900
N7    N     N_R   0.948070 0.295860 0.997670 -0.041818
N8    N     N_R   0.051930 0.704140 0.002330 -0.039224
N9    N     N_R   0.944340 0.651450 0.954380 -0.048556
N10   N     N_R   0.960830 0.507850 0.823700 -0.045611
N11   N     N_R   0.039170 0.492150 0.176300 -0.048328
N12   N     N_R   0.811290 0.303410 0.871650 -0.122942
N13   N     N_R   0.188710 0.696590 0.128350 -0.121089
N14   N     N_R   0.205200 0.552990 0.997670 -0.048983
N15   N     N_R   0.794800 0.447010 0.002330 -0.043186
N16   N     N_R   0.814800 0.361830 0.823700 -0.100063
Ni1   Ni    Ni4+2 0.119340 0.493420 0.109960 0.200486
Ni2   Ni    Ni4+2 0.880660 0.506580 0.890040 0.202812
Ni3   Ni    Ni4+2 0.872590 0.372590 0.000000 0.242615
Ni4   Ni    Ni4+2 0.127410 0.627410 0.000000 0.254379

loop_
_geom_bond_atom_site_label_1
_geom_bond_atom_site_label_2
_ccdc_geom_bond_type
C9    C33   A    
C82   H42   S    
C27   C29   A    
C1    C77   A    
C14   C18   A    
N14   Ni4   S    
C76   C79   A    
C64   N14   A    
C19   C31   S    
C15   H2    S    
C81   C82   S    
C60   F3    S    
C15   C19   A    
C27   H7    S    
C74   H35   S    
C24   H6    S    
N1    N7    A    
C80   H46   S    
C71   H31   S    
C19   C21   A    
C24   C26   A    
C38   C42   A    
C11   C14   A    
N1    Ni1   S    
C11   H56   S    
C57   C59   A    
C67   C71   A    
C16   N10   A    
C84   H52   S    
C64   H29   S    
C71   N3    A    
C12   C79   A    
C65   N15   A    
N6    Ni3   S    
C55   F2    S    
C49   C57   A    
N9    Ni2   S    
C60   C62   A    
C75   H36   S    
C7    H23   S    
C37   C42   A    
C61   C63   A    
N13   Ni4   S    
C69   N16   A    
C72   C78   A    
N7    Ni3   S    
N12   N16   A    
C29   C78   S    
C47   C48   A    
C53   H21   S    
C22   C25   A    
N4    N15   A    
C36   C46   A    
C10   C35   A    
C38   C48   A    
C30   C67   S    
C44   C47   A    
C17   N11   A    
C28   H8    S    
N5    N10   A    
C3    C79   S    
C12   N9    A    
C22   H5    S    
C83   H53   S    
C72   H32   S    
C3    C86   A    
N16   Ni2   S    
C7    C33   A    
N4    Ni2   S    
C23   C73   A    
C5    C68   S    
C52   C54   A    
C81   H43   S    
C52   H24   S    
N15   Ni3   S    
C40   C45   A    
C46   H9    S    
C46   C48   A    
C50   C53   A    
C72   N4    A    
C62   C66   A    
N3    N14   A    
C45   C69   A    
C51   H22   S    
C64   C67   A    
C70   N2    A    
C84   C85   S    
C4    C6    A    
C85   H49   S    
C44   H10   S    
C86   H38   S    
C39   C43   A    
C84   H51   S    
C58   C59   A    
C23   C37   S    
C50   C56   S    
C25   H45   S    
C57   F1    S    
C51   C53   A    
C8    C35   A    
C38   H14   S    
C2    C4    A    
C41   C56   A    
C40   N12   A    
C10   H26   S    
C83   H54   S    
C76   H37   S    
C83   C84   S    
C45   C49   S    
C76   N8    A    
C73   N5    A    
C2    H39   S    
C36   C43   A    
C54   H20   S    
C65   H30   S    
C70   C83   S    
C75   C77   A    
C85   H48   S    
C62   H27   S    
N11   Ni1   S    
C52   C58   A    
C34   C74   A    
C8    H34   S    
C20   H3    S    
C20   C22   A    
N6    N11   A    
C8    C68   A    
C16   C23   A    
C56   C70   A    
C41   N13   A    
N8    N9    A    
C13   C26   A    
C21   C24   A    
C2    C5    A    
C18   C32   S    
C17   C34   A    
C82   H40   S    
N2    Ni1   S    
C35   H19   S    
C61   F4    S    
C81   H44   S    
C39   C47   A    
C63   C68   A    
C65   C78   A    
C27   C32   A    
C28   C31   A    
N8    Ni4   S    
C80   C81   S    
C3    C5    A    
C17   H17   S    
C85   H50   S    
C39   H15   S    
C12   H12   S    
C21   H4    S    
C80   H47   S    
C50   C55   A    
C6    C86   A    
C9    C60   A    
C37   C44   A    
C13   C15   A    
C13   H57   S    
C4    C77   S    
C29   C31   A    
C7    C66   A    
C30   C32   A    
C63   H28   S    
N5    Ni4   S    
C75   N7    A    
N12   Ni3   S    
C82   H41   S    
C73   H33   S    
C28   C30   A    
C34   C36   S    
C1    N1    A    
C18   C20   A    
N10   Ni2   S    
C40   F5    S    
C26   H55   S    
C42   H13   S    
C43   H11   S    
N2    N13   A    
C16   H16   S    
C14   H58   S    
C10   C61   A    
C6    C66   S    
C41   F6    S    
C51   C59   A    
C1    H1    S    
C55   C58   A    
C11   C25   A    
C74   N6    A    
C69   C80   S    
C33   H18   S    
N3    Ni1   S    
C9    H25   S    
C49   C54   A    
