data_mof_unit_6898.cif
_audit_creation_date              2012-12-11T14:38:11-0500
_audit_creation_method            fapswitch 2.2
_symmetry_space_group_name_H-M    P1
_symmetry_Int_Tables_number       1
_space_group_crystal_system       triclinic
_cell_length_a                    19.39543
_cell_length_b                    11.227503
_cell_length_c                    19.619175
_cell_angle_alpha                 90.036028
_cell_angle_beta                  96.547512
_cell_angle_gamma                 90.094218
_cell_volume                      4244.4429154

loop_
_atom_site_label
_atom_site_type_symbol
_atom_type_description
_atom_site_fract_x
_atom_site_fract_y
_atom_site_fract_z
_atom_type_partial_charge
C1    C     C_R   0.725028 0.954678 0.360479 0.534127
C2    C     C_R   0.274151 0.951995 0.640219 0.546598
C3    C     C_R   0.226119 0.452113 0.359518 0.536608
C4    C     C_R   0.774948 0.454626 0.639549 0.533558
C5    C     C_3   0.680225 0.455456 0.456586 -0.225208
C6    C     C_3   0.335596 0.396535 0.533972 -0.231039
C7    C     C_3   0.187159 0.972191 0.455211 -0.263157
C8    C     C_3   0.819844 0.955657 0.543438 -0.225254
C9    C     C_3   0.824627 0.472856 0.531843 -0.247024
C10   C     C_3   0.190738 0.474176 0.473458 -0.256716
C11   C     C_3   0.325656 0.959399 0.533809 -0.248424
C12   C     C_3   0.675406 0.972576 0.468278 -0.246742
C13   C     C_3   0.754086 0.292622 0.555519 0.081072
C14   C     C_3   0.234559 0.280214 0.437111 0.094258
C15   C     C_3   0.251914 0.785403 0.555252 0.080289
C16   C     C_3   0.745756 0.792697 0.444311 0.081346
C17   C     C_3   0.760526 0.426513 0.567080 0.083477
C18   C     C_3   0.244182 0.414603 0.430534 0.085559
C19   C     C_3   0.259479 0.919977 0.567769 0.090880
C20   C     C_3   0.739448 0.926573 0.432932 0.083392
C21   C     C_3   0.744973 0.390275 0.435729 0.018565
C22   C     C_3   0.266258 0.356951 0.559762 0.010997
C23   C     C_3   0.243949 0.886034 0.436061 0.022723
C24   C     C_3   0.755073 0.890195 0.564251 0.018023
C25   C     C_3   0.809460 0.467496 0.453753 -0.278602
C26   C     C_3   0.214888 0.462126 0.550109 -0.233297
C27   C     C_3   0.316470 0.938162 0.457143 -0.262963
C28   C     C_3   0.690635 0.967180 0.546359 -0.277616
C29   C     C_3   0.756142 0.273693 0.478248 -0.141681
C30   C     C_3   0.236070 0.252923 0.514025 -0.179781
C31   C     C_3   0.234730 0.768893 0.476653 -0.166715
C32   C     C_3   0.743818 0.773620 0.521585 -0.142229
C33   C     C_3   0.555269 0.235670 0.952896 -0.243846
C34   C     C_3   0.572597 0.234315 0.030851 -0.222098
C35   C     C_3   0.927426 0.734302 0.969233 -0.222477
C36   C     C_3   0.944741 0.735469 0.047195 -0.243653
C37   C     C_3   0.427427 0.234298 0.969233 -0.222407
C38   C     C_3   0.508000 0.040967 0.039237 -0.234412
C39   C     C_3   0.991729 0.541040 0.960632 -0.234107
C40   C     C_3   0.072597 0.734313 0.030851 -0.222270
C41   C     C_3   0.491732 0.041039 0.960631 -0.234088
C42   C     C_3   0.444741 0.235465 0.047194 -0.243591
C43   C     C_3   0.055268 0.735669 0.952896 -0.243643
C44   C     C_3   0.007997 0.540968 0.039237 -0.234475
C45   C     C_R   0.536319 0.180450 0.338577 0.537262
C46   C     C_R   0.464058 0.180420 0.661679 0.529292
C47   C     C_R   0.036294 0.680452 0.338540 0.535748
C48   C     C_R   0.963834 0.680490 0.661544 0.539538
C49   C     C_3   0.485632 0.171577 0.933841 0.053642
C50   C     C_3   0.514293 0.171444 0.066174 0.053909
C51   C     C_3   0.985631 0.671578 0.933842 0.053566
C52   C     C_3   0.014292 0.671445 0.066175 0.053993
C53   C     C_1   0.757090 0.414511 0.900653 -0.013984
C54   C     C_1   0.242908 0.414301 0.099376 -0.013690
C55   C     C_1   0.257091 0.914512 0.900653 -0.013142
C56   C     C_1   0.742905 0.914311 0.099373 -0.014048
C57   C     C_1   0.736398 0.365634 0.027003 -0.053484
C58   C     C_1   0.263707 0.365405 0.973050 -0.053143
C59   C     C_1   0.236398 0.865636 0.027003 -0.053447
C60   C     C_1   0.763703 0.865420 0.973047 -0.053379
C61   C     C_1   0.745614 0.389965 0.958071 -0.047965
C62   C     C_1   0.254431 0.389721 0.041973 -0.047722
C63   C     C_1   0.245614 0.889966 0.958072 -0.047757
C64   C     C_1   0.754427 0.889735 0.041969 -0.047948
C65   C     C_1   0.730126 0.344014 0.086156 -0.022114
C66   C     C_1   0.269988 0.343824 0.913888 -0.022722
C67   C     C_1   0.230126 0.844017 0.086156 -0.022027
C68   C     C_1   0.769985 0.843837 0.913886 -0.022048
C69   C     C_R   0.738029 0.357970 0.362814 0.545466
C70   C     C_R   0.274679 0.316397 0.632002 0.544588
C71   C     C_R   0.237750 0.857115 0.362961 0.554231
C72   C     C_R   0.762014 0.857907 0.637151 0.545619
C73   C     C_R   0.723041 0.952703 0.164019 0.537487
C74   C     C_R   0.276964 0.952809 0.835991 0.539460
C75   C     C_R   0.223043 0.452699 0.164020 0.536955
C76   C     C_R   0.776964 0.452809 0.835991 0.537039
C77   C     C_R   0.534311 0.178976 0.140211 0.532986
C78   C     C_R   0.465631 0.179091 0.859808 0.533627
C79   C     C_R   0.034311 0.678976 0.140211 0.532766
C80   C     C_R   0.965630 0.679091 0.859809 0.533794
C81   C     C_R   0.722917 0.312745 0.155876 0.552141
C82   C     C_R   0.277118 0.312606 0.844135 0.554582
C83   C     C_R   0.222917 0.812746 0.155876 0.552315
C84   C     C_R   0.777116 0.812612 0.844135 0.552298
C85   C     C_1   0.486253 0.172822 0.594800 -0.016775
C86   C     C_1   0.515140 0.173077 0.405886 -0.012464
C87   C     C_1   0.985554 0.673169 0.594483 -0.002179
C88   C     C_1   0.014879 0.673110 0.405725 -0.010912
C89   C     C_1   0.505193 0.169769 0.465262 -0.033967
C90   C     C_1   0.496765 0.169584 0.535577 -0.034870
C91   C     C_1   0.004635 0.669997 0.465006 -0.027419
C92   C     C_1   0.995947 0.670032 0.535241 -0.022180
C93   C     C_3   0.690500 0.480298 0.533873 -0.196731
C94   C     C_3   0.320587 0.445494 0.460138 -0.198591
C95   C     C_3   0.189949 0.976507 0.533683 -0.225961
C96   C     C_3   0.809540 0.980546 0.466174 -0.196635
Cr1   Cr    Cr6+3 0.765780 0.160710 0.267420 1.012589
Cr2   Cr    Cr6+3 0.234220 0.160710 0.732580 1.014235
Cr3   Cr    Cr6+3 0.265780 0.660710 0.267420 1.012685
Cr4   Cr    Cr6+3 0.734220 0.660710 0.732580 1.012707
Cr5   Cr    Cr6+3 0.612200 0.009560 0.248850 1.009712
Cr6   Cr    Cr6+3 0.387800 0.009560 0.751150 1.005743
Cr7   Cr    Cr6+3 0.112200 0.509560 0.248850 1.009148
Cr8   Cr    Cr6+3 0.887800 0.509560 0.751150 1.011186
Cr9   Cr    Cr6+3 0.616030 0.323720 0.248510 1.013650
Cr10  Cr    Cr6+3 0.383970 0.323720 0.751490 1.013322
Cr11  Cr    Cr6+3 0.116030 0.823720 0.248510 1.012944
Cr12  Cr    Cr6+3 0.883970 0.823720 0.751490 1.015627
H1    H     H_    0.688123 0.573737 0.544323 0.106897
H2    H     H_    0.329948 0.542500 0.460705 0.101726
H3    H     H_    0.178758 0.064695 0.552599 0.116070
H4    H     H_    0.812011 0.074009 0.455856 0.106681
H5    H     H_    0.810069 0.247061 0.472840 0.087718
H6    H     H_    0.181356 0.240670 0.524299 0.089809
H7    H     H_    0.267529 0.697790 0.459179 0.105085
H8    H     H_    0.689898 0.746685 0.527024 0.087474
H9    H     H_    0.869794 0.413472 0.546934 0.129369
H10   H     H_    0.139244 0.429573 0.462617 0.124483
H11   H     H_    0.371105 0.904931 0.555084 0.132992
H12   H     H_    0.630204 0.912996 0.453149 0.128731
H13   H     H_    0.855557 0.431435 0.431642 0.138105
H14   H     H_    0.168711 0.449692 0.578196 0.166850
H15   H     H_    0.357371 0.875140 0.444213 0.133635
H16   H     H_    0.644528 0.930912 0.568455 0.138510
H17   H     H_    0.552445 0.329571 0.934567 0.144048
H18   H     H_    0.622517 0.186427 0.044153 0.106008
H19   H     H_    0.877423 0.686400 0.955835 0.105890
H20   H     H_    0.947687 0.829332 0.065676 0.144095
H21   H     H_    0.597142 0.190642 0.928248 0.121012
H22   H     H_    0.579944 0.327996 0.048870 0.147932
H23   H     H_    0.920256 0.828011 0.951354 0.147659
H24   H     H_    0.902791 0.690304 0.071751 0.120857
H25   H     H_    0.420255 0.328007 0.951354 0.147599
H26   H     H_    0.557401 0.991860 0.053310 0.150107
H27   H     H_    0.942252 0.491873 0.946498 0.150233
H28   H     H_    0.079945 0.827994 0.048870 0.147929
H29   H     H_    0.447686 0.329329 0.065675 0.144115
H30   H     H_    0.533408 0.993417 0.937075 0.131135
H31   H     H_    0.966244 0.493257 0.062730 0.130907
H32   H     H_    0.052446 0.829569 0.934567 0.144239
H33   H     H_    0.466247 0.993255 0.062729 0.131005
H34   H     H_    0.377424 0.186393 0.955835 0.105682
H35   H     H_    0.122517 0.686424 0.044153 0.106116
H36   H     H_    0.033405 0.493416 0.937076 0.131581
H37   H     H_    0.645448 0.444634 0.557825 0.175386
H38   H     H_    0.358125 0.406687 0.427474 0.167887
H39   H     H_    0.145050 0.924860 0.548698 0.180738
H40   H     H_    0.854537 0.945043 0.442152 0.175364
H41   H     H_    0.633267 0.398734 0.444465 0.161937
H42   H     H_    0.371408 0.319290 0.534529 0.145382
H43   H     H_    0.134489 0.941745 0.433624 0.141274
H44   H     H_    0.866767 0.899111 0.555475 0.161502
H45   H     H_    0.671416 0.540221 0.427747 0.107502
H46   H     H_    0.361772 0.466796 0.567632 0.129519
H47   H     H_    0.194904 0.060211 0.433375 0.151293
H48   H     H_    0.828727 0.040425 0.572375 0.107903
H49   H     H_    0.343380 0.051192 0.546390 0.122854
H50   H     H_    0.655957 0.060790 0.450949 0.135556
H51   H     H_    0.844070 0.561172 0.549306 0.133633
H52   H     H_    0.179769 0.565399 0.458460 0.123469
H53   H     H_    0.324519 0.021283 0.429154 0.196624
H54   H     H_    0.701118 0.054786 0.568619 0.197317
H55   H     H_    0.799076 0.555105 0.431629 0.197482
H56   H     H_    0.242106 0.543543 0.569850 0.176826
H57   H     H_    0.798273 0.243855 0.584353 0.112496
H58   H     H_    0.182893 0.252042 0.411050 0.118919
H59   H     H_    0.301523 0.738341 0.572582 0.110874
H60   H     H_    0.701460 0.743865 0.415486 0.112320
H61   H     H_    0.719116 0.205904 0.457774 0.144903
H62   H     H_    0.266101 0.173032 0.526625 0.142883
H63   H     H_    0.178980 0.745420 0.465408 0.152539
H64   H     H_    0.780877 0.706003 0.541888 0.144673
O1    O     O_R   0.783100 0.287550 0.345460 -0.528065
O2    O     O_R   0.216900 0.287550 0.654540 -0.520380
O3    O     O_R   0.283100 0.787550 0.345460 -0.527829
O4    O     O_R   0.716900 0.787550 0.654540 -0.527958
O5    O     O_R   0.554710 0.081900 0.170950 -0.507884
O6    O     O_R   0.445290 0.081900 0.829050 -0.506604
O7    O     O_R   0.054710 0.581900 0.170950 -0.508023
O8    O     O_R   0.945290 0.581900 0.829050 -0.507395
O9    O     O_R   0.545650 0.284910 0.163740 -0.529590
O10   O     O_R   0.454350 0.284910 0.836260 -0.529299
O11   O     O_R   0.045650 0.784910 0.163740 -0.529635
O12   O     O_R   0.954350 0.784910 0.836260 -0.529218
O13   O     O_R   0.677950 0.374280 0.185410 -0.489606
O14   O     O_R   0.322050 0.374280 0.814590 -0.484117
O15   O     O_R   0.177950 0.874280 0.185410 -0.489575
O16   O     O_R   0.822050 0.874280 0.814590 -0.489636
O17   O     O_3   0.664670 0.164660 0.254930 -0.278962
O18   O     O_3   0.335330 0.164660 0.745070 -0.294570
O19   O     O_3   0.164670 0.664660 0.254930 -0.278753
O20   O     O_3   0.835330 0.664660 0.745070 -0.279912
O21   O     O_R   0.760020 0.037400 0.337700 -0.515823
O22   O     O_R   0.239980 0.037400 0.662300 -0.522821
O23   O     O_R   0.260020 0.537400 0.337700 -0.515283
O24   O     O_R   0.739980 0.537400 0.662300 -0.516006
O25   O     O_R   0.666600 0.921990 0.332020 -0.532710
O26   O     O_R   0.333400 0.921990 0.667980 -0.532978
O27   O     O_R   0.166600 0.421990 0.332020 -0.533702
O28   O     O_R   0.833400 0.421990 0.667980 -0.532232
O29   O     O_R   0.557260 0.082670 0.312540 -0.496681
O30   O     O_R   0.442740 0.082670 0.687460 -0.497258
O31   O     O_R   0.057260 0.582670 0.312540 -0.495061
O32   O     O_R   0.942740 0.582670 0.687460 -0.496874
O33   O     O_R   0.548410 0.285740 0.316480 -0.512362
O34   O     O_R   0.451590 0.285740 0.683520 -0.516978
O35   O     O_R   0.048410 0.785740 0.316480 -0.512258
O36   O     O_R   0.951590 0.785740 0.683520 -0.510611
O37   O     O_R   0.680500 0.375040 0.327000 -0.499107
O38   O     O_R   0.319500 0.375040 0.673000 -0.492687
O39   O     O_R   0.180500 0.875040 0.327000 -0.500203
O40   O     O_R   0.819500 0.875040 0.673000 -0.499316
O41   O     O_R   0.780350 0.286720 0.192720 -0.499669
O42   O     O_R   0.219650 0.286720 0.807280 -0.493980
O43   O     O_R   0.280350 0.786720 0.192720 -0.499366
O44   O     O_R   0.719650 0.786720 0.807280 -0.499374
O45   O     O_R   0.757470 0.036630 0.196110 -0.509491
O46   O     O_R   0.242530 0.036630 0.803890 -0.509048
O47   O     O_R   0.257470 0.536630 0.196110 -0.509882
O48   O     O_R   0.742530 0.536630 0.803890 -0.509737
O49   O     O_R   0.663840 0.921160 0.179280 -0.509814
O50   O     O_R   0.336160 0.921160 0.820720 -0.508938
O51   O     O_R   0.163840 0.421160 0.179280 -0.510765
O52   O     O_R   0.836160 0.421160 0.820720 -0.509621
H65   H     H_    0.442255 0.991870 0.946497 0.150302
H66   H     H_    0.402791 0.190299 0.071751 0.121021
H67   H     H_    0.097141 0.690639 0.928249 0.122064
H68   H     H_    0.057397 0.491858 0.053310 0.150186
O53   O     O_3   0.691093 0.251257 0.575753 -0.755191
H69   H     H_    0.697466 0.246074 0.626614 0.320598
O54   O     O_3   0.287398 0.218677 0.408679 -0.757411
H70   H     H_    0.273877 0.215215 0.358366 0.325153
O55   O     O_3   0.198110 0.738407 0.589672 -0.745989
H71   H     H_    0.217550 0.725901 0.638165 0.328969
O56   O     O_3   0.808639 0.751562 0.423867 -0.756401
H72   H     H_    0.802083 0.746127 0.373012 0.320505

loop_
_geom_bond_atom_site_label_1
_geom_bond_atom_site_label_2
_ccdc_geom_bond_type
C94   H38   S    
C39   C51   S    
C50   C77   S    
C58   C62   S    
C8    C24   S    
C10   H52   S    
C9    H9    S    
C14   C18   S    
C1    O21   A    
C35   C36   S    
C8    C96   S    
Cr12  O36   S    
C11   H11   S    
Cr7   O19   S    
C9    C25   S    
C70   O2    A    
C36   H20   S    
C76   O52   A    
C67   C83   S    
C40   H28   S    
C11   C19   S    
Cr3   O43   S    
C48   O36   A    
C82   O14   A    
Cr6   O50   S    
Cr8   O32   S    
C10   C18   S    
C13   C29   S    
C16   C20   S    
C8    H44   S    
C25   H55   S    
C75   O47   A    
C72   O40   A    
Cr5   O17   S    
C74   O46   A    
Cr6   O26   S    
Cr2   O2    S    
Cr5   O25   S    
Cr7   O7    S    
Cr11  O39   S    
C9    H51   S    
Cr9   O13   S    
Cr10  O38   S    
Cr3   O23   S    
Cr9   O37   S    
C49   C78   S    
Cr2   O22   S    
C3    C18   S    
C46   O34   A    
C48   O32   A    
C95   H3    S    
Cr1   O21   S    
C37   C42   S    
C12   H50   S    
C51   C80   S    
C30   H62   S    
C21   C25   S    
Cr7   O51   S    
C43   C51   S    
C82   O42   A    
C55   C74   S    
C13   H57   S    
C41   C49   S    
C40   C43   S    
C81   O41   A    
C79   O11   A    
C78   O6    A    
C6    C94   S    
Cr8   O20   S    
C55   C63   T    
Cr11  O11   S    
Cr4   O4    S    
C77   O9    A    
O56   H72   S    
C56   C64   T    
C93   H37   S    
C73   O49   A    
C23   C27   S    
C14   H58   S    
C52   C79   S    
O55   H71   S    
Cr11  O35   S    
C36   C52   S    
Cr2   O18   S    
C46   C85   S    
C59   C67   T    
C5    C93   S    
C44   C52   S    
C7    H47   S    
Cr1   O17   S    
C20   C96   S    
C46   O30   A    
C75   O51   A    
C12   H12   S    
C87   C92   T    
C42   H29   S    
Cr8   O28   S    
Cr6   O6    S    
C83   O15   A    
Cr4   O20   S    
C69   O1    A    
C14   C30   S    
C31   H7    S    
C22   C70   S    
Cr12  O40   S    
C43   H67   S    
Cr7   O31   S    
Cr4   O24   S    
C24   C72   S    
Cr3   O3    S    
C96   H40   S    
C41   H65   S    
C34   C50   S    
Cr1   O1    S    
C37   H34   S    
Cr12  O12   S    
C28   H54   S    
C68   C84   S    
Cr9   O17   S    
C95   H39   S    
Cr10  O14   S    
C38   C41   S    
C91   C92   S    
C81   O13   A    
C27   H15   S    
C39   H27   S    
C54   C62   T    
C16   O56   S    
C40   C52   S    
C42   H66   S    
C21   C29   S    
C15   C31   S    
C94   H2    S    
C3    O23   A    
C21   C69   S    
C2    O22   A    
C23   C31   S    
C15   C19   S    
C24   C32   S    
Cr10  O10   S    
O53   H69   S    
C10   H10   S    
C23   C71   S    
C66   C82   S    
C37   C49   S    
C65   C81   S    
C88   C91   T    
C11   C27   S    
C34   H18   S    
C12   C20   S    
C33   H17   S    
C33   C34   S    
C14   O54   S    
C48   C87   S    
C47   O31   A    
C43   H32   S    
Cr7   O27   S    
C32   H8    S    
C3    O27   A    
C35   H19   S    
C44   H68   S    
C34   H22   S    
C41   H30   S    
C6    H46   S    
Cr12  O20   S    
C42   C50   S    
C7    H43   S    
C4    C17   S    
C9    C17   S    
C33   H21   S    
Cr3   O47   S    
C44   H31   S    
C71   O39   A    
C25   H13   S    
Cr2   O46   S    
C35   C51   S    
C18   C94   S    
C38   H33   S    
Cr1   O45   S    
C84   O16   A    
C53   C76   S    
C17   C93   S    
Cr10  O18   S    
C53   C61   T    
C15   H59   S    
C35   H23   S    
C19   C95   S    
C11   H49   S    
C58   C66   T    
C12   C28   S    
C30   H6    S    
Cr5   O49   S    
C4    O24   A    
C29   H5    S    
Cr4   O44   S    
C1    C20   S    
C45   O33   A    
C56   C73   S    
C22   C30   S    
C2    C19   S    
C2    O26   A    
Cr12  O16   S    
C1    O25   A    
C24   C28   S    
C80   O12   A    
C57   C65   T    
C86   C89   T    
Cr10  O34   S    
C83   O43   A    
C85   C90   T    
C28   H16   S    
C57   C61   S    
C39   C44   S    
C38   C50   S    
Cr9   O33   S    
C47   O35   A    
C16   C32   S    
C7    C95   S    
C74   O50   A    
C59   C63   S    
C96   H4    S    
C13   C17   S    
C60   C64   S    
C60   C68   T    
Cr9   O9    S    
C47   C88   S    
C36   H24   S    
C45   C86   S    
Cr6   O30   S    
C15   O55   S    
C80   O8    A    
Cr5   O29   S    
C27   H53   S    
Cr3   O19   S    
C10   C26   S    
Cr8   O8    S    
C7    C23   S    
C31   H63   S    
C16   H60   S    
C5    H45   S    
C5    H41   S    
C26   H56   S    
Cr6   O18   S    
C71   O3    A    
C29   H61   S    
C69   O37   A    
C37   H25   S    
C38   H26   S    
Cr2   O42   S    
C8    H48   S    
C72   O4    A    
C77   O5    A    
C32   H64   S    
Cr5   O5    S    
C13   O53   S    
C54   C75   S    
C6    H42   S    
C4    O28   A    
C79   O7    A    
C5    C21   S    
C39   H36   S    
Cr4   O48   S    
C45   O29   A    
C22   C26   S    
C40   H35   S    
Cr11  O19   S    
O54   H70   S    
C73   O45   A    
C76   O48   A    
Cr11  O15   S    
Cr1   O41   S    
C26   H14   S    
C70   O38   A    
C78   O10   A    
C89   C90   S    
C33   C49   S    
Cr8   O52   S    
C84   O44   A    
C93   H1    S    
C6    C22   S    
