data_mof_unit_68159.cif
_audit_creation_date              2013-03-05T16:02:15-0500
_audit_creation_method            fapswitch 2.2
_symmetry_space_group_name_H-M    P1
_symmetry_Int_Tables_number       1
_space_group_crystal_system       triclinic
_cell_length_a                    21.654137
_cell_length_b                    7.305365
_cell_length_c                    14.736862
_cell_angle_alpha                 89.979173
_cell_angle_beta                  101.036504
_cell_angle_gamma                 89.843694
_cell_volume                      2288.11961591

loop_
_atom_site_label
_atom_site_type_symbol
_atom_site_description
_atom_site_fract_x
_atom_site_fract_y
_atom_site_fract_z
_atom_type_partial_charge
O1    O     O_R   0.835850 0.638310 0.002120 -0.613303
O2    O     O_R   0.164150 0.361690 0.997880 -0.552589
O3    O     O_R   0.664150 0.138310 0.997880 -0.612631
O4    O     O_R   0.335850 0.861690 0.002120 -0.555768
O5    O     O_R   0.717530 0.306070 0.861970 -0.621287
O6    O     O_R   0.282470 0.693930 0.138030 -0.582830
O7    O     O_R   0.782470 0.806070 0.138030 -0.624032
O8    O     O_R   0.217530 0.193930 0.861970 -0.578929
C1    C     C_R   0.699162 0.474735 0.827452 0.955639
C2    C     C_R   0.298098 0.524496 0.172412 0.980210
C3    C     C_R   0.800953 0.974343 0.172078 0.958045
C4    C     C_R   0.202009 0.024437 0.827245 0.985184
O9    O     O_R   0.838690 0.308440 0.993250 -0.564196
O10   O     O_R   0.161310 0.691560 0.006750 -0.618660
O11   O     O_R   0.661310 0.808440 0.006750 -0.563524
O12   O     O_R   0.338690 0.191560 0.993250 -0.619493
O13   O     O_R   0.786170 0.140510 0.130090 -0.563012
O14   O     O_R   0.213830 0.859490 0.869910 -0.628027
O15   O     O_R   0.713830 0.640510 0.869910 -0.561540
O16   O     O_R   0.286170 0.359490 0.130090 -0.631535
C5    C     C_R   0.864897 0.475554 0.998716 0.988406
C6    C     C_R   0.135981 0.522032 0.004018 0.921469
C7    C     C_R   0.635382 0.976213 0.003101 0.988974
C8    C     C_R   0.364345 0.022233 0.998406 0.922821
O17   O     O_3   0.732630 0.472520 0.044740 -0.310961
O18   O     O_3   0.267370 0.527480 0.955260 -0.319138
O19   O     O_3   0.767370 0.972520 0.955260 -0.310336
O20   O     O_3   0.232630 0.027480 0.044740 -0.321028
V1    V     V_3+5 0.753220 0.196740 0.991700 1.165330
V2    V     V_3+5 0.246780 0.803260 0.008300 1.147095
V3    V     V_3+5 0.746780 0.696740 0.008300 1.164510
V4    V     V_3+5 0.253220 0.303260 0.991700 1.145883
C9    C     C_R   0.539591 0.933463 0.829956 0.317576
C10   C     C_R   0.455101 0.985931 0.174219 0.294973
C11   C     C_R   0.960550 0.426577 0.172966 0.313683
C12   C     C_R   0.045640 0.479637 0.829226 0.291673
C13   C     C_R   0.493811 0.910537 0.748748 0.293256
C14   C     C_R   0.499872 0.988970 0.256737 0.327474
C15   C     C_R   0.006074 0.397794 0.254300 0.293265
C16   C     C_R   0.000933 0.480236 0.746749 0.325597
C17   C     C_R   0.429813 0.928225 0.752437 0.232278
C18   C     C_R   0.563915 0.998844 0.254351 0.232264
C19   C     C_R   0.070541 0.405574 0.250115 0.247410
C20   C     C_R   0.937051 0.490960 0.749177 0.237591
C21   C     C_R   0.412266 0.979893 0.834211 -0.372762
C22   C     C_R   0.584735 0.999930 0.170850 -0.366926
C23   C     C_R   0.088504 0.459538 0.168662 -0.380634
C24   C     C_R   0.916099 0.496169 0.832347 -0.367937
C25   C     C_R   0.455751 0.987638 0.917829 0.023779
C26   C     C_R   0.542283 0.994182 0.086178 0.038520
C27   C     C_R   0.044879 0.478844 0.085490 0.018711
C28   C     C_R   0.958420 0.491672 0.917054 0.037351
C29   C     C_R   0.521205 0.966620 0.916852 -0.084382
C30   C     C_R   0.476056 0.995282 0.087120 -0.109575
C31   C     C_R   0.979231 0.461027 0.086302 -0.080980
C32   C     C_R   0.024615 0.492322 0.916265 -0.104788
C33   C     C_R   0.433282 0.006588 0.001523 -0.129887
C34   C     C_R   0.565444 0.980723 0.001776 -0.178960
C35   C     C_R   0.067218 0.504734 0.001827 -0.130233
C36   C     C_R   0.935057 0.478608 0.001180 -0.178834
H1    H     H_    0.362364 0.996633 0.832281 0.167226
H2    H     H_    0.635057 0.002177 0.173628 0.161174
H3    H     H_    0.138478 0.470605 0.170001 0.170052
H4    H     H_    0.865732 0.498760 0.829150 0.161685
C37   C     C_R   0.171932 0.022599 0.726546 -0.321616
C38   C     C_R   0.834820 0.975873 0.273028 -0.349701
C39   C     C_R   0.327258 0.524340 0.272983 -0.324048
C40   C     C_R   0.664797 0.477297 0.726026 -0.354272
C41   C     C_R   0.191799 0.040406 0.569282 0.478220
C42   C     C_R   0.819404 0.973846 0.433269 0.441905
C43   C     C_R   0.304575 0.549561 0.428812 0.491507
C44   C     C_R   0.678714 0.479480 0.564307 0.447674
C45   C     C_R   0.212438 0.047566 0.664890 -0.316878
C46   C     C_R   0.796023 0.988457 0.338286 -0.331881
C47   C     C_R   0.285639 0.547500 0.332629 -0.329869
C48   C     C_R   0.703093 0.486725 0.659654 -0.326642
C49   C     C_R   0.105521 0.006449 0.691396 0.485680
C50   C     C_R   0.901949 0.947445 0.305852 0.515173
C51   C     C_R   0.393417 0.517436 0.309214 0.492495
C52   C     C_R   0.597287 0.454093 0.693755 0.514128
C53   C     C_R   0.082220 0.008824 0.591068 -0.071502
C54   C     C_R   0.928530 0.955974 0.405280 -0.047260
C55   C     C_R   0.415575 0.524877 0.409787 -0.081606
C56   C     C_R   0.569898 0.467828 0.594668 -0.045214
C57   C     C_R   0.127190 0.009108 0.532068 -0.106288
C58   C     C_R   0.884959 0.973206 0.466358 -0.121629
C59   C     C_R   0.369975 0.524570 0.468285 -0.099610
C60   C     C_R   0.612948 0.486890 0.532907 -0.118656
C61   C     C_R   0.016040 0.998142 0.546403 0.072682
C62   C     C_R   0.995878 0.961343 0.448337 0.128694
C63   C     C_R   0.481646 0.515510 0.454741 0.074321
C64   C     C_R   0.502235 0.476451 0.552406 0.131920
C65   C     C_R   0.044187 0.940545 0.397969 -0.215471
C66   C     C_R   0.969263 0.028601 0.597274 -0.194617
C67   C     C_R   0.453987 0.454452 0.602627 -0.234054
C68   C     C_R   0.527895 0.550696 0.404080 -0.184070
C69   C     C_R   0.106953 0.970876 0.437424 0.032550
C70   C     C_R   0.906757 0.009378 0.560142 -0.014245
C71   C     C_R   0.390839 0.482539 0.562954 0.030325
C72   C     C_R   0.590394 0.531949 0.440311 -0.029779
H5    H     H_    0.139524 0.959313 0.391069 0.209817
H6    H     H_    0.875377 0.039384 0.606636 0.215560
H7    H     H_    0.358936 0.453894 0.608499 0.214968
H8    H     H_    0.620831 0.571108 0.394269 0.218422
H9    H     H_    0.746071 0.004666 0.313937 0.230130
H10   H     H_    0.261961 0.070385 0.692139 0.205449
H11   H     H_    0.753360 0.495356 0.683336 0.232034
H12   H     H_    0.236293 0.563587 0.302098 0.208306
H13   H     H_    0.035974 0.900657 0.327040 0.183647
H14   H     H_    0.979010 0.075610 0.666502 0.191928
H15   H     H_    0.462578 0.410768 0.673127 0.186208
H16   H     H_    0.517530 0.603985 0.336120 0.191160
N1    N     N_R   0.608946 0.994248 0.337936 0.252834
O21   O     O_R   0.652289 0.868657 0.350396 -0.420893
O22   O     O_R   0.612776 0.132054 0.394153 -0.382299
N2    N     N_R   0.381497 0.860211 0.680709 0.252601
O23   O     O_R   0.335621 0.767551 0.703553 -0.395288
O24   O     O_R   0.375767 0.920034 0.596711 -0.404084
N3    N     N_R   0.892246 0.481077 0.665962 0.252650
O25   O     O_R   0.851145 0.349826 0.654330 -0.416086
O26   O     O_R   0.886173 0.619170 0.609598 -0.386088
N4    N     N_R   0.118514 0.334356 0.322508 0.257831
O27   O     O_R   0.168135 0.254893 0.302588 -0.419991
O28   O     O_R   0.115344 0.357027 0.408551 -0.417683
O29   O     O_3   0.601140 0.887957 0.824620 -0.651339
C73   C     C_3   0.626229 0.031611 0.780094 0.310808
H17   H     H_    0.632308 0.145635 0.828013 0.169893
H18   H     H_    0.593733 0.081596 0.719152 0.130379
C74   C     C_3   0.686793 0.978725 0.747190 -0.708589
H19   H     H_    0.685245 0.836748 0.722268 0.248281
H20   H     H_    0.693898 0.070761 0.690095 0.219601
H21   H     H_    0.728686 0.991578 0.801340 0.270693
O30   O     O_3   0.396330 0.913883 0.181261 -0.655153
C75   C     C_3   0.356757 0.050939 0.205544 0.301910
H22   H     H_    0.329189 0.094028 0.141693 0.187731
H23   H     H_    0.382072 0.167276 0.240352 0.133542
C76   C     C_3   0.308652 0.987270 0.262493 -0.706966
H24   H     H_    0.328359 0.878976 0.311329 0.255493
H25   H     H_    0.293476 0.104692 0.300535 0.238268
H26   H     H_    0.263710 0.943615 0.219432 0.258322
O31   O     O_3   0.898696 0.383441 0.177380 -0.651667
C77   C     C_3   0.873310 0.528497 0.220726 0.307897
H27   H     H_    0.867479 0.641685 0.172150 0.170720
H28   H     H_    0.905474 0.577815 0.282058 0.128792
C78   C     C_3   0.812145 0.478336 0.252513 -0.704808
H29   H     H_    0.812436 0.335541 0.275877 0.250084
H30   H     H_    0.805310 0.568978 0.310280 0.218447
H31   H     H_    0.770496 0.495895 0.198351 0.269966
O32   O     O_3   0.104858 0.409294 0.822378 -0.649482
C79   C     C_3   0.142760 0.548005 0.795946 0.311703
H32   H     H_    0.168470 0.599638 0.858960 0.186690
H33   H     H_    0.115944 0.657165 0.757205 0.133716
C80   C     C_3   0.192553 0.487580 0.741232 -0.718915
H34   H     H_    0.174615 0.379007 0.691771 0.252339
H35   H     H_    0.206654 0.607095 0.703805 0.241080
H36   H     H_    0.237642 0.447723 0.785331 0.262205
O33   O     O_3   0.512489 0.814378 0.677608 -0.639385
C81   C     C_3   0.512020 0.923752 0.599278 0.260486
H37   H     H_    0.501194 0.070643 0.609598 0.080323
H38   H     H_    0.476336 0.863644 0.544321 0.193252
C82   C     C_3   0.575029 0.910163 0.567132 -0.857649
H39   H     H_    0.606647 0.812548 0.609471 0.272860
H40   H     H_    0.568217 0.862559 0.494973 0.274851
H41   H     H_    0.598399 0.045600 0.569872 0.245605
O34   O     O_3   0.481039 0.941705 0.338403 -0.636247
C83   C     C_3   0.474798 0.100348 0.390359 0.202543
H42   H     H_    0.476721 0.226140 0.352032 0.168148
H43   H     H_    0.514883 0.115420 0.447080 0.151826
C84   C     C_3   0.415036 0.093520 0.430345 -0.819719
H44   H     H_    0.423147 0.151514 0.500341 0.233345
H45   H     H_    0.378315 0.180675 0.390941 0.236079
H46   H     H_    0.397941 0.951502 0.433217 0.294537
O35   O     O_3   0.986036 0.302005 0.324706 -0.633323
C85   C     C_3   0.984211 0.411755 0.402462 0.268010
H47   H     H_    0.995161 0.558489 0.392581 0.074255
H48   H     H_    0.018434 0.351509 0.459352 0.199383
C86   C     C_3   0.920654 0.397649 0.432760 -0.861151
H49   H     H_    0.889623 0.301244 0.389101 0.273857
H50   H     H_    0.926631 0.347574 0.504644 0.275669
H51   H     H_    0.897426 0.533554 0.430721 0.248832
O36   O     O_3   0.019747 0.428463 0.665627 -0.633137
C87   C     C_3   0.025091 0.584357 0.611272 0.190711
H52   H     H_    0.024202 0.711995 0.648782 0.164468
H53   H     H_    0.984174 0.596761 0.555423 0.153453
C88   C     C_3   0.084354 0.574447 0.569833 -0.816577
H54   H     H_    0.075753 0.629138 0.498982 0.236612
H55   H     H_    0.121335 0.662864 0.607276 0.236682
H56   H     H_    0.101571 0.431840 0.569042 0.295682
O37   O     O_3   0.937266 0.870078 0.246144 -0.726183
C89   C     C_3   0.949481 0.994618 0.179125 0.241219
H57   H     H_    0.988395 0.080991 0.210851 0.175383
H58   H     H_    0.907670 0.072060 0.145519 0.172777
C90   C     C_3   0.975068 0.898773 0.103725 -0.986826
H59   H     H_    0.937414 0.819007 0.060408 0.278436
H60   H     H_    0.992060 0.002990 0.059742 0.239901
H61   H     H_    0.015602 0.812032 0.134804 0.274804
O38   O     O_3   0.068228 0.927008 0.748088 -0.725901
C91   C     C_3   0.056949 0.038302 0.820752 0.274536
H62   H     H_    0.033542 0.160681 0.791300 0.162031
H63   H     H_    0.099556 0.070614 0.872355 0.150566
C92   C     C_3   0.010105 0.946577 0.870412 -0.969732
H64   H     H_    0.035233 0.852878 0.924050 0.263241
H65   H     H_    0.985604 0.052335 0.904572 0.237582
H66   H     H_    0.974128 0.870696 0.820830 0.277016
O39   O     O_3   0.562063 0.376420 0.753269 -0.725636
C93   C     C_3   0.550272 0.500398 0.820793 0.238277
H67   H     H_    0.511982 0.589933 0.789312 0.180145
H68   H     H_    0.592471 0.574800 0.855079 0.173042
C94   C     C_3   0.523935 0.404129 0.895287 -0.983247
H69   H     H_    0.561206 0.322449 0.938792 0.277102
H70   H     H_    0.506709 0.508180 0.939193 0.239613
H71   H     H_    0.483427 0.318898 0.863283 0.274981
O40   O     O_3   0.432126 0.437875 0.254374 -0.724365
C95   C     C_3   0.442698 0.544438 0.179461 0.281919
H72   H     H_    0.467976 0.665625 0.206176 0.155751
H73   H     H_    0.399785 0.579780 0.129104 0.149237
C96   C     C_3   0.487312 0.445486 0.128367 -0.968550
H74   H     H_    0.460266 0.354355 0.075448 0.262184
H75   H     H_    0.512625 0.547119 0.093175 0.236774
H76   H     H_    0.522891 0.366296 0.177242 0.277585
N5    N     N_R   0.237426 0.077355 0.512198 0.279783
O41   O     O_R   0.279935 0.201394 0.538343 -0.394912
O42   O     O_R   0.245970 0.965001 0.447483 -0.376506
N6    N     N_R   0.775919 0.968110 0.496448 0.260928
O43   O     O_R   0.725961 0.069074 0.482500 -0.283188
O44   O     O_R   0.786041 0.865218 0.569759 -0.358172
N7    N     N_R   0.255395 0.580948 0.481756 0.287353
O45   O     O_R   0.198520 0.619341 0.439257 -0.369003
O46   O     O_R   0.266616 0.594650 0.570901 -0.359978
N8    N     N_R   0.721361 0.470499 0.499362 0.266791
O47   O     O_R   0.778273 0.529863 0.522068 -0.277389
O48   O     O_R   0.706053 0.390953 0.419306 -0.355180

loop_
_geom_bond_atom_site_label_1
_geom_bond_atom_site_label_2
_geom_bond_distance
_ccdc_geom_bond_type
C40   C52   1.458499 A    
C14   O34   1.386477 S    
C71   H7    1.072258 S    
C25   C29   1.428042 A    
C54   C62   1.475477 A    
O1    C5    1.349039 A    
C89   H57   1.085838 S    
C29   C34   1.426950 A    
O19   V1    1.768117 S    
C9    C29   1.432464 A    
O13   V1    2.068280 S    
C84   H44   1.098053 S    
C16   O36   1.387141 S    
O3    C7    1.348539 A    
C72   H8    1.071793 S    
C15   O35   1.388519 S    
O15   V3    2.069347 S    
N6    O43   1.291115 A    
C77   H28   1.091980 S    
C75   C76   1.530630 S    
C82   H39   1.095476 S    
C45   H10   1.084070 S    
C39   C47   1.384215 A    
C25   C33   1.416562 A    
C27   C31   1.430180 A    
O35   C85   1.405439 S    
C96   H76   1.109882 S    
O7    C3    1.359916 A    
C76   H25   1.107923 S    
O5    C1    1.361833 A    
O34   C83   1.409630 S    
O29   C73   1.402201 S    
C44   N8    1.453016 S    
C22   H2    1.082755 S    
O9    V1    2.020852 S    
C14   C18   1.396019 A    
C23   H3    1.081779 S    
O4    C8    1.332694 A    
C93   H68   1.100847 S    
C12   O32   1.401641 S    
C88   H55   1.094010 S    
C66   C70   1.367007 A    
C67   C71   1.395010 A    
C38   C46   1.395725 A    
O36   C87   1.409824 S    
O1    V3    1.993314 S    
C94   H71   1.106502 S    
C37   C45   1.390693 A    
N2    O23   1.299969 A    
O2    V4    1.993316 S    
C18   C22   1.389244 A    
C13   O33   1.384726 S    
C61   C66   1.388216 A    
O3    V1    1.995554 S    
C85   H47   1.113991 S    
C12   C16   1.401425 A    
C28   C36   1.429110 A    
C89   C90   1.505355 S    
C44   C60   1.411515 A    
C63   C68   1.383465 A    
C87   H52   1.086161 S    
C1    O15   1.373163 A    
O33   C81   1.402088 S    
C2    O16   1.359903 A    
C8    C33   1.488753 S    
C86   H50   1.104425 S    
C79   C80   1.529078 S    
O2    C6    1.330279 A    
C42   N6    1.446078 S    
C56   C64   1.479418 A    
C41   C45   1.395261 A    
C91   H62   1.075915 S    
O14   V2    2.068280 S    
C49   C53   1.468056 A    
C80   H35   1.106945 S    
C16   C20   1.392590 A    
O5    V1    2.078472 S    
C81   C82   1.530561 S    
C3    C38   1.527578 S    
C52   C56   1.470402 A    
C74   H21   1.091756 S    
C53   C61   1.460336 A    
C90   H61   1.106593 S    
O11   C7    1.343485 A    
C52   O39   1.389640 S    
C47   H12   1.083173 S    
O12   C8    1.350766 A    
C10   C14   1.402820 A    
C31   C36   1.429998 A    
C83   H43   1.089531 S    
C92   H65   1.110009 S    
C77   C78   1.532317 S    
C83   H42   1.083550 S    
O37   C89   1.404948 S    
C50   O37   1.390743 S    
O10   V2    2.020850 S    
C82   H40   1.101828 S    
O16   V4    2.069348 S    
C53   C57   1.424225 A    
C78   H29   1.098027 S    
C59   C71   1.415051 A    
N3    O26   1.296845 A    
O17   V1    2.235698 S    
C38   C50   1.455751 A    
C76   H26   1.103118 S    
C2    C39   1.495662 S    
O7    V3    2.080627 S    
C78   H30   1.110510 S    
C11   C31   1.433959 A    
O8    V4    2.080626 S    
O20   V4    2.237377 S    
C37   C49   1.437382 A    
C5    C36   1.512942 S    
N2    O24   1.295843 A    
C6    C35   1.488875 S    
C95   H72   1.076471 S    
C73   H18   1.091540 S    
C88   H56   1.106346 S    
C23   C27   1.403722 A    
C10   O30   1.400584 S    
C90   H60   1.107985 S    
C96   H74   1.105448 S    
O39   C93   1.404409 S    
O19   V3    2.237377 S    
O11   V3    2.016762 S    
C66   H14   1.059006 S    
C64   C67   1.400720 A    
C9    C13   1.410608 A    
C87   C88   1.524651 S    
C26   C34   1.430715 A    
C11   C15   1.413845 A    
C42   C46   1.398316 A    
N5    O41   1.298415 A    
C12   C32   1.443804 A    
C70   H6    1.075536 S    
C68   H16   1.057421 S    
C50   C54   1.469525 A    
C18   N1    1.417445 S    
N7    O45   1.300134 A    
C19   N4    1.435375 S    
C21   C25   1.401586 A    
O8    C4    1.358261 A    
C86   H51   1.109536 S    
C91   C92   1.516947 S    
C9    O29   1.389511 S    
C94   H69   1.103382 S    
O9    C5    1.343621 A    
C44   C48   1.404285 A    
C26   C30   1.436794 A    
C40   C48   1.399969 A    
C74   H20   1.110586 S    
C80   H36   1.102621 S    
N8    O48   1.300493 A    
C85   C86   1.529751 S    
C60   C72   1.397337 A    
C51   O40   1.396642 S    
C11   O31   1.390367 S    
C43   C59   1.435409 A    
C4    C37   1.502207 S    
O6    V2    2.078474 S    
O18   V2    2.235697 S    
C48   H11   1.079613 S    
C81   H37   1.114457 S    
C92   H66   1.110330 S    
C79   H33   1.081342 S    
O12   V4    2.016764 S    
C73   C74   1.531407 S    
N4    O28   1.293606 A    
C42   C58   1.409909 A    
C65   C69   1.390540 A    
C63   C64   1.450878 A    
C82   H41   1.109784 S    
C41   C57   1.420741 A    
C78   H31   1.091156 S    
C62   C65   1.401735 A    
N1    O21   1.298300 A    
C84   H45   1.093186 S    
C3    O13   1.371284 A    
C89   H58   1.100179 S    
C87   H53   1.091309 S    
N7    O46   1.293415 A    
C93   H67   1.086320 S    
C43   N7    1.453400 S    
O17   V3    1.769304 S    
C56   C60   1.429091 A    
C91   H63   1.103588 S    
C95   C96   1.515890 S    
N6    O44   1.299267 A    
C55   C59   1.429726 A    
O6    C2    1.354605 A    
C15   C19   1.410372 A    
N3    O25   1.298944 A    
C10   C30   1.442648 A    
C75   H22   1.060454 S    
O18   V4    1.769303 S    
O38   C91   1.402520 S    
C96   H75   1.109706 S    
C55   C63   1.458428 A    
C76   H24   1.098224 S    
C22   C26   1.401752 A    
C20   N3    1.412558 S    
C32   C35   1.415765 A    
O10   C6    1.353341 A    
O20   V2    1.768117 S    
C74   H19   1.098878 S    
C95   H73   1.102443 S    
N5    O42   1.297980 A    
C54   C58   1.428548 A    
O32   C79   1.406712 S    
C46   H9    1.078635 S    
C43   C47   1.398214 A    
C81   H38   1.099234 S    
C93   C94   1.505448 S    
C88   H54   1.099700 S    
O30   C75   1.406357 S    
C49   O38   1.395523 S    
C73   H17   1.084119 S    
O40   C95   1.405103 S    
C68   C72   1.362977 A    
C21   H1    1.082094 S    
C94   H70   1.107616 S    
C85   H48   1.098115 S    
C75   H23   1.086796 S    
C7    C34   1.511102 S    
C41   N5    1.440907 S    
C13   C17   1.402860 A    
N8    O47   1.289929 A    
C58   C70   1.397845 A    
C69   H5    1.074910 S    
C1    C40   1.536971 S    
C24   H4    1.082726 S    
C86   H49   1.094929 S    
C51   C55   1.468959 A    
C28   C32   1.435688 A    
C24   C28   1.400358 A    
C27   C35   1.420757 A    
C92   H64   1.105590 S    
C83   C84   1.522069 S    
C90   H59   1.102486 S    
C4    O14   1.359779 A    
N4    O27   1.302011 A    
C17   C21   1.383463 A    
C77   H27   1.084677 S    
C67   H15   1.068314 S    
C84   H46   1.106018 S    
C17   N2    1.427817 S    
N1    O22   1.296727 A    
C61   C62   1.452854 A    
O31   C77   1.401755 S    
C19   C23   1.388113 A    
C39   C51   1.430629 A    
O4    V2    1.995552 S    
C57   C69   1.407943 A    
C20   C24   1.386504 A    
C65   H13   1.066980 S    
C79   H32   1.057377 S    
C80   H34   1.097717 S    
C30   C33   1.417077 A    
