data_mof_unit_64660.cif
_audit_creation_date              2012-12-10T16:56:45-0500
_audit_creation_method            fapswitch 2.2
_symmetry_space_group_name_H-M    P1
_symmetry_Int_Tables_number       1
_space_group_crystal_system       triclinic
_cell_length_a                    21.719192
_cell_length_b                    21.734619
_cell_length_c                    22.130514
_cell_angle_alpha                 118.857573
_cell_angle_beta                  118.911757
_cell_angle_gamma                 91.185173
_cell_volume                      7556.85780656

loop_
_atom_site_label
_atom_site_type_symbol
_atom_type_description
_atom_site_fract_x
_atom_site_fract_y
_atom_site_fract_z
_atom_type_partial_charge
C1    C     C_R   0.498881 0.117134 0.496461 0.834219
C2    C     C_3   0.208183 0.708976 0.917396 0.303000
C3    C     C_3   0.760957 0.208156 0.048223 -0.361672
C4    C     C_3   0.230862 0.792816 0.951740 -0.357737
C5    C     C_3   0.712435 0.159653 0.951210 -0.375390
C6    C     C_3   0.279390 0.841313 0.048752 -0.373625
C7    C     C_1   0.837903 0.337152 0.174841 -0.102736
C8    C     C_1   0.162073 0.662837 0.825159 -0.098141
C9    C     C_1   0.663011 0.162337 0.825177 -0.101929
C10   C     C_1   0.336981 0.837639 0.174822 -0.099947
C11   C     C_1   0.625193 0.124698 0.749742 -0.145779
C12   C     C_R   0.501087 0.882839 0.503468 0.833923
C13   C     C_1   0.374804 0.875285 0.250258 -0.143983
C14   C     C_R   0.536068 0.136512 0.392752 -0.223574
C15   C     C_R   0.465212 0.864154 0.608272 -0.201274
C16   C     C_R   0.580070 0.079917 0.659935 0.815635
C17   C     C_R   0.419930 0.920077 0.340065 0.816545
C18   C     C_R   0.564185 0.150631 0.354123 -0.205510
C19   C     C_R   0.437914 0.850515 0.647774 -0.234662
C20   C     C_R   0.576695 0.220327 0.366859 0.498140
C21   C     C_R   0.425560 0.780957 0.635394 0.437114
C22   C     C_R   0.557739 0.274813 0.415394 -0.234244
C23   C     C_1   0.875550 0.374941 0.250273 -0.157411
C24   C     C_R   0.443716 0.726081 0.586172 -0.214420
C25   C     C_R   0.527623 0.261014 0.453475 0.020462
C26   C     C_R   0.473038 0.739393 0.547209 0.022847
C27   C     C_R   0.521088 0.192668 0.446623 0.029491
C28   C     C_R   0.479533 0.807669 0.553902 0.028566
C29   C     C_R   0.498933 0.182715 0.493122 -0.220321
C30   C     C_R   0.501017 0.817258 0.506773 -0.223331
C31   C     C_R   0.480187 0.238585 0.541439 0.603238
C32   C     C_R   0.519086 0.761084 0.457864 0.603900
C33   C     C_R   0.482774 0.303409 0.543934 -0.270175
C34   C     C_1   0.124434 0.625055 0.749726 -0.152002
C35   C     C_R   0.516470 0.696265 0.455393 -0.269464
C36   C     C_R   0.505245 0.314543 0.499723 -0.162017
C37   C     C_R   0.494703 0.685489 0.500291 -0.166156
C38   C     C_R   0.760002 0.514890 0.454867 -0.173861
C39   C     C_R   0.239997 0.485115 0.545124 -0.169881
C40   C     C_R   0.732749 0.453701 0.597269 -0.154591
C41   C     C_R   0.267241 0.546329 0.402737 -0.155101
C42   C     C_R   0.817854 0.501057 0.507151 -0.092700
C43   C     C_R   0.182134 0.498928 0.492826 -0.092424
C44   C     C_R   0.883047 0.501062 0.503409 0.781353
C45   C     C_3   0.709171 0.208423 0.917419 0.304917
C46   C     C_R   0.116946 0.498930 0.496578 0.783928
C47   C     C_R   0.920300 0.419978 0.340074 0.813483
C48   C     C_R   0.079695 0.580022 0.659926 0.815539
C49   C     C_R   0.619005 0.497671 0.500102 0.770451
C50   C     C_R   0.380996 0.502350 0.499898 0.770367
C51   C     C_R   0.501633 0.381165 0.500003 0.810387
C52   C     C_R   0.498314 0.618843 0.500001 0.809587
C53   C     C_R   0.742610 0.477504 0.552327 0.114338
C54   C     C_R   0.257379 0.522504 0.447663 0.112411
C55   C     C_R   0.869607 0.474439 0.616068 -0.158993
C56   C     C_3   0.290813 0.791552 0.082581 0.301976
C57   C     C_R   0.130345 0.525467 0.383846 -0.158972
C58   C     C_R   0.859312 0.453207 0.661652 -0.129279
C59   C     C_R   0.140628 0.546686 0.338246 -0.129225
C60   C     C_R   0.790668 0.441536 0.651125 -0.118764
C61   C     C_R   0.209295 0.558434 0.348832 -0.118812
C62   C     C_R   0.694854 0.511632 0.451860 -0.155970
C63   C     C_R   0.305145 0.488382 0.548135 -0.155130
C64   C     C_R   0.686043 0.494130 0.500769 -0.082245
C65   C     C_R   0.313956 0.505891 0.499230 -0.083210
C66   C     C_R   0.810634 0.483939 0.558212 0.118767
C67   C     C_3   0.724832 0.317366 0.048401 -0.370593
C68   C     C_R   0.189343 0.516030 0.441750 0.116569
C69   C     C_3   0.676312 0.268867 0.951400 -0.361401
C70   C     C_3   0.328779 0.737691 0.048639 -0.361873
C71   C     C_3   0.789917 0.247871 0.951915 -0.367623
C72   C     C_3   0.213114 0.744534 0.048082 -0.367022
C73   C     C_3   0.838440 0.296372 0.048925 -0.376799
C74   C     C_3   0.164586 0.696039 0.951071 -0.378443
C75   C     C_3   0.280255 0.689199 0.951639 -0.368401
C76   C     C_3   0.791793 0.291007 0.082603 0.307493
Cu1   Cu    Cu3+1 0.438180 0.999990 0.500010 1.008794
Cu2   Cu    Cu3+1 0.561820 0.000010 0.499990 1.007845
Cu3   Cu    Cu3+1 0.000200 0.561800 0.499990 0.988466
Cu4   Cu    Cu3+1 0.999800 0.438200 0.500010 0.981981
Cu5   Cu    Cu3+1 0.541330 0.541310 0.582630 0.983594
Cu6   Cu    Cu3+1 0.458670 0.458690 0.417370 0.986271
F1    F     F_    0.460463 0.231135 0.587815 -0.649035
F2    F     F_    0.538170 0.768251 0.410914 -0.649273
H1    H     H_    0.782486 0.423764 0.685517 0.137817
H2    H     H_    0.312951 0.698295 0.928746 0.178399
H3    H     H_    0.807891 0.187545 0.071481 0.168266
H4    H     H_    0.180124 0.808749 0.928451 0.168559
H5    H     H_    0.525675 0.080986 0.378850 0.173827
H6    H     H_    0.475523 0.919587 0.621906 0.170043
H7    H     H_    0.576832 0.107157 0.314893 0.192368
H8    H     H_    0.425837 0.894280 0.687442 0.175589
H9    H     H_    0.568217 0.328370 0.424311 0.165330
H10   H     H_    0.433272 0.672632 0.577491 0.164063
H11   H     H_    0.680244 0.443398 0.590657 0.138512
H12   H     H_    0.217470 0.576214 0.314442 0.138234
H13   H     H_    0.319765 0.556684 0.409397 0.138801
H14   H     H_    0.466457 0.345096 0.580139 0.175560
H15   H     H_    0.532258 0.654325 0.418698 0.175939
H16   H     H_    0.651427 0.524045 0.412049 0.154380
H17   H     H_    0.348578 0.475976 0.587950 0.154523
H18   H     H_    0.765007 0.527655 0.415428 0.158628
H19   H     H_    0.234999 0.472359 0.584574 0.158870
H20   H     H_    0.924440 0.484300 0.627902 0.143772
H21   H     H_    0.075504 0.515559 0.371985 0.143841
H22   H     H_    0.904738 0.445435 0.705063 0.134902
H23   H     H_    0.736178 0.115863 0.928099 0.167348
H24   H     H_    0.095178 0.554392 0.294783 0.135182
H25   H     H_    0.745318 0.376713 0.071786 0.168265
H26   H     H_    0.265686 0.629270 0.928281 0.168511
H27   H     H_    0.673604 0.305037 0.928423 0.172386
H28   H     H_    0.337406 0.700940 0.071645 0.173373
H29   H     H_    0.815124 0.205746 0.928820 0.167540
H30   H     H_    0.184323 0.781826 0.071150 0.167486
H31   H     H_    0.789356 0.283645 0.928947 0.167057
H32   H     H_    0.219557 0.707910 0.071074 0.167664
H33   H     H_    0.861072 0.355326 0.072327 0.164428
H34   H     H_    0.251847 0.880426 0.071835 0.168570
H35   H     H_    0.147830 0.636236 0.927695 0.165181
H36   H     H_    0.886839 0.277430 0.072202 0.166132
H37   H     H_    0.112599 0.710149 0.927767 0.165781
H38   H     H_    0.655146 0.130835 0.927728 0.169868
H39   H     H_    0.334352 0.875545 0.072235 0.174696
H40   H     H_    0.636230 0.177887 0.226731 0.378357
H41   H     H_    0.442246 0.868030 0.799448 0.340863
H42   H     H_    0.726858 0.202524 0.071113 0.173605
H43   H     H_    0.262632 0.803864 0.928852 0.181900
H44   H     H_    0.618346 0.242112 0.927934 0.173798
H45   H     H_    0.384666 0.769971 0.072109 0.175024
H46   H     H_    0.690054 0.313793 0.071297 0.173772
O1    O     O_R   0.447780 0.090160 0.499990 -0.521846
O2    O     O_R   0.447800 0.909820 0.500020 -0.603899
O3    O     O_R   0.508070 0.060270 0.620570 -0.573465
O4    O     O_R   0.491930 0.939730 0.379430 -0.573107
O5    O     O_R   0.612490 0.060290 0.620560 -0.585823
O6    O     O_R   0.387510 0.939710 0.379440 -0.585812
O7    O     O_R   0.910000 0.552200 0.500000 -0.586240
O8    O     O_R   0.090000 0.447800 0.500000 -0.586878
O9    O     O_R   0.909970 0.447830 0.500020 -0.571843
O10   O     O_R   0.090030 0.552170 0.499980 -0.569287
O11   O     O_R   0.939920 0.491910 0.379430 -0.590519
O12   O     O_R   0.552220 0.909840 0.500010 -0.522525
O13   O     O_R   0.060080 0.508090 0.620570 -0.591469
O14   O     O_R   0.939890 0.387530 0.379440 -0.568624
O15   O     O_R   0.060110 0.612470 0.620560 -0.564489
O16   O     O_R   0.625100 0.534890 0.569750 -0.592789
O17   O     O_R   0.374900 0.465110 0.430250 -0.592246
O18   O     O_2   0.575292 0.281096 0.286558 -0.288224
O19   O     O_2   0.696654 0.289404 0.390761 -0.287918
O20   O     O_3   0.613164 0.161506 0.247992 -0.540347
O21   O     O_2   0.307470 0.710952 0.613614 -0.245246
O22   O     O_2   0.429721 0.722511 0.718929 -0.290234
O23   O     O_R   0.555310 0.465120 0.430190 -0.565728
O24   O     O_3   0.388667 0.840163 0.754349 -0.505031
O25   O     O_R   0.444690 0.534880 0.569810 -0.566482
O26   O     O_R   0.534910 0.444720 0.569790 -0.592494
O27   O     O_R   0.465090 0.555280 0.430210 -0.591971
O28   O     O_R   0.465120 0.374940 0.430230 -0.572349
O29   O     O_R   0.534880 0.625060 0.569770 -0.574409
O30   O     O_R   0.552200 0.090180 0.499980 -0.604313
S1    S     S_3+6 0.616753 0.240480 0.323045 -0.004805
S2    S     S_3+6 0.386903 0.761469 0.680728 0.012931

loop_
_geom_bond_atom_site_label_1
_geom_bond_atom_site_label_2
_ccdc_geom_bond_type
C50   O17   A    
C57   H21   S    
C63   C65   A    
C9    C45   S    
C44   O7    A    
Cu5   O29   S    
C27   C29   A    
C14   C18   A    
C41   C61   A    
C63   H17   S    
Cu5   Cu6   S    
C61   H12   S    
Cu3   O15   S    
C54   C65   A    
Cu1   Cu2   S    
C15   C19   A    
C74   H35   S    
Cu5   O26   S    
Cu1   O3    S    
C40   C60   A    
O18   S1    D    
C49   O23   A    
C35   C37   A    
C24   C26   A    
C38   C42   A    
Cu2   O12   S    
Cu6   O28   S    
C53   C64   A    
Cu4   O8    S    
C57   C59   A    
C54   C68   A    
C58   C60   A    
C72   H30   S    
C33   C36   A    
C31   F1    S    
C71   H29   S    
C73   H36   S    
C33   H14   S    
Cu1   O1    S    
C59   C61   A    
C62   C64   A    
C19   H8    S    
Cu6   O23   S    
C67   H25   S    
C69   H44   S    
C43   C68   A    
Cu4   O14   S    
C22   C25   A    
C31   C33   A    
Cu1   O6    S    
C14   C27   A    
C47   O11   A    
C10   C56   S    
Cu2   O5    S    
C2    C74   S    
C46   O8    A    
O21   S2    D    
C52   O29   A    
Cu3   O10   S    
C49   C64   S    
C42   C44   S    
C6    H39   S    
C35   H15   S    
C16   O3    A    
C50   C65   S    
Cu6   O17   S    
C32   F2    S    
C51   O26   A    
C3    H42   S    
C73   H33   S    
C3    H3    S    
C32   C35   A    
C23   C47   S    
C4    C6    S    
C71   C73   S    
Cu6   O27   S    
C39   C43   A    
C56   C72   S    
C45   C69   S    
C55   H20   S    
C70   H45   S    
C48   O13   A    
C38   C62   A    
C58   H22   S    
Cu1   O2    S    
C2    C4    S    
C14   H5    S    
C53   C66   A    
C24   H10   S    
C9    C11   T    
C11   C16   S    
C75   H2    S    
C50   O25   A    
Cu4   O13   S    
C48   O15   A    
C17   O6    A    
C1    C29   S    
C71   H31   S    
C8    C34   T    
C3    C76   S    
Cu2   O4    S    
C36   C51   S    
C70   H28   S    
C62   H16   S    
C72   C74   S    
Cu3   O7    S    
C20   C22   A    
Cu5   O16   S    
C44   O9    A    
C56   C70   S    
C73   C76   S    
C41   H13   S    
C21   C24   A    
C67   H46   S    
O19   S1    D    
C18   H7    S    
C40   H11   S    
C3    C5    S    
C70   C75   S    
C55   C66   A    
H41   O24   S    
C46   O10   A    
C5    H23   S    
Cu2   O30   S    
C52   O27   A    
C37   C52   S    
O20   S1    S    
H40   O20   S    
C75   H26   S    
C21   S2    S    
C12   O2    A    
C4    H43   S    
C12   C30   S    
O24   S2    S    
C1    O30   A    
C2    C8    S    
C6    C56   S    
C1    O1    A    
C10   C13   T    
C60   H1    S    
C26   C37   A    
C39   H19   S    
C7    C76   S    
C4    H4    S    
C25   C27   A    
Cu4   O9    S    
C39   C63   A    
C72   H32   S    
C51   O28   A    
C26   C28   A    
C59   H24   S    
Cu5   O25   S    
C13   C17   S    
C28   C30   A    
C38   H18   S    
C15   H6    S    
C30   C32   A    
C69   H27   S    
C15   C28   A    
Cu3   O11   S    
C5    C45   S    
C7    C23   T    
C20   S1    S    
C47   O14   A    
C22   H9    S    
C12   O12   A    
C49   O16   A    
C18   C20   A    
C43   C46   S    
C41   C54   A    
C25   C36   A    
Cu3   Cu4   S    
C74   H37   S    
C34   C48   S    
C29   C31   A    
C40   C53   A    
C55   C58   A    
C17   O4    A    
C42   C66   A    
C45   C71   S    
C67   C76   S    
C57   C68   A    
C67   C69   S    
C16   O5    A    
C5    H38   S    
O22   S2    D    
C2    C75   S    
C6    H34   S    
C19   C21   A    
