data_mof_unit_11393.cif
_audit_creation_date              2012-12-11T16:51:06-0500
_audit_creation_method            fapswitch 2.2
_symmetry_space_group_name_H-M    P1
_symmetry_Int_Tables_number       1
_space_group_crystal_system       triclinic
_cell_length_a                    24.707247
_cell_length_b                    17.683198
_cell_length_c                    15.684403
_cell_angle_alpha                 90.096598
_cell_angle_beta                  128.413592
_cell_angle_gamma                 90.103129
_cell_volume                      5369.25732685

loop_
_atom_site_label
_atom_site_type_symbol
_atom_type_description
_atom_site_fract_x
_atom_site_fract_y
_atom_site_fract_z
_atom_type_partial_charge
C1    C     C_R   0.837503 0.883523 0.209515 -0.140631
C2    C     C_R   0.153092 0.867228 0.773649 -0.151460
C3    C     C_R   0.342120 0.372951 0.223331 -0.131252
C4    C     C_R   0.657542 0.376282 0.784991 -0.152918
C5    C     C_R   0.893934 0.120365 0.592522 -0.130050
C6    C     C_R   0.105707 0.121508 0.407467 -0.132895
C7    C     C_R   0.388410 0.609156 0.592371 -0.129483
C8    C     C_R   0.598172 0.633700 0.408843 -0.128707
C9    C     C_R   0.831496 0.147790 0.501420 0.083740
C10   C     C_R   0.166287 0.151759 0.498733 0.075516
C11   C     C_R   0.322465 0.628415 0.501756 0.086974
C12   C     C_R   0.652521 0.671946 0.500963 0.074952
C13   C     C_R   0.867777 0.154265 0.170441 0.157697
C14   C     C_R   0.120673 0.169694 0.807532 0.161529
C15   C     C_R   0.369059 0.658072 0.174838 0.156193
C16   C     C_R   0.628565 0.657716 0.827453 0.158842
C17   C     C_R   0.782997 0.824141 0.601905 0.167654
C18   C     C_R   0.161945 0.725174 0.404761 0.183020
C19   C     C_R   0.292819 0.307007 0.603090 0.156891
C20   C     C_R   0.667391 0.233331 0.403701 0.174591
C21   C     C_R   0.766879 0.847739 0.503947 0.031352
C22   C     C_R   0.185486 0.762301 0.501622 0.031280
C23   C     C_R   0.272274 0.339574 0.506064 0.030376
C24   C     C_R   0.684493 0.262827 0.501033 0.028308
C25   C     C_R   0.700662 0.832642 0.406101 -0.204317
C26   C     C_R   0.240878 0.729902 0.601186 -0.200849
C27   C     C_R   0.206282 0.322596 0.408607 -0.206695
C28   C     C_R   0.742917 0.234090 0.600822 -0.200811
C29   C     C_R   0.170253 0.260874 0.405592 -0.200492
C30   C     C_R   0.791330 0.194228 0.601427 -0.208127
C31   C     C_R   0.659055 0.779023 0.405817 -0.201013
C32   C     C_R   0.282617 0.676774 0.601677 -0.204856
C33   C     C_R   0.200607 0.216691 0.499664 0.040253
C34   C     C_R   0.779108 0.179050 0.502109 0.031314
C35   C     C_R   0.684453 0.740672 0.502605 0.039261
C36   C     C_R   0.268267 0.656334 0.502521 0.026664
C37   C     C_R   0.259045 0.245362 0.598321 0.164063
C38   C     C_R   0.713394 0.190961 0.404332 0.170211
C39   C     C_R   0.742979 0.770098 0.600349 0.155660
C40   C     C_R   0.202487 0.672860 0.405174 0.170637
C41   C     C_3   0.802764 0.734420 0.703079 -0.529354
C42   C     C_3   0.175550 0.694372 0.292120 -0.548478
C43   C     C_3   0.320694 0.212377 0.702145 -0.537727
C44   C     C_3   0.683888 0.213319 0.289995 -0.541052
C45   C     C_R   0.096990 0.865967 0.407548 -0.142512
C46   C     C_R   0.886914 0.894785 0.591404 -0.157060
C47   C     C_R   0.594508 0.363746 0.407968 -0.142088
C48   C     C_R   0.387838 0.394991 0.592317 -0.152936
C49   C     C_3   0.847679 0.793601 0.706528 -0.523877
C50   C     C_3   0.130235 0.752398 0.291776 -0.536394
C51   C     C_3   0.360251 0.280201 0.707735 -0.514840
C52   C     C_3   0.633070 0.262272 0.289535 -0.535568
C53   C     C_2   0.156232 0.780390 0.906410 0.112449
C54   C     C_2   0.817052 0.821472 0.045767 0.121257
C55   C     C_2   0.663138 0.292292 0.923195 0.111720
C56   C     C_2   0.327831 0.292727 0.076962 0.109747
C57   C     C_2   0.224599 0.772646 0.959801 -0.183200
C58   C     C_2   0.749904 0.810860 0.000943 -0.176328
C59   C     C_2   0.727956 0.275788 0.963827 -0.191811
C60   C     C_2   0.260564 0.282145 0.031991 -0.153345
C61   C     C_2   0.830844 0.205838 0.081184 -0.221309
C62   C     C_2   0.151150 0.226027 0.891951 -0.233130
C63   C     C_2   0.331903 0.710459 0.086380 -0.222637
C64   C     C_2   0.656775 0.720663 0.901908 -0.230681
C65   C     C_2   0.762943 0.209058 0.024431 -0.119681
C66   C     C_2   0.209667 0.257115 0.922897 -0.126579
C67   C     C_2   0.263268 0.707635 0.023187 -0.117661
C68   C     C_2   0.707271 0.759209 0.913656 -0.104406
C69   C     C_R   0.174068 0.870551 0.590818 -0.127837
C70   C     C_R   0.814635 0.892248 0.409567 -0.123625
C71   C     C_R   0.670638 0.367258 0.591445 -0.125816
C72   C     C_R   0.314852 0.392941 0.410310 -0.127721
C73   C     C_R   0.060722 0.871136 0.771142 -0.140152
C74   C     C_R   0.926717 0.887709 0.204724 -0.141437
C75   C     C_R   0.566221 0.381322 0.784367 -0.144082
C76   C     C_R   0.430338 0.375765 0.215572 -0.153449
C77   C     C_R   0.859675 0.860881 0.150458 0.085854
C78   C     C_R   0.122803 0.835092 0.817474 0.102217
C79   C     C_R   0.366920 0.341610 0.172535 0.076297
C80   C     C_R   0.629801 0.348111 0.835011 0.112910
C81   C     C_R   0.154569 0.831220 0.499374 0.079151
C82   C     C_R   0.821279 0.874840 0.501332 0.082031
C83   C     C_R   0.650105 0.327442 0.499831 0.083290
C84   C     C_R   0.322560 0.375055 0.502585 0.086181
C85   C     C_R   0.820188 0.119472 0.409172 -0.144557
C86   C     C_R   0.179602 0.120549 0.590599 -0.143790
C87   C     C_R   0.314656 0.606930 0.410079 -0.147839
C88   C     C_R   0.669973 0.634323 0.592047 -0.139455
C89   C     C_R   0.932058 0.124074 0.217559 -0.154219
C90   C     C_R   0.060968 0.131426 0.768969 -0.148625
C91   C     C_R   0.432233 0.625741 0.218906 -0.153301
C92   C     C_R   0.564861 0.625490 0.778967 -0.147487
C93   C     C_R   0.151950 0.133942 0.769105 -0.128250
C94   C     C_R   0.842072 0.124666 0.220514 -0.123812
C95   C     C_R   0.658462 0.622782 0.786211 -0.136521
C96   C     C_R   0.343175 0.627390 0.224078 -0.125800
H1    H     H_    0.787365 0.879413 0.189892 0.085134
H2    H     H_    0.202380 0.854138 0.793486 0.088534
H3    H     H_    0.292958 0.366890 0.206688 0.084196
H4    H     H_    0.707742 0.367574 0.806531 0.084729
H5    H     H_    0.120979 0.246210 0.328813 0.124946
H6    H     H_    0.839263 0.181842 0.680123 0.125534
H7    H     H_    0.610914 0.762735 0.328485 0.124457
H8    H     H_    0.329433 0.659719 0.680079 0.124711
H9    H     H_    0.796222 0.742553 0.765901 0.207458
H10   H     H_    0.213704 0.721507 0.285150 0.201292
H11   H     H_    0.311895 0.216156 0.762370 0.203507
H12   H     H_    0.718944 0.247446 0.282401 0.203485
H13   H     H_    0.816152 0.675748 0.696167 0.206638
H14   H     H_    0.144818 0.647657 0.232664 0.196959
H15   H     H_    0.341103 0.157317 0.698423 0.208480
H16   H     H_    0.658466 0.163732 0.232989 0.189496
H17   H     H_    0.871493 0.832738 0.777271 0.185084
H18   H     H_    0.143004 0.811709 0.284111 0.200372
H19   H     H_    0.378400 0.318106 0.777729 0.189245
H20   H     H_    0.640821 0.323859 0.282782 0.202001
H21   H     H_    0.885516 0.769295 0.697246 0.199729
H22   H     H_    0.074367 0.738092 0.233298 0.201440
H23   H     H_    0.400953 0.263840 0.701187 0.202890
H24   H     H_    0.578754 0.241090 0.231172 0.195875
H25   H     H_    0.734381 0.164777 0.029080 0.127331
H26   H     H_    0.221303 0.259494 0.868421 0.139669
H27   H     H_    0.236485 0.658271 0.022881 0.125272
H28   H     H_    0.721099 0.748040 0.862654 0.137000
H29   H     H_    0.254210 0.815441 0.954526 0.122056
H30   H     H_    0.725939 0.834286 0.034084 0.117308
H31   H     H_    0.757950 0.312638 0.952544 0.122897
H32   H     H_    0.239771 0.295761 0.073947 0.114802
H33   H     H_    0.859317 0.247073 0.071711 0.130171
H34   H     H_    0.131017 0.233071 0.936116 0.132740
H35   H     H_    0.359701 0.756007 0.081732 0.130927
H36   H     H_    0.635035 0.736414 0.941830 0.131891
H37   H     H_    0.069021 0.852007 0.323029 0.106744
H38   H     H_    0.905103 0.901502 0.673533 0.099645
H39   H     H_    0.567688 0.350290 0.323696 0.104348
H40   H     H_    0.407098 0.399874 0.675442 0.099016
H41   H     H_    0.219970 0.863957 0.673795 0.085676
H42   H     H_    0.768120 0.893532 0.326158 0.082572
H43   H     H_    0.715676 0.360064 0.675002 0.087035
H44   H     H_    0.268125 0.393117 0.327001 0.081952
H45   H     H_    0.023803 0.867334 0.785306 0.086191
H46   H     H_    0.956503 0.891019 0.176011 0.081763
H47   H     H_    0.532533 0.384524 0.805082 0.082432
H48   H     H_    0.458307 0.372508 0.183777 0.086268
H49   H     H_    0.773198 0.118360 0.326548 0.099707
H50   H     H_    0.224114 0.127580 0.674467 0.099404
H51   H     H_    0.267517 0.601414 0.327886 0.099569
H52   H     H_    0.710236 0.647416 0.676358 0.098694
H53   H     H_    0.201739 0.144201 0.791097 0.078780
H54   H     H_    0.792503 0.133380 0.201438 0.084147
H55   H     H_    0.711269 0.625776 0.817396 0.074535
H56   H     H_    0.294020 0.637348 0.206307 0.089691
H57   H     H_    0.913468 0.120635 0.675761 0.082720
H58   H     H_    0.082907 0.129236 0.323047 0.086613
H59   H     H_    0.408651 0.607739 0.676207 0.082212
H60   H     H_    0.574844 0.644787 0.325010 0.087409
H61   H     H_    0.683246 0.854019 0.328172 0.123958
H62   H     H_    0.256715 0.750026 0.679229 0.126357
H63   H     H_    0.185194 0.351025 0.332803 0.124190
H64   H     H_    0.755904 0.249307 0.679030 0.126144
N1    N     N_R   0.888400 0.921830 0.294620 -0.039698
N2    N     N_R   0.111600 0.921830 0.705380 -0.039446
N3    N     N_R   0.388400 0.421830 0.294620 -0.040116
N4    N     N_R   0.611600 0.421830 0.705380 -0.038885
N5    N     N_R   0.079940 0.922160 0.443410 -0.041239
N6    N     N_R   0.920060 0.922160 0.556590 -0.038823
N7    N     N_R   0.579940 0.422160 0.443410 -0.041841
N8    N     N_R   0.420060 0.422160 0.556590 -0.038838
N9    N     N_R   0.125650 0.922400 0.556620 -0.039067
N10   N     N_R   0.874350 0.922400 0.443380 -0.039088
N11   N     N_R   0.625650 0.422400 0.556620 -0.041306
N12   N     N_R   0.374350 0.422400 0.443380 -0.039033
N13   N     N_R   0.054230 0.922730 0.705400 -0.041995
N14   N     N_R   0.945770 0.922730 0.294600 -0.039357
N15   N     N_R   0.554230 0.422730 0.705400 -0.040591
N16   N     N_R   0.445770 0.422730 0.294600 -0.036714
N17   N     N_R   0.873790 0.077030 0.443380 -0.040027
N18   N     N_R   0.126210 0.077030 0.556620 -0.039429
N19   N     N_R   0.373790 0.577030 0.443380 -0.039191
N20   N     N_R   0.626210 0.577030 0.556620 -0.040685
N21   N     N_R   0.945200 0.076700 0.294600 -0.041423
N22   N     N_R   0.054800 0.076700 0.705400 -0.043174
N23   N     N_R   0.445200 0.576700 0.294600 -0.041437
N24   N     N_R   0.554800 0.576700 0.705400 -0.041796
N25   N     N_R   0.111030 0.077600 0.705380 -0.044521
N26   N     N_R   0.888970 0.077600 0.294620 -0.044698
N27   N     N_R   0.611030 0.577600 0.705380 -0.042034
N28   N     N_R   0.388970 0.577600 0.294620 -0.045482
N29   N     N_R   0.919490 0.077280 0.556590 -0.039144
N30   N     N_R   0.080510 0.077280 0.443410 -0.039232
N31   N     N_R   0.419490 0.577280 0.556590 -0.039023
N32   N     N_R   0.580510 0.577280 0.443410 -0.040894
Ni1   Ni    Ni4+2 0.882160 0.999430 0.370180 0.205750
Ni2   Ni    Ni4+2 0.117840 0.999430 0.629820 0.212620
Ni3   Ni    Ni4+2 0.382160 0.499430 0.370180 0.205578
Ni4   Ni    Ni4+2 0.617840 0.499430 0.629820 0.211592
Ni5   Ni    Ni4+2 0.012460 0.999430 0.370180 0.210844
Ni6   Ni    Ni4+2 0.987540 0.999430 0.629820 0.205898
Ni7   Ni    Ni4+2 0.512460 0.499430 0.370180 0.212569
Ni8   Ni    Ni4+2 0.487540 0.499430 0.629820 0.205742
C97   C     C_3   0.116486 0.732737 0.933388 -0.383689
C98   C     C_3   0.064200 0.778453 0.936074 -0.261587
C99   C     C_3   0.056461 0.748693 0.018831 -0.972361
H65   H     H_    0.035871 0.688968 0.997601 0.278915
H66   H     H_    0.107879 0.751230 0.101126 0.286866
H67   H     H_    0.021179 0.787178 0.020167 0.255618
H68   H     H_    0.081417 0.838835 0.959172 0.202357
H69   H     H_    0.011746 0.773493 0.854859 0.194213
H70   H     H_    0.089392 0.684946 0.873540 0.167531
H71   H     H_    0.154041 0.707510 0.016272 0.193110
C100  C     C_3   0.848169 0.798605 0.989578 -0.406175
C101  C     C_3   0.853481 0.712901 0.975793 -0.220992
C102  C     C_3   0.909132 0.696844 0.963929 -0.994195
H72   H     H_    0.911589 0.743729 0.919206 0.286633
H73   H     H_    0.959958 0.691838 0.045571 0.271171
H74   H     H_    0.897172 0.644367 0.916147 0.261325
H75   H     H_    0.863177 0.679017 0.044026 0.205790
H76   H     H_    0.805499 0.690673 0.899683 0.167704
H77   H     H_    0.818540 0.828093 0.908953 0.164634
H78   H     H_    0.902025 0.821459 0.036454 0.185453
C103  C     C_3   0.627330 0.248189 0.960478 -0.396754
C104  C     C_3   0.562276 0.283443 0.935442 -0.276994
C105  C     C_3   0.538491 0.244110 0.992652 -0.977315
H79   H     H_    0.520734 0.185747 0.960904 0.276283
H80   H     H_    0.580764 0.242801 0.080909 0.289159
H81   H     H_    0.495237 0.277258 0.978278 0.252238
H82   H     H_    0.572794 0.343381 0.963118 0.204038
H83   H     H_    0.519054 0.277452 0.847245 0.205033
H84   H     H_    0.614323 0.190493 0.924697 0.181977
H85   H     H_    0.665173 0.242816 0.050542 0.194754
C106  C     C_3   0.364140 0.266596 0.030840 -0.386790
C107  C     C_3   0.338553 0.192494 0.964584 -0.240218
C108  C     C_3   0.391961 0.155079 0.959985 -0.989857
H86   H     H_    0.411275 0.196920 0.931742 0.281052
H87   H     H_    0.435766 0.132884 0.040604 0.276574
H88   H     H_    0.367045 0.108407 0.899087 0.253456
H89   H     H_    0.319449 0.151349 0.994348 0.214509
H90   H     H_    0.296777 0.206115 0.879339 0.171420
H91   H     H_    0.363307 0.314161 0.982167 0.161323
H92   H     H_    0.420106 0.257303 0.101864 0.189854
H93   H     H_    0.963363 0.131783 0.192027 0.092250
H94   H     H_    0.027948 0.139891 0.790857 0.092353
H95   H     H_    0.462209 0.632872 0.190950 0.092208
H96   H     H_    0.529866 0.635301 0.797094 0.093638

loop_
_geom_bond_atom_site_label_1
_geom_bond_atom_site_label_2
_ccdc_geom_bond_type
N29   Ni6   S    
C25   C31   A    
C49   H17   S    
C99   H65   S    
C26   C32   A    
C55   C80   S    
C91   N23   A    
N27   Ni4   S    
C27   C29   A    
C1    C77   A    
C97   C98   S    
C96   N28   A    
N26   Ni1   S    
C93   H53   S    
C105  H79   S    
N22   Ni6   S    
C76   C79   A    
C28   H64   S    
N25   Ni2   S    
N21   Ni5   S    
C2    N2    A    
N5    N9    A    
C105  H81   S    
C95   N27   A    
C6    N30   A    
C39   C41   S    
N2    N13   A    
C73   H45   S    
C102  H72   S    
C71   N11   A    
C38   C44   S    
C100  H78   S    
C99   H66   S    
C56   C79   S    
C87   H51   S    
C19   C51   S    
C105  H80   S    
C72   N12   A    
C11   C36   S    
N19   N31   A    
C24   C83   S    
C85   H49   S    
C74   N14   A    
C55   C59   D    
C57   H29   S    
N18   N30   A    
C94   N26   A    
C101  H75   S    
C70   N10   A    
C27   H63   S    
C14   C62   S    
C29   C33   A    
C86   N18   A    
C20   C38   A    
N4    N15   A    
C106  H91   S    
C17   C39   A    
N32   Ni7   S    
C41   C49   S    
C18   C40   A    
C14   C90   A    
C19   C37   A    
C9    C85   A    
C46   C82   A    
C49   H21   S    
C64   H36   S    
N28   Ni3   S    
C11   C87   A    
N24   Ni8   S    
C74   C77   A    
C103  H85   S    
C51   H23   S    
C73   C78   A    
C66   H26   S    
C65   H25   S    
N8    Ni8   S    
C108  H86   S    
C14   C93   A    
N20   Ni4   S    
C3    N3    A    
C55   C103  S    
C54   C77   S    
C47   H39   S    
C44   C52   S    
C7    H59   S    
C44   H12   S    
C32   H8    S    
C74   H46   S    
C3    C79   A    
C98   H69   S    
C107  H90   S    
C7    N31   A    
C43   H15   S    
C57   C67   S    
C70   C82   A    
N3    N16   A    
C86   H50   S    
C97   H70   S    
C44   H16   S    
C58   H30   S    
C88   N20   A    
C71   C83   A    
C23   C27   A    
C52   H20   S    
C69   H41   S    
C99   H67   S    
C63   C67   D    
C41   H9    S    
N17   N29   A    
C98   C99   S    
C30   C34   A    
C75   N15   A    
C22   C81   S    
C90   N22   A    
C36   C40   A    
C76   N16   A    
C89   N21   A    
N31   Ni8   S    
N20   N32   A    
C1    H1    S    
C15   C96   A    
C62   C66   D    
C19   C23   A    
C34   C38   A    
C71   H43   S    
C23   C84   S    
C43   H11   S    
C15   C91   A    
N19   Ni3   S    
N23   Ni7   S    
N5    Ni5   S    
C48   C84   A    
C56   C106  S    
C106  H92   S    
C50   H18   S    
N22   N25   A    
C31   H7    S    
C37   C43   S    
C35   C39   A    
C17   C21   A    
N6    Ni6   S    
C5    C9    A    
C103  C104  S    
C2    C78   A    
C3    H3    S    
C46   H38   S    
C47   N7    A    
C7    C11   A    
C100  C101  S    
C48   N8    A    
N3    Ni3   S    
C8    C12   A    
C12   C88   A    
C68   H28   S    
N2    Ni2   S    
N4    Ni4   S    
C88   H52   S    
C29   H5    S    
C69   N9    A    
C21   C82   S    
C12   C35   S    
C108  H87   S    
C72   C84   A    
C75   H47   S    
C30   H6    S    
C42   C50   S    
C60   C66   S    
C52   H24   S    
C58   C68   S    
C54   C100  S    
C87   N19   A    
C91   H95   S    
C70   H42   S    
C63   H35   S    
C50   H22   S    
C4    H4    S    
C25   H61   S    
C107  H89   S    
N8    N12   A    
C89   H93   S    
C95   H55   S    
N7    Ni7   S    
N16   Ni7   S    
C17   C49   S    
C64   C68   D    
C97   H71   S    
C18   C50   S    
C33   C37   A    
C54   C58   D    
C102  H74   S    
C21   C25   A    
C10   C86   A    
C16   C95   A    
C53   C57   D    
C46   N6    A    
C13   C89   A    
N13   Ni6   S    
C18   C22   A    
C48   H40   S    
C4    C80   A    
C45   C81   A    
C92   N24   A    
C24   C28   A    
C60   H32   S    
N11   Ni4   S    
C76   H48   S    
C67   H27   S    
C6    C10   A    
N10   Ni1   S    
N7    N11   A    
N21   N26   A    
C32   C36   A    
C59   H31   S    
C16   C92   A    
N9    Ni2   S    
C61   H33   S    
C94   H54   S    
C100  H77   S    
N17   Ni1   S    
C45   H37   S    
C62   H34   S    
N24   N27   A    
C51   H19   S    
C13   C94   A    
C98   H68   S    
C90   H94   S    
C53   C78   S    
C42   H14   S    
C102  H73   S    
C5    N29   A    
C28   C30   A    
C20   C52   S    
N23   N28   A    
C59   C65   S    
N1    N14   A    
C6    H58   S    
C43   C51   S    
C9    C34   S    
C101  H76   S    
C104  H82   S    
C8    N32   A    
C92   H96   S    
C5    H57   S    
C40   C42   S    
C107  C108  S    
N6    N10   A    
C26   H62   S    
C10   C33   S    
C31   C35   A    
C4    N4    A    
C61   C65   D    
C73   N13   A    
C104  C105  S    
C8    H60   S    
C108  H88   S    
C53   C97   S    
N15   Ni8   S    
N14   Ni5   S    
C69   C81   A    
N1    Ni1   S    
N18   Ni2   S    
C1    N1    A    
C47   C83   A    
C42   H10   S    
C56   C60   D    
C72   H44   S    
C75   C80   A    
C13   C61   S    
C101  C102  S    
C2    H2    S    
C85   N17   A    
C104  H83   S    
C22   C26   A    
C103  H84   S    
C106  C107  S    
C15   C63   S    
N12   Ni3   S    
C41   H13   S    
C16   C64   S    
C45   N5    A    
C20   C24   A    
N30   Ni5   S    
C93   N25   A    
C96   H56   S    
