data_mof_unit_50038.cif
_audit_creation_date              2012-12-10T17:33:44-0500
_audit_creation_method            fapswitch 2.2
_symmetry_space_group_name_H-M    P1
_symmetry_Int_Tables_number       1
_space_group_crystal_system       triclinic
_cell_length_a                    11.672277
_cell_length_b                    12.361111
_cell_length_c                    13.151615
_cell_angle_alpha                 116.197127
_cell_angle_beta                  77.697054
_cell_angle_gamma                 101.018041
_cell_volume                      1653.30394576

loop_
_atom_site_label
_atom_site_type_symbol
_atom_type_description
_atom_site_fract_x
_atom_site_fract_y
_atom_site_fract_z
_atom_type_partial_charge
C1    C     C_R   0.508631 0.854897 0.286589 0.778212
C2    C     C_R   0.471784 0.227648 0.835347 -0.161149
C3    C     C_R   0.569304 0.817930 0.083422 -0.225164
C4    C     C_R   0.602592 0.740281 0.970645 -0.223672
C5    C     C_R   0.585826 0.613980 0.935262 0.453327
C6    C     C_R   0.513542 0.564376 0.010825 0.025451
C7    C     C_R   0.476008 0.645484 0.125629 0.033526
C8    C     C_R   0.481308 0.437080 0.979182 0.042742
C9    C     C_R   0.431962 0.393109 0.064302 0.072267
C10   C     C_R   0.389691 0.474970 0.173523 -0.166960
C11   C     C_R   0.402349 0.597559 0.199764 -0.175000
C12   C     C_R   0.715711 0.999277 0.499438 0.802637
C13   C     C_R   0.488834 0.352348 0.865103 -0.181460
C14   C     C_R   0.440349 0.185353 0.921170 -0.154358
C15   C     C_R   0.513559 0.772025 0.163610 -0.110676
C16   C     C_R   0.661035 0.330976 0.304698 0.204705
C17   C     C_R   0.343892 0.759797 0.649363 0.428529
C18   C     C_R   0.306124 0.660770 0.677295 0.230818
C19   C     C_R   0.356131 0.552482 0.612725 0.316897
C20   C     C_R   0.457575 0.548110 0.530345 -0.132380
C21   C     C_R   0.492493 0.651373 0.503214 0.121208
C22   C     C_R   0.522644 0.444062 0.470502 -0.013515
C23   C     C_R   0.484127 0.144848 0.713479 0.852713
C24   C     C_R   0.606982 0.437568 0.373576 0.021826
C25   C     C_R   0.637683 0.538379 0.347751 -0.186363
C26   C     C_R   0.585924 0.644234 0.414468 -0.120479
C27   C     C_R   0.508903 0.346434 0.503143 -0.053234
C28   C     C_R   0.643549 0.237462 0.341293 0.571749
C29   C     C_R   0.284312 0.000147 0.499864 0.838202
C30   C     C_1   0.837318 0.997876 0.498772 -0.185166
C31   C     C_1   0.939885 0.997377 0.498455 0.004441
C32   C     C_1   0.059925 0.998335 0.498467 0.012891
C33   C     C_1   0.162661 0.999599 0.498926 -0.148440
C34   C     C_R   0.417074 0.267209 0.035458 0.399138
Cu1   Cu    Cu3+1 0.526510 0.098270 0.475420 0.994813
Cu2   Cu    Cu3+1 0.473490 0.901730 0.524580 0.984353
H1    H     H_    0.428288 0.088955 0.899319 0.219336
H2    H     H_    0.706264 0.538541 0.277952 0.199197
H3    H     H_    0.454827 0.348683 0.580959 0.220571
H4    H     H_    0.621311 0.718261 0.392178 0.197335
H5    H     H_    0.340310 0.444610 0.237566 0.186103
H6    H     H_    0.498619 0.381924 0.797914 0.228266
H7    H     H_    0.593731 0.914355 0.108963 0.230169
H8    H     H_    0.649003 0.779033 0.911815 0.163531
H9    H     H_    0.352796 0.653320 0.279410 0.178551
N1    N     N_R   0.566700 0.246290 0.438210 -0.250622
N2    N     N_R   0.434010 0.754320 0.561170 -0.262200
O1    O     O_R   0.533340 0.972510 0.318140 -0.514978
O2    O     O_R   0.488570 0.806530 0.359650 -0.619440
O3    O     O_R   0.685190 0.083000 0.479260 -0.573678
O4    O     O_R   0.640410 0.917020 0.520770 -0.588220
O5    O     O_R   0.511430 0.193470 0.640350 -0.600824
O6    O     O_R   0.466660 0.027490 0.681860 -0.529224
O7    O     O_R   0.359590 0.082980 0.479230 -0.573105
O8    O     O_R   0.314810 0.917000 0.520740 -0.531954
Cl1   Cl    Cl    0.738142 0.306958 0.166208 -0.614703
Cl2   Cl    Cl    0.265330 0.887545 0.727393 -0.531332
O9    O     O_3   0.296847 0.449771 0.624712 -0.590927
C35   C     C_3   0.211730 0.395846 0.548795 0.094618
H10   H     H_    0.249083 0.320751 0.470123 0.173932
H11   H     H_    0.184066 0.460294 0.522250 0.130076
C36   C     C_3   0.101735 0.344584 0.607097 -0.278619
H12   H     H_    0.124204 0.270829 0.623440 0.225893
H13   H     H_    0.069967 0.417100 0.690749 0.258434
C37   C     C_3   0.002825 0.295389 0.533550 -0.961739
H14   H     H_    0.978602 0.367652 0.516278 0.253608
H15   H     H_    0.031443 0.220326 0.450913 0.265200
H16   H     H_    0.923583 0.261063 0.579039 0.268999
Cl3   Cl    Cl    0.189956 0.667979 0.790369 -0.562163
Cl4   Cl    Cl    0.368791 0.207990 0.139270 -0.622374
O10   O     O_3   0.635711 0.539529 0.826015 -0.639846
C38   C     C_3   0.759020 0.570197 0.803773 0.065857
H17   H     H_    0.803302 0.489347 0.782775 0.177262
H18   H     H_    0.797933 0.645344 0.877810 0.145501
C39   C     C_3   0.786363 0.600572 0.699521 -0.381223
H19   H     H_    0.762086 0.518487 0.622729 0.221731
H20   H     H_    0.732909 0.672569 0.713474 0.229025
C40   C     C_3   0.916741 0.644215 0.677266 -0.809022
H21   H     H_    0.941178 0.729862 0.750695 0.293428
H22   H     H_    0.934174 0.661370 0.598998 0.252456
H23   H     H_    0.972406 0.574600 0.664453 0.271436
O11   O     O_3   0.689592 0.129050 0.270954 -0.561479
C41   C     C_3   0.811418 0.140565 0.275808 0.065421
H24   H     H_    0.828507 0.173493 0.365250 0.146905
H25   H     H_    0.862615 0.204947 0.240541 0.184753
C42   C     C_3   0.855190 0.015877 0.203441 -0.337890
H26   H     H_    0.806437 0.950379 0.238637 0.211808
H27   H     H_    0.836953 0.983028 0.114343 0.239790
C43   C     C_3   0.987219 0.019770 0.200573 -0.821068
H28   H     H_    0.037791 0.088021 0.169770 0.283508
H29   H     H_    0.016276 0.929391 0.141531 0.277134
H30   H     H_    0.006512 0.042194 0.287025 0.244366

loop_
_geom_bond_atom_site_label_1
_geom_bond_atom_site_label_2
_ccdc_geom_bond_type
C16   C28   A    
C21   C26   A    
C8    C13   A    
C19   C20   A    
C7    C11   A    
C3    H7    S    
C30   C31   T    
C40   H22   S    
C29   O7    A    
C29   C33   S    
Cu2   N2    S    
C18   C19   A    
C2    C13   A    
C36   H13   S    
Cu2   O6    S    
C31   C32   S    
C27   H3    S    
C8    C9    A    
C37   H15   S    
C1    C15   S    
C43   H29   S    
C9    C10   A    
C34   Cl4   S    
C18   Cl3   S    
C7    C15   A    
C35   H10   S    
C16   C24   A    
Cu1   O7    S    
C38   C39   S    
Cu1   O1    S    
C13   H6    S    
C23   O6    A    
C19   O9    S    
C35   H11   S    
C28   O11   S    
C24   C25   A    
C38   H18   S    
C40   H21   S    
C4    C5    A    
C6    C8    A    
C4    H8    S    
C25   C26   A    
Cu1   Cu2   S    
C39   H19   S    
C16   Cl1   S    
C36   H12   S    
C25   H2    S    
C41   H24   S    
C37   H16   S    
C28   N1    A    
Cu1   O3    S    
C17   C18   A    
C43   H30   S    
C39   H20   S    
Cu2   O4    S    
C27   N1    A    
C41   H25   S    
C20   C22   A    
O11   C41   S    
C22   C27   A    
C9    C34   A    
C22   C24   A    
C11   H9    S    
C3    C4    A    
Cu1   O5    S    
C12   O4    A    
C3    C15   A    
C35   C36   S    
C36   C37   S    
C12   C30   S    
C42   H26   S    
C17   N2    A    
C38   H17   S    
C42   C43   S    
C14   C34   A    
C12   O3    A    
C1    O1    A    
C6    C7    A    
C29   O8    A    
C32   C33   T    
O9    C35   S    
O10   C38   S    
C5    O10   S    
Cu2   O8    S    
C14   H1    S    
C40   H23   S    
C26   H4    S    
C23   O5    A    
C5    C6    A    
C42   H27   S    
C2    C14   A    
C39   C40   S    
C10   C11   A    
C41   C42   S    
C20   C21   A    
C37   H14   S    
C2    C23   S    
C21   N2    A    
C43   H28   S    
Cu1   N1    S    
C1    O2    A    
Cu2   O2    S    
C17   Cl2   S    
C10   H5    S    
