data_mof_unit_22514.cif
_audit_creation_date              2013-03-05T16:24:37-0500
_audit_creation_method            fapswitch 2.2
_symmetry_space_group_name_H-M    P1
_symmetry_Int_Tables_number       1
_space_group_crystal_system       triclinic
_cell_length_a                    27.569068
_cell_length_b                    15.6788
_cell_length_c                    14.917603
_cell_angle_alpha                 88.608413
_cell_angle_beta                  89.281397
_cell_angle_gamma                 90.083484
_cell_volume                      6445.71368128

loop_
_atom_site_label
_atom_site_type_symbol
_atom_site_description
_atom_site_fract_x
_atom_site_fract_y
_atom_site_fract_z
_atom_type_partial_charge
O1    O     O_R   0.500000 0.376780 0.574460 -0.616480
O2    O     O_R   0.500000 0.623220 0.425540 -0.614613
O3    O     O_R   0.500010 0.376780 0.425520 -0.608216
O4    O     O_R   0.499990 0.623220 0.574480 -0.614758
C1    C     C_R   0.499698 0.337670 0.501066 0.925695
C2    C     C_R   0.500634 0.662341 0.498960 0.926682
O5    O     O_R   0.428750 0.500010 0.574460 -0.616223
O6    O     O_R   0.571250 0.499990 0.425540 -0.621673
O7    O     O_R   0.428760 0.500020 0.425520 -0.619977
O8    O     O_R   0.571240 0.499980 0.574480 -0.619332
C3    C     C_R   0.405638 0.499011 0.500731 0.871819
C4    C     C_R   0.594332 0.501553 0.499265 0.870785
Zn1   Zn    Zn3+2 0.499990 0.500000 0.599450 0.956262
Zn2   Zn    Zn3+2 0.500010 0.500000 0.400550 0.956304
C5    C     C_R   0.174978 0.413926 0.490431 0.507014
C6    C     C_R   0.824318 0.593912 0.508320 0.508711
O9    O     O_2   0.198922 0.344509 0.461651 -0.579435
O10   O     O_2   0.800231 0.662318 0.539220 -0.576472
N1    N     N_R   0.200217 0.483164 0.518100 -0.355550
N2    N     N_R   0.799238 0.524803 0.480061 -0.356496
C7    C     C_R   0.177453 0.552639 0.552718 0.516779
C8    C     C_R   0.821951 0.456317 0.443393 0.516875
C9    C     C_R   0.278601 0.484042 0.591879 -0.113386
C10   C     C_R   0.724669 0.510698 0.569810 -0.113072
C11   C     C_R   0.328722 0.489934 0.587474 -0.218476
C12   C     C_R   0.674376 0.503203 0.574699 -0.230402
C13   C     C_R   0.325939 0.491103 0.424667 -0.237460
C14   C     C_R   0.670476 0.524719 0.413045 -0.225093
C15   C     C_R   0.275563 0.485742 0.429282 -0.111028
C16   C     C_R   0.720526 0.532097 0.408368 -0.118080
C17   C     C_R   0.251913 0.482748 0.512925 0.320953
C18   C     C_R   0.747658 0.524375 0.486504 0.328915
C19   C     C_R   0.100074 0.487915 0.522406 -0.076843
C20   C     C_R   0.899282 0.521260 0.473677 -0.077209
C21   C     C_R   0.124326 0.415360 0.491113 -0.005109
C22   C     C_R   0.874956 0.593261 0.506174 -0.006273
C23   C     C_R   0.097529 0.344280 0.466188 -0.225083
C24   C     C_R   0.901644 0.664506 0.530964 -0.224557
C25   C     C_R   0.126525 0.553976 0.561826 -0.105500
C26   C     C_R   0.872871 0.455378 0.433808 -0.105441
C27   C     C_R   0.352756 0.493894 0.503887 -0.040869
C28   C     C_R   0.647086 0.509188 0.496034 -0.036654
H1    H     H_    0.343776 0.493591 0.359541 0.156110
H2    H     H_    0.650114 0.531207 0.351682 0.157406
H3    H     H_    0.254836 0.485260 0.368114 0.138508
H4    H     H_    0.738406 0.542548 0.343954 0.126678
H5    H     H_    0.115861 0.284491 0.453994 0.179840
H6    H     H_    0.883163 0.724010 0.543841 0.179273
C29   C     C_R   0.974062 0.441918 0.450321 -0.017619
C30   C     C_R   0.025355 0.567766 0.544901 -0.017754
C31   C     C_R   0.976106 0.581650 0.522211 0.054259
C32   C     C_R   0.023257 0.427872 0.473280 0.054885
C33   C     C_R   0.949944 0.514741 0.482448 -0.034396
C34   C     C_R   0.049446 0.494760 0.513059 -0.034012
C35   C     C_R   0.949635 0.391107 0.387812 0.390985
C36   C     C_R   0.049815 0.618775 0.607179 0.390741
C37   C     C_R   0.898320 0.393186 0.384321 -0.112309
C38   C     C_R   0.101119 0.616727 0.610578 -0.112122
O11   O     O_2   0.795154 0.388711 0.419372 -0.554698
O12   O     O_2   0.204187 0.620883 0.575083 -0.552857
C39   C     C_R   0.046909 0.347572 0.463683 0.054894
C40   C     C_R   0.952295 0.661740 0.532324 0.055971
H7    H     H_    0.656987 0.491852 0.639411 0.158655
H8    H     H_    0.348580 0.491734 0.649551 0.169612
H9    H     H_    0.745864 0.504215 0.630211 0.133563
H10   H     H_    0.260327 0.481818 0.656606 0.128153
C41   C     C_3   0.545196 0.976347 0.539880 -0.044584
C42   C     C_3   0.460803 0.023354 0.462173 -0.045072
C43   C     C_3   0.540335 0.036323 0.456151 -0.026888
C44   C     C_3   0.465701 0.963563 0.546005 -0.026485
C45   C     C_1   0.498567 0.249221 0.503671 -0.208965
C46   C     C_1   0.504067 0.750665 0.496598 -0.208561
C47   C     C_3   0.503146 0.024415 0.586673 -0.034925
C48   C     C_3   0.502875 0.975453 0.415428 -0.032409
C49   C     C_3   0.498356 0.083529 0.503085 0.044493
C50   C     C_3   0.507604 0.916244 0.498944 0.043999
C51   C     C_1   0.497812 0.174092 0.504680 -0.099268
C52   C     C_1   0.506793 0.825669 0.496370 -0.101209
C53   C     C_3   0.522327 0.428923 0.972184 -0.026089
C54   C     C_3   0.479118 0.572835 0.027617 -0.023954
C55   C     C_3   0.546611 0.498340 0.029386 -0.023908
C56   C     C_3   0.455090 0.503344 0.970153 -0.026557
N3    N     N_1   0.500020 0.500000 0.268010 -0.102756
N4    N     N_1   0.499980 0.500000 0.731990 -0.102625
C57   C     C_3   0.476352 0.433105 0.033247 -0.027080
C58   C     C_3   0.525225 0.568967 0.966594 -0.026072
C59   C     C_3   0.500714 0.502394 0.090452 -0.036038
C60   C     C_3   0.501167 0.499629 0.909365 -0.037677
C61   C     C_1   0.500400 0.500973 0.190008 -0.003256
C62   C     C_1   0.500357 0.499743 0.809937 -0.000638
C63   C     C_R   0.592379 0.957154 0.586483 0.094085
C64   C     C_R   0.618015 0.024375 0.624932 -0.140588
C65   C     C_R   0.661105 0.008462 0.670685 -0.151207
C66   C     C_R   0.679193 0.925449 0.677933 -0.109628
C67   C     C_R   0.654301 0.858351 0.639086 -0.131920
C68   C     C_R   0.611098 0.873964 0.593441 -0.199766
H11   H     H_    0.604341 0.089045 0.620027 0.138338
H12   H     H_    0.680424 0.060497 0.700643 0.131190
H13   H     H_    0.712535 0.913130 0.713485 0.131790
H14   H     H_    0.668415 0.794064 0.644564 0.151803
H15   H     H_    0.592808 0.820870 0.564072 0.145076
C69   C     C_R   0.413396 0.041467 0.415825 0.089241
C70   C     C_R   0.387997 0.973426 0.378376 -0.142160
C71   C     C_R   0.344282 0.987942 0.334193 -0.143996
C72   C     C_R   0.325324 0.070364 0.327527 -0.121942
C73   C     C_R   0.350063 0.138316 0.365100 -0.136858
C74   C     C_R   0.393929 0.124141 0.409011 -0.172723
H16   H     H_    0.402233 0.909132 0.383158 0.138472
H17   H     H_    0.325102 0.935253 0.305167 0.131587
H18   H     H_    0.291454 0.081594 0.293325 0.130182
H19   H     H_    0.335245 0.202124 0.360132 0.140893
H20   H     H_    0.411940 0.177855 0.437660 0.143339
C75   C     C_R   0.506861 0.951701 0.317599 0.118522
C76   C     C_R   0.487489 0.005736 0.250403 -0.144717
C77   C     C_R   0.493614 0.986979 0.159817 -0.154754
C78   C     C_R   0.519789 0.914903 0.135162 -0.095074
C79   C     C_R   0.540138 0.861839 0.201088 -0.131708
C80   C     C_R   0.534241 0.880571 0.291735 -0.144139
H21   H     H_    0.468362 0.063344 0.267582 0.141128
H22   H     H_    0.478379 0.028755 0.108687 0.123802
H23   H     H_    0.524479 0.900403 0.065014 0.135955
H24   H     H_    0.560922 0.806539 0.181995 0.126706
H25   H     H_    0.552087 0.840375 0.340977 0.139350
C81   C     C_R   0.499850 0.048093 0.684665 0.120499
C82   C     C_R   0.519000 0.993200 0.751329 -0.141711
C83   C     C_R   0.514622 0.012828 0.841969 -0.148943
C84   C     C_R   0.490283 0.086597 0.867309 -0.103048
C85   C     C_R   0.469810 0.140296 0.802064 -0.135317
C86   C     C_R   0.474101 0.120814 0.711309 -0.143268
H26   H     H_    0.536864 0.934538 0.733651 0.131487
H27   H     H_    0.529823 0.970480 0.892619 0.129243
H28   H     H_    0.487033 0.101792 0.937495 0.120317
H29   H     H_    0.450241 0.196762 0.821801 0.124086
H30   H     H_    0.456348 0.161824 0.662733 0.138627
C87   C     C_R   0.599975 0.492652 0.051751 0.112676
C88   C     C_R   0.634521 0.501011 0.981899 -0.115092
C89   C     C_R   0.683975 0.492255 0.999297 -0.134230
C90   C     C_R   0.699464 0.473765 0.086353 -0.109749
C91   C     C_R   0.665484 0.463922 0.156021 -0.145103
C92   C     C_R   0.615967 0.473423 0.139079 -0.179296
H31   H     H_    0.623103 0.513694 0.913666 0.130685
H32   H     H_    0.710263 0.499066 0.945089 0.128961
H33   H     H_    0.737746 0.466292 0.099711 0.120247
H34   H     H_    0.677552 0.447919 0.223062 0.141210
H35   H     H_    0.590728 0.463394 0.194028 0.143441
C93   C     C_R   0.403802 0.496475 0.935902 0.121425
C94   C     C_R   0.365834 0.545930 0.970830 -0.162368
C95   C     C_R   0.318777 0.537943 0.938059 -0.132718
C96   C     C_R   0.308928 0.479311 0.871650 -0.107375
C97   C     C_R   0.345995 0.427632 0.838853 -0.152332
C98   C     C_R   0.393102 0.435686 0.871166 -0.120935
H36   H     H_    0.371879 0.589512 0.024401 0.142913
H37   H     H_    0.289820 0.576770 0.964765 0.125624
H38   H     H_    0.272473 0.473179 0.846442 0.120647
H39   H     H_    0.338218 0.381161 0.788480 0.128955
H40   H     H_    0.421175 0.394119 0.845856 0.121770
C99   C     C_R   0.548715 0.346814 0.951606 0.101028
C100  C     C_R   0.564788 0.294623 0.023292 -0.128652
C101  C     C_R   0.588443 0.217639 0.007101 -0.155953
C102  C     C_R   0.596488 0.192017 0.919181 -0.109064
C103  C     C_R   0.580838 0.243340 0.847424 -0.110755
C104  C     C_R   0.557042 0.320341 0.863347 -0.180404
H41   H     H_    0.558484 0.313264 0.091884 0.128320
H42   H     H_    0.600382 0.177715 0.062756 0.134816
H43   H     H_    0.614601 0.132198 0.906618 0.124968
H44   H     H_    0.586834 0.223105 0.779301 0.136836
H45   H     H_    0.545237 0.357910 0.806388 0.145819
C105  C     C_R   0.456334 0.658185 0.048294 0.098670
C106  C     C_R   0.442305 0.712399 0.976676 -0.135660
C107  C     C_R   0.421632 0.791948 0.992950 -0.159608
C108  C     C_R   0.414471 0.818124 0.080908 -0.112477
C109  C     C_R   0.428206 0.764933 0.152611 -0.110702
C110  C     C_R   0.449132 0.685431 0.136589 -0.177207
H46   H     H_    0.447318 0.692778 0.908089 0.128887
H47   H     H_    0.411123 0.833248 0.937338 0.137437
H48   H     H_    0.398536 0.879800 0.093553 0.127222
H49   H     H_    0.422915 0.785594 0.220772 0.138226
H50   H     H_    0.459349 0.646305 0.193524 0.146156
C111  C     C_R   0.552344 0.649879 0.938892 0.114083
C112  C     C_R   0.575153 0.697406 0.005169 -0.116080
C113  C     C_R   0.598395 0.774482 0.982770 -0.158670
C114  C     C_R   0.598669 0.805469 0.894184 -0.118451
C115  C     C_R   0.575717 0.759351 0.827956 -0.139552
C116  C     C_R   0.552643 0.682066 0.849974 -0.175041
H51   H     H_    0.574552 0.675053 0.074465 0.125735
H52   H     H_    0.615865 0.810548 0.034265 0.126802
H53   H     H_    0.616343 0.865457 0.876929 0.129896
H54   H     H_    0.575367 0.783820 0.759512 0.136450
H55   H     H_    0.534281 0.649691 0.797406 0.145391
C117  C     C_R   0.445020 0.360651 0.070418 0.121973
C118  C     C_R   0.444697 0.280459 0.030163 -0.161652
C119  C     C_R   0.415432 0.214483 0.065193 -0.150604
C120  C     C_R   0.385385 0.228330 0.139411 -0.104777
C121  C     C_R   0.383926 0.308647 0.177776 -0.134016
C122  C     C_R   0.413117 0.374773 0.142861 -0.124279
H56   H     H_    0.466163 0.268731 0.970817 0.134125
H57   H     H_    0.415673 0.152780 0.034217 0.120293
H58   H     H_    0.362657 0.177231 0.166174 0.133464
H59   H     H_    0.359908 0.319920 0.234194 0.127190
H60   H     H_    0.410441 0.437049 0.172176 0.127107
C123  C     C_R   0.872441 0.333874 0.325243 0.175519
C124  C     C_R   0.872402 0.245821 0.344630 -0.103720
C125  C     C_R   0.847670 0.190089 0.289389 -0.140288
C126  C     C_R   0.822980 0.221888 0.214444 -0.110603
C127  C     C_R   0.823192 0.309447 0.194342 -0.131438
C128  C     C_R   0.847995 0.365373 0.249277 -0.104804
H61   H     H_    0.891100 0.220656 0.402794 0.146845
H62   H     H_    0.847532 0.122280 0.304826 0.129062
H63   H     H_    0.803715 0.178685 0.171927 0.121052
H64   H     H_    0.804102 0.333981 0.136257 0.120695
H65   H     H_    0.847902 0.433115 0.233205 0.114751
C129  C     C_R   0.126985 0.676491 0.669179 0.174995
C130  C     C_R   0.151531 0.645539 0.745263 -0.104323
C131  C     C_R   0.176119 0.701944 0.799983 -0.129295
C132  C     C_R   0.176012 0.789439 0.779551 -0.111611
C133  C     C_R   0.151233 0.820690 0.704469 -0.139369
C134  C     C_R   0.126718 0.764478 0.649442 -0.103427
H66   H     H_    0.151827 0.577861 0.761645 0.113798
H67   H     H_    0.195274 0.677827 0.858180 0.120553
H68   H     H_    0.195094 0.833018 0.821926 0.120669
H69   H     H_    0.151115 0.888451 0.688785 0.129595
H70   H     H_    0.107910 0.789232 0.591217 0.147034
O13   O     O_3   0.977232 0.347256 0.325875 -0.780732
H71   H     H_    0.957022 0.328127 0.275920 0.336608
O14   O     O_3   0.022277 0.662712 0.669134 -0.780925
H72   H     H_    0.042493 0.681552 0.719209 0.336587
C135  C     C_R   0.020299 0.264665 0.467003 0.181140
C136  C     C_R   0.032064 0.199739 0.406946 -0.090631
C137  C     C_R   0.007211 0.121909 0.411261 -0.155976
C138  C     C_R   0.970888 0.107695 0.476049 -0.138668
C139  C     C_R   0.959438 0.171159 0.536875 -0.160574
C140  C     C_R   0.983955 0.249287 0.532510 -0.171575
H73   H     H_    0.059870 0.209902 0.355877 0.131174
H74   H     H_    0.016128 0.072548 0.364358 0.133038
H75   H     H_    0.951640 0.047470 0.479176 0.140198
H76   H     H_    0.931419 0.159928 0.587259 0.137017
H77   H     H_    0.974761 0.297634 0.580463 0.127212
C141  C     C_R   0.978680 0.744875 0.528538 0.181367
C142  C     C_R   0.014803 0.760397 0.462643 -0.171519
C143  C     C_R   0.039141 0.838686 0.457888 -0.160670
C144  C     C_R   0.027737 0.902174 0.518712 -0.138587
C145  C     C_R   0.991630 0.887827 0.583880 -0.155617
C146  C     C_R   0.966955 0.809831 0.588594 -0.090593
H78   H     H_    0.023966 0.712031 0.414692 0.127273
H79   H     H_    0.066994 0.850021 0.407210 0.137056
H80   H     H_    0.046860 0.962516 0.515298 0.140287
H81   H     H_    0.982750 0.937206 0.630786 0.133093
H82   H     H_    0.939340 0.799564 0.639994 0.131061
C147  C     C_R   0.579460 0.078522 0.397722 0.125482
C148  C     C_R   0.627356 0.047794 0.396855 -0.150998
C149  C     C_R   0.662577 0.086264 0.340908 -0.127323
C150  C     C_R   0.650233 0.154648 0.283997 -0.104856
C151  C     C_R   0.602472 0.183949 0.282048 -0.141594
C152  C     C_R   0.567185 0.145624 0.337806 -0.124384
H83   H     H_    0.637691 0.993124 0.437475 0.149508
H84   H     H_    0.699415 0.062466 0.341083 0.134384
H85   H     H_    0.677528 0.184198 0.240617 0.130720
H86   H     H_    0.592693 0.236047 0.236919 0.127493
H87   H     H_    0.530184 0.168052 0.333383 0.135536
C153  C     C_R   0.426604 0.921836 0.604848 0.126978
C154  C     C_R   0.378929 0.953580 0.606678 -0.150342
C155  C     C_R   0.343769 0.915790 0.663246 -0.127308
C156  C     C_R   0.355978 0.847106 0.719855 -0.103499
C157  C     C_R   0.403548 0.816808 0.720854 -0.139083
C158  C     C_R   0.438775 0.854442 0.664482 -0.126042
H88   H     H_    0.368751 0.008543 0.566347 0.148253
H89   H     H_    0.307098 0.940368 0.663814 0.134567
H90   H     H_    0.328737 0.818103 0.763748 0.129813
H91   H     H_    0.413238 0.764484 0.765733 0.127737
H92   H     H_    0.475653 0.831266 0.668264 0.129056

loop_
_geom_bond_atom_site_label_1
_geom_bond_atom_site_label_2
_geom_bond_distance
_ccdc_geom_bond_type
C109  H49   1.082818 S    
C108  C109  1.396694 A    
C29   C33   1.412887 A    
C65   C66   1.396699 A    
C1    C45   1.386678 S    
C13   C15   1.391987 A    
C123  C124  1.403633 A    
C72   C73   1.396744 A    
C67   C68   1.398323 A    
C12   H7    1.083127 S    
C53   C57   1.553953 S    
C97   H39   1.082447 S    
C72   H18   1.082261 S    
N1    C17   1.426379 S    
C85   C86   1.398703 A    
C98   H40   1.082749 S    
C76   C77   1.398136 A    
C90   C91   1.396025 A    
C96   C97   1.396175 A    
C87   C88   1.406475 A    
C118  C119  1.398128 A    
C130  C131  1.398257 A    
C112  C113  1.398325 A    
C42   C49   1.541257 S    
C5    N1    1.363727 A    
Zn1   N4    1.977176 S    
C121  C122  1.398083 A    
C147  C148  1.406277 A    
C30   C34   1.413381 A    
C48   C50   1.542467 S    
C36   O14   1.385630 S    
O1    C1    1.267921 A    
C20   C33   1.408085 A    
C83   H27   1.082485 S    
C9    H10   1.083271 S    
C64   C65   1.397236 A    
N1    C7    1.366849 A    
C42   C69   1.510314 S    
C75   C76   1.407583 A    
C54   C59   1.555152 S    
C90   H33   1.082494 S    
C101  C102  1.396170 A    
C71   H17   1.082304 S    
C58   C60   1.551706 S    
C129  C134  1.403641 A    
C42   C48   1.550266 S    
C77   C78   1.396046 A    
C148  H83   1.078372 S    
C78   C79   1.396270 A    
C144  C145  1.396804 A    
C74   H20   1.077047 S    
C14   C28   1.404500 A    
C137  H74   1.082352 S    
C84   H28   1.082048 S    
C53   C60   1.553243 S    
C142  H78   1.083008 S    
C46   C52   1.178177 T    
C70   C71   1.397174 A    
C94   C95   1.398593 A    
C63   C68   1.405381 A    
C118  H56   1.078371 S    
C87   C92   1.406436 A    
C151  H86   1.082412 S    
C19   C25   1.410143 A    
C99   C100  1.407124 A    
C107  C108  1.396062 A    
C142  C143  1.397903 A    
C36   C38   1.416311 A    
C157  C158  1.397235 A    
C126  H63   1.082341 S    
C150  H85   1.082547 S    
C54   C58   1.556272 S    
C106  H46   1.082795 S    
C158  H92   1.081840 S    
C43   C49   1.544249 S    
C70   H16   1.083346 S    
C41   C47   1.551445 S    
C133  C134  1.398105 A    
C23   H5    1.083797 S    
C24   H6    1.083771 S    
C103  H44   1.082726 S    
C120  C121  1.396245 A    
C6    N2    1.362780 A    
C73   H19   1.082404 S    
C29   C32   1.419190 A    
C44   C153  1.518776 S    
C135  C140  1.407245 A    
C147  C152  1.408269 A    
C8    O11   1.349275 S    
C96   H38   1.082460 S    
C68   H15   1.077590 S    
C126  C127  1.398048 A    
C47   C49   1.542620 S    
O2    C2    1.268529 A    
C31   C40   1.428144 A    
N4    C62   1.162875 T    
Zn2   N3    1.977176 S    
O2    Zn2   1.976450 S    
C128  H65   1.083161 S    
C139  H76   1.082239 S    
C5    C21   1.396547 A    
C71   C72   1.396463 A    
C56   C93   1.514040 S    
C32   C34   1.418441 A    
C64   H11   1.083402 S    
C55   C87   1.514917 S    
C107  H47   1.082551 S    
C57   C59   1.554613 S    
C43   C48   1.545137 S    
C105  C110  1.406346 A    
N3    C61   1.163248 T    
C89   H32   1.082327 S    
C78   H23   1.082456 S    
C93   C94   1.405954 A    
C4    C28   1.459226 S    
C144  H80   1.082193 S    
C106  C107  1.397388 A    
C156  C157  1.395632 A    
C113  H52   1.082336 S    
C95   C96   1.396592 A    
O13   H71   0.988178 S    
C149  C150  1.396499 A    
C124  C125  1.398156 A    
C11   C27   1.404673 A    
C63   C64   1.405931 A    
C53   C55   1.555072 S    
O7    Zn2   1.994707 S    
C67   H14   1.082569 S    
C153  C154  1.406277 A    
C99   C104  1.406297 A    
C30   C31   1.419238 A    
C148  C149  1.398832 A    
C113  C114  1.396778 A    
C25   C38   1.418259 A    
C141  C146  1.407950 A    
C14   H2    1.082566 S    
C138  C139  1.396665 A    
C30   C36   1.416943 A    
C75   C80   1.406576 A    
C15   H3    1.082860 S    
C93   C98   1.406778 A    
C41   C43   1.552365 S    
C11   H8    1.082586 S    
C9    C17   1.397083 A    
C100  C101  1.397491 A    
C92   H35   1.076991 S    
C108  H48   1.082451 S    
C2    C46   1.387477 S    
C79   H24   1.081913 S    
C10   C18   1.399624 A    
C117  C118  1.406529 A    
C137  C138  1.396834 A    
C151  C152  1.397519 A    
C49   C51   1.420794 S    
C91   H34   1.081775 S    
C13   C27   1.403367 A    
O5    C3    1.278407 A    
C135  C136  1.407876 A    
C7    C25   1.409151 A    
O5    Zn1   2.003674 S    
C101  H42   1.082437 S    
O6    C4    1.278250 A    
C47   C81   1.518568 S    
C8    C26   1.409444 A    
C156  H90   1.082470 S    
C44   C47   1.544327 S    
C41   C63   1.509827 S    
O14   H72   0.988212 S    
C115  C116  1.397863 A    
C138  H75   1.082211 S    
C6    O10   1.349875 S    
C39   C135  1.491148 S    
C119  H57   1.082204 S    
C129  C130  1.405390 A    
C152  H87   1.081741 S    
C80   H25   1.079966 S    
O7    C3    1.283187 A    
C136  H73   1.082829 S    
C55   C59   1.552122 S    
O3    Zn2   1.958623 S    
O8    C4    1.282788 A    
C100  H41   1.082973 S    
C7    O12   1.349280 S    
C10   H9    1.082845 S    
C54   C56   1.555061 S    
C105  C106  1.407379 A    
C60   C62   1.483633 S    
C77   H22   1.082483 S    
C66   C67   1.396766 A    
C38   C129  1.484654 S    
C124  H61   1.081397 S    
C35   C37   1.416716 A    
C44   C50   1.544445 S    
C82   C83   1.397769 A    
C20   C26   1.410463 A    
O4    C2    1.269497 A    
O1    Zn1   1.976451 S    
C95   H37   1.082529 S    
N2    C8    1.366087 A    
C117  C122  1.406716 A    
C84   C85   1.396456 A    
C69   C74   1.405560 A    
C45   C51   1.177807 T    
C109  C110  1.398858 A    
C12   C28   1.403186 A    
C35   O13   1.385631 S    
C111  C116  1.407623 A    
N2    C18   1.424043 S    
C19   C34   1.408443 A    
C5    O9    1.349915 S    
C127  C128  1.398302 A    
C141  C142  1.407270 A    
C134  H70   1.081408 S    
O6    Zn2   2.003675 S    
C26   C37   1.418439 A    
C21   C23   1.396657 A    
C131  C132  1.398045 A    
C16   H4    1.083232 S    
C157  H91   1.082152 S    
C55   C58   1.554546 S    
C50   C52   1.421715 S    
C88   C89   1.397415 A    
O3    C1    1.269763 A    
O8    Zn1   1.994706 S    
C40   C141  1.491288 S    
C32   C39   1.428147 A    
C53   C99   1.515638 S    
C23   C39   1.397507 A    
C91   C92   1.398955 A    
C14   C16   1.385254 A    
C155  C156  1.396451 A    
C43   C147  1.518960 S    
C111  C112  1.406508 A    
C56   C57   1.551649 S    
C89   C90   1.396023 A    
C79   C80   1.398261 A    
C145  H81   1.082356 S    
C97   C98   1.397548 A    
C120  H58   1.081948 S    
C58   C111  1.517595 S    
C131  H67   1.082441 S    
C130  H66   1.083161 S    
C66   H13   1.082264 S    
C119  C120  1.395824 A    
C102  H43   1.082438 S    
C94   H36   1.078378 S    
C57   C117  1.516111 S    
C154  H88   1.078464 S    
C15   C17   1.400302 A    
C103  C104  1.398811 A    
C85   H29   1.082413 S    
C102  C103  1.396523 A    
C16   C18   1.395721 A    
C48   C75   1.517571 S    
C10   C12   1.392184 A    
C149  H84   1.082478 S    
C143  H79   1.082237 S    
C76   H21   1.081107 S    
C110  H50   1.076212 S    
C83   C84   1.395704 A    
C56   C60   1.553457 S    
C145  C146  1.398335 A    
C22   C24   1.396548 A    
C143  C144  1.396639 A    
C19   C21   1.406863 A    
C88   H31   1.083096 S    
C133  H69   1.082326 S    
C81   C86   1.406829 A    
C3    C27   1.460103 S    
C123  C128  1.405445 A    
C20   C22   1.407045 A    
C114  H53   1.082624 S    
C9    C11   1.385356 A    
C29   C35   1.417033 A    
C82   H26   1.080685 S    
C69   C70   1.406067 A    
C122  H60   1.081765 S    
C86   H30   1.079472 S    
C140  H77   1.083011 S    
C127  H64   1.082405 S    
C136  C137  1.398330 A    
C104  H45   1.076132 S    
C121  H59   1.082404 S    
C13   H1    1.083197 S    
C132  C133  1.398131 A    
C155  H89   1.082479 S    
C125  H62   1.082341 S    
C42   C44   1.551982 S    
C146  H82   1.082810 S    
C73   C74   1.398065 A    
C112  H51   1.083352 S    
C37   C123  1.484630 S    
C139  C140  1.397910 A    
C154  C155  1.398683 A    
C59   C61   1.484673 S    
C116  H55   1.075820 S    
C81   C82   1.407615 A    
C41   C50   1.541409 S    
C125  C126  1.398154 A    
C31   C33   1.418210 A    
C153  C158  1.408326 A    
C115  H54   1.082120 S    
C65   H12   1.082313 S    
C54   C105  1.515950 S    
C6    C22   1.396088 A    
C132  H68   1.082330 S    
C114  C115  1.395836 A    
O4    Zn1   1.958621 S    
C150  C151  1.395625 A    
C24   C40   1.397529 A    
