data_mof_unit_34188.cif
_audit_creation_date              2012-10-26T20:17:13-0400
_audit_creation_method            fapswitch 2.2
_symmetry_space_group_name_H-M    P1
_symmetry_Int_Tables_number       1
_space_group_crystal_system       triclinic
_cell_length_a                    10.627124
_cell_length_b                    10.962129
_cell_length_c                    9.867573
_cell_angle_alpha                 109.36702
_cell_angle_beta                  97.68167
_cell_angle_gamma                 92.75322
_cell_volume                      1069.49481438

loop_
_atom_site_label
_atom_site_type_symbol
_atom_type_description
_atom_site_fract_x
_atom_site_fract_y
_atom_site_fract_z
_atom_type_partial_charge
Br1   Br    Br    0.953338 0.562677 0.836029 -0.303008
Br2   Br    Br    0.050514 0.434538 0.164452 -0.315828
Br3   Br    Br    0.343976 0.362697 0.801052 -0.412214
Br4   Br    Br    0.707660 0.467240 0.105831 -0.283045
C1    C     C_R   0.497621 0.255173 0.443434 0.558701
C2    C     C_3   0.123050 0.497546 0.499952 -0.011495
C3    C     C_3   0.977892 0.524424 0.635370 0.198224
C4    C     C_3   0.022799 0.473771 0.364355 0.178996
C5    C     C_2   0.505050 0.117347 0.418756 -0.070885
C6    C     C_2   0.534209 0.884461 0.579614 -0.120173
C7    C     C_2   0.578707 0.072175 0.510882 0.202932
C8    C     C_2   0.571372 0.932592 0.479598 0.223330
C9    C     C_2   0.527231 0.474398 0.062565 0.327954
C10   C     C_2   0.487381 0.483691 0.915897 0.306659
C11   C     C_R   0.516026 0.745487 0.556136 0.552118
C12   C     C_R   0.259755 0.498400 0.500449 0.559199
C13   C     C_R   0.740411 0.501344 0.499493 0.592697
C14   C     C_3   0.042752 0.406190 0.550835 -0.095482
C15   C     C_3   0.958040 0.592045 0.448787 -0.117600
C16   C     C_3   0.940433 0.382436 0.414470 -0.104621
C17   C     C_3   0.060108 0.615784 0.585190 -0.150723
C18   C     C_3   0.877376 0.500900 0.499778 0.015444
Cu1   Cu    Cu3+1 0.522260 0.521810 0.644920 1.130592
Cu2   Cu    Cu3+1 0.477740 0.478190 0.355080 1.136453
H1    H     H_    0.889044 0.287332 0.343792 0.187591
H2    H     H_    0.763086 0.043580 0.776897 0.350650
H3    H     H_    0.111345 0.710950 0.655874 0.163383
H4    H     H_    0.079132 0.330343 0.593026 0.201899
H5    H     H_    0.924234 0.668232 0.406068 0.213896
H6    H     H_    0.515217 0.950962 0.682591 0.104000
H7    H     H_    0.445687 0.049253 0.322438 0.126184
H8    H     H_    0.633277 0.614006 0.930148 0.245669
H9    H     H_    0.349947 0.447442 0.097958 0.253813
H10   H     H_    0.726604 0.882023 0.159219 0.374507
N1    N     N_2   0.444270 0.445410 0.137360 -0.318194
N2    N     N_2   0.555730 0.554590 0.862640 -0.301222
O1    O     O_R   0.511880 0.332340 0.577400 -0.422412
O2    O     O_2   0.509368 0.769995 0.204491 -0.300661
O3    O     O_3   0.703290 0.939811 0.251273 -0.501172
O4    O     O_2   0.769938 0.265028 0.611442 -0.226356
O5    O     O_2   0.635821 0.238666 0.785194 -0.245844
O6    O     O_3   0.800940 0.072546 0.704902 -0.461449
O7    O     O_R   0.488120 0.667660 0.422600 -0.430008
O8    O     O_R   0.474280 0.295500 0.332650 -0.489304
O9    O     O_R   0.525720 0.704500 0.667350 -0.509616
O10   O     O_R   0.335640 0.518390 0.622350 -0.473225
O11   O     O_R   0.664360 0.481610 0.377650 -0.454695
O12   O     O_R   0.298050 0.481550 0.377590 -0.484402
O13   O     O_R   0.701950 0.518450 0.622410 -0.450447
O14   O     O_2   0.709964 0.744676 0.344327 -0.271282
S1    S     S_3+6 0.623273 0.840383 0.315684 0.032342
S2    S     S_3+6 0.697444 0.168090 0.656742 0.088131

loop_
_geom_bond_atom_site_label_1
_geom_bond_atom_site_label_2
_ccdc_geom_bond_type
O3    S1    S    
C7    C8    S    
C1    C5    S    
C15   C18   S    
Cu1   O9    S    
C1    O1    A    
C3    C18   S    
C6    H6    S    
O5    S2    D    
C13   C18   S    
Cu1   Cu2   S    
C3    C14   S    
C12   O12   A    
O14   S1    D    
C17   H3    S    
C11   O7    A    
Cu1   O10   S    
C3    C17   S    
C9    C10   S    
C2    C17   S    
C5    C7    D    
C4    C16   S    
Br3   C10   S    
C6    C8    D    
Cu2   O8    S    
H8    N2    S    
O4    S2    D    
H9    N1    S    
C1    O8    A    
C16   C18   S    
C9    N1    D    
C14   C16   S    
C6    C11   S    
O2    S1    D    
C10   N2    D    
C2    C14   S    
Br2   C4    S    
Cu1   O13   S    
C4    C15   S    
C16   H1    S    
C5    H7    S    
C2    C12   S    
H10   O3    S    
C15   H5    S    
C8    S1    S    
C14   H4    S    
H2    O6    S    
Cu1   N2    S    
C12   O10   A    
Br4   C9    S    
Cu2   O7    S    
C11   O9    A    
Br1   C3    S    
C2    C4    S    
C7    S2    S    
C15   C17   S    
Cu2   N1    S    
Cu1   O1    S    
Cu2   O11   S    
C13   O13   A    
C13   O11   A    
O6    S2    S    
Cu2   O12   S    
