data_mof_unit_13516.cif
_audit_creation_date              2013-03-05T15:48:16-0500
_audit_creation_method            fapswitch 2.2
_symmetry_space_group_name_H-M    P1
_symmetry_Int_Tables_number       1
_space_group_crystal_system       triclinic
_cell_length_a                    11.795259
_cell_length_b                    12.986221
_cell_length_c                    15.628734
_cell_angle_alpha                 94.929865
_cell_angle_beta                  74.153386
_cell_angle_gamma                 99.8751
_cell_volume                      2266.91229634

loop_
_atom_site_label
_atom_site_type_symbol
_atom_site_description
_atom_site_fract_x
_atom_site_fract_y
_atom_site_fract_z
_atom_type_partial_charge
O1    O     O_R   0.419950 0.645670 0.495380 -0.595345
O2    O     O_R   0.580050 0.354330 0.504620 -0.587664
O3    O     O_R   0.611110 0.658410 0.506370 -0.546767
O4    O     O_R   0.388890 0.341590 0.493630 -0.543774
C1    C     C_R   0.521186 0.700606 0.500499 0.822908
C2    C     C_R   0.478855 0.299405 0.499400 0.824340
O5    O     O_R   0.350820 0.490050 0.621260 -0.581748
O6    O     O_R   0.649180 0.509950 0.378740 -0.578908
O7    O     O_R   0.541970 0.502800 0.632250 -0.530342
O8    O     O_R   0.458030 0.497200 0.367750 -0.549902
C3    C     C_R   0.426845 0.491185 0.668584 0.849410
C4    C     C_R   0.572963 0.505035 0.330975 0.863175
Cu1   Cu    Cu3+1 0.386820 0.492450 0.493500 1.047667
Cu2   Cu    Cu3+1 0.613180 0.507550 0.506500 1.067432
C5    C     C_R   0.382906 0.465205 0.763940 -0.229580
C6    C     C_R   0.617907 0.503178 0.232173 -0.228179
C7    C     C_R   0.235736 0.373749 0.886818 0.286171
C8    C     C_R   0.779509 0.528175 0.095641 0.280260
C9    C     C_R   0.265561 0.415051 0.801588 0.247747
C10   C     C_R   0.739702 0.534321 0.189183 0.250309
C11   C     C_R   0.466741 0.476155 0.813773 -0.154220
C12   C     C_R   0.537806 0.466944 0.180292 -0.159430
C13   C     C_R   0.442248 0.428644 0.895507 0.060058
C14   C     C_R   0.576640 0.453259 0.086984 0.063214
C15   C     C_R   0.323701 0.382035 0.934454 -0.075051
C16   C     C_R   0.698169 0.488026 0.044528 -0.083991
C17   C     C_R   0.531847 0.432216 0.941763 -0.040591
C18   C     C_R   0.495689 0.413538 0.034193 -0.035059
C19   C     C_R   0.380423 0.355626 0.069102 0.281520
C20   C     C_R   0.656295 0.451904 0.899529 0.303973
C21   C     C_R   0.295677 0.343678 0.019951 -0.137627
C22   C     C_R   0.737020 0.480042 0.951463 -0.110138
H1    H     H_    0.207478 0.302601 0.049190 0.233153
H2    H     H_    0.831253 0.494420 0.918112 0.245247
H3    H     H_    0.443894 0.451889 0.213353 0.217331
H4    H     H_    0.552566 0.522267 0.787603 0.232171
C23   C     C_R   0.465825 0.186050 0.501862 -0.057137
C24   C     C_R   0.534263 0.813979 0.497756 -0.059966
C25   C     C_R   0.659428 0.982254 0.468911 -0.143523
C26   C     C_R   0.340654 0.017758 0.530362 -0.143271
C27   C     C_R   0.647876 0.874371 0.473626 -0.084685
C28   C     C_R   0.352200 0.125626 0.525566 -0.088090
C29   C     C_R   0.432047 0.861972 0.516664 -0.214683
C30   C     C_R   0.568051 0.138092 0.482998 -0.196306
C31   C     C_R   0.442733 0.969706 0.511718 0.143280
C32   C     C_R   0.557358 0.030337 0.487771 0.143200
H5    H     H_    0.656034 0.184437 0.464485 0.200464
H6    H     H_    0.344067 0.815677 0.535332 0.200084
H7    H     H_    0.272465 0.161913 0.542079 0.210980
H8    H     H_    0.727612 0.838064 0.456741 0.211584
H9    H     H_    0.747806 0.027860 0.449989 0.176274
H10   H     H_    0.252273 0.972133 0.549123 0.174759
N1    N     N_R   0.216750 0.481110 0.483710 -0.286824
N2    N     N_R   0.783250 0.518890 0.516290 -0.283851
C33   C     C_R   0.950172 0.616128 0.565528 -0.200808
C34   C     C_R   0.048534 0.383798 0.435896 -0.218052
C35   C     C_R   0.830444 0.602663 0.562877 0.478386
C36   C     C_R   0.167255 0.395053 0.440228 0.435082
C37   C     C_R   0.855940 0.447193 0.472412 0.589077
C38   C     C_R   0.144697 0.554093 0.526394 0.574431
C39   C     C_R   0.975859 0.457694 0.476909 -0.077639
C40   C     C_R   0.024300 0.543647 0.522503 -0.074698
H11   H     H_    0.983948 0.683393 0.602439 0.231696
H12   H     H_    0.013428 0.315608 0.400639 0.241446
N3    N     N_R   0.231161 0.310529 0.402639 0.157574
O9    O     O_R   0.178616 0.214595 0.417033 -0.336122
O10   O     O_R   0.329161 0.326842 0.339683 -0.290593
N4    N     N_R   0.760765 0.680330 0.608387 0.147892
O11   O     O_R   0.798633 0.777690 0.588537 -0.358256
O12   O     O_R   0.685621 0.660200 0.685118 -0.330003
N5    N     N_R   0.821723 0.581415 0.239359 0.160996
O13   O     O_R   0.813700 0.674438 0.276415 -0.330960
O14   O     O_R   0.898158 0.528322 0.253910 -0.298530
N6    N     N_R   0.177288 0.401143 0.752529 0.161059
O15   O     O_R   0.137527 0.307801 0.725483 -0.294158
O16   O     O_R   0.125862 0.479626 0.744989 -0.289289
N7    N     N_R   0.116843 0.320543 0.923022 0.152686
O17   O     O_R   0.025360 0.366092 0.927149 -0.249261
O18   O     O_R   0.099635 0.221488 0.938675 -0.289044
N8    N     N_R   0.901110 0.569421 0.052869 0.150971
O19   O     O_R   0.988524 0.533224 0.069851 -0.245493
O20   O     O_R   0.924617 0.648066 0.001250 -0.290160
N9    N     N_R   0.354098 0.293869 0.146212 0.138230
O21   O     O_R   0.436182 0.246900 0.160035 -0.277618
O22   O     O_R   0.243944 0.266805 0.191463 -0.282715
N10   N     N_R   0.703455 0.429858 0.805843 0.125263
O23   O     O_R   0.656238 0.347269 0.767114 -0.314499
O24   O     O_R   0.803019 0.483374 0.761990 -0.305078
O25   O     O_3   0.185717 0.637887 0.575628 -0.727019
H13   H     H_    0.238752 0.614050 0.605946 0.379571
O26   O     O_3   0.815324 0.363611 0.422722 -0.726678
H14   H     H_    0.761001 0.386944 0.393372 0.372254

loop_
_geom_bond_atom_site_label_1
_geom_bond_atom_site_label_2
_geom_bond_distance
_ccdc_geom_bond_type
C15   C21   1.399851 A    
C25   H9    1.083920 S    
C16   C22   1.400950 A    
C8    C16   1.416287 A    
C25   C27   1.390530 A    
C11   H4    1.076445 S    
N7    O17   1.301073 A    
O5    C3    1.306588 A    
C12   H3    1.078308 S    
N6    O16   1.300889 A    
O1    C1    1.300538 A    
C18   C19   1.423538 A    
C14   C16   1.417392 A    
C19   N9    1.438157 S    
N10   O24   1.301633 A    
C33   C40   1.398227 A    
C23   C28   1.402594 A    
C38   C40   1.420740 A    
O4    Cu1   1.963618 S    
C3    C5    1.485948 S    
C4    C6    1.488946 S    
N4    O11   1.300904 A    
N3    O10   1.296100 A    
C33   H11   1.083533 S    
O6    Cu2   1.926477 S    
C21   H1    1.080552 S    
C10   N5    1.433145 S    
C13   C17   1.427015 A    
C20   N10   1.439799 S    
C29   H6    1.083643 S    
C30   H5    1.083807 S    
C6    C10   1.413896 A    
C26   C28   1.390481 A    
Cu1   Cu2   2.705241 S    
C17   C20   1.423692 A    
O2    C2    1.300500 A    
N1    C38   1.386929 A    
C30   C32   1.389913 A    
Cu1   N1    2.032642 S    
N2    C37   1.383930 A    
N7    O18   1.301209 A    
C26   C31   1.399605 A    
C37   C39   1.418018 A    
N6    O15   1.301214 A    
C24   C27   1.402674 A    
N8    O20   1.301183 A    
O26   H14   0.981724 S    
N5    O14   1.300798 A    
N10   O23   1.301726 A    
C31   C32   1.413213 A    
C22   H2    1.082183 S    
C5    C9    1.413525 A    
O7    Cu2   1.916588 S    
C29   C31   1.389962 A    
C36   N3    1.431526 S    
N9    O21   1.302139 A    
O5    Cu1   1.926476 S    
O6    C4    1.306969 A    
C7    N7    1.437257 S    
C2    C23   1.456342 S    
C37   O26   1.375021 S    
O7    C3    1.308638 A    
O3    Cu2   1.963618 S    
O8    C4    1.309861 A    
C25   C32   1.399516 A    
O4    C2    1.301714 A    
N9    O22   1.302345 A    
C33   C35   1.404525 A    
C12   C14   1.409452 A    
O1    Cu1   1.960151 S    
C35   N4    1.428439 S    
C27   H8    1.082424 S    
C38   O25   1.374448 S    
C6    C12   1.404229 A    
Cu2   N2    2.032641 S    
C9    N6    1.432575 S    
C14   C18   1.430614 A    
N8    O19   1.300627 A    
O3    C1    1.301870 A    
O8    Cu1   1.916588 S    
N1    C36   1.383449 A    
C7    C15   1.418503 A    
C23   C30   1.400212 A    
C11   C13   1.403094 A    
C24   C29   1.400323 A    
C19   C21   1.399641 A    
C26   H10   1.083908 S    
C20   C22   1.396676 A    
C34   H12   1.083619 S    
C7    C9    1.409946 A    
C34   C36   1.402416 A    
C8    C10   1.407844 A    
C13   C15   1.414313 A    
C39   C40   1.395361 A    
O2    Cu2   1.960150 S    
C28   H7    1.082478 S    
C5    C11   1.399263 A    
N5    O13   1.301029 A    
C8    N8    1.437154 S    
N3    O9    1.301534 A    
C17   C18   1.419783 A    
N4    O12   1.298446 A    
C34   C39   1.393896 A    
O25   H13   0.982420 S    
C1    C24   1.456915 S    
N2    C35   1.378771 A    
