data_mof_unit_36714.cif
_audit_creation_date              2013-03-05T16:04:39-0500
_audit_creation_method            fapswitch 2.2
_symmetry_space_group_name_H-M    P1
_symmetry_Int_Tables_number       1
_space_group_crystal_system       triclinic
_cell_length_a                    9.54391
_cell_length_b                    10.826996
_cell_length_c                    15.430523
_cell_angle_alpha                 89.459899
_cell_angle_beta                  74.782975
_cell_angle_gamma                 89.984191
_cell_volume                      1538.48827003

loop_
_atom_site_label
_atom_site_type_symbol
_atom_site_description
_atom_site_fract_x
_atom_site_fract_y
_atom_site_fract_z
_atom_type_partial_charge
O1    O     O_R   0.118740 0.319660 0.500000 -0.552230
O2    O     O_R   0.881260 0.680340 0.500000 -0.552812
O3    O     O_R   0.881170 0.319630 0.500010 -0.565053
O4    O     O_R   0.118830 0.680370 0.499990 -0.564547
C1    C     C_R   0.999032 0.262278 0.501543 0.835347
C2    C     C_R   0.000973 0.737723 0.498436 0.835686
O5    O     O_R   0.055570 0.500030 0.629830 -0.544737
O6    O     O_R   0.944430 0.499970 0.370170 -0.543401
O7    O     O_R   0.818000 0.500000 0.629840 -0.599854
O8    O     O_R   0.182000 0.500000 0.370160 -0.599906
C3    C     C_R   0.918522 0.500514 0.672250 0.803237
C4    C     C_R   0.081426 0.498778 0.327811 0.804376
Cu1   Cu    Cu3+1 0.140660 0.500020 0.500000 1.009616
Cu2   Cu    Cu3+1 0.859340 0.499980 0.500000 1.009509
C5    C     C_R   0.873435 0.504296 0.770795 -0.042899
C6    C     C_R   0.126614 0.487768 0.229712 -0.037327
C7    C     C_R   0.922101 0.547983 0.913317 -0.219243
C8    C     C_R   0.082001 0.422019 0.090226 -0.224876
C9    C     C_R   0.970922 0.536353 0.820525 -0.141969
C10   C     C_R   0.031123 0.444890 0.181738 -0.150498
C11   C     C_R   0.727661 0.481451 0.814907 -0.243518
C12   C     C_R   0.272116 0.510170 0.185077 -0.241461
C13   C     C_R   0.675226 0.492258 0.908608 0.094945
C14   C     C_R   0.327938 0.482604 0.093637 0.094606
C15   C     C_R   0.775410 0.527343 0.957510 0.148792
C16   C     C_R   0.229187 0.440056 0.045997 0.149156
C17   C     C_R   0.526047 0.472789 0.954537 0.057051
C18   C     C_R   0.478415 0.495407 0.048588 0.058109
C19   C     C_R   0.583238 0.527490 0.094755 -0.196460
C20   C     C_R   0.423122 0.430732 0.909847 -0.197355
C21   C     C_R   0.728411 0.542856 0.049916 -0.211765
C22   C     C_R   0.278151 0.414415 0.954963 -0.211072
H1    H     H_    0.804399 0.568444 0.088026 0.179147
H2    H     H_    0.203606 0.381218 0.918061 0.179710
H3    H     H_    0.339411 0.549015 0.223924 0.151196
H4    H     H_    0.656611 0.458527 0.773775 0.153259
H5    H     H_    0.918429 0.425904 0.215243 0.181792
H6    H     H_    0.083641 0.556002 0.787610 0.187354
H7    H     H_    0.998650 0.575654 0.950409 0.150301
H8    H     H_    0.006810 0.387456 0.054344 0.148626
H9    H     H_    0.557968 0.539619 0.166307 0.169459
H10   H     H_    0.450622 0.406551 0.839972 0.170455
C23   C     C_R   0.869072 0.061616 0.539068 0.150545
C24   C     C_R   0.130931 0.938391 0.460878 0.150308
C25   C     C_R   0.872217 0.933470 0.536127 -0.228641
C26   C     C_R   0.127774 0.066537 0.463793 -0.227656
H11   H     H_    0.773189 0.882342 0.565533 0.174674
H12   H     H_    0.226798 0.117667 0.434375 0.175139
C27   C     C_R   0.002059 0.871606 0.497763 -0.034406
C28   C     C_R   0.997940 0.128399 0.502179 -0.034251
C29   C     C_R   0.550756 0.425542 0.557605 -0.155621
C30   C     C_R   0.449276 0.574441 0.442373 -0.156748
H13   H     H_    0.587912 0.365859 0.603626 0.182156
H14   H     H_    0.412167 0.634020 0.396275 0.182846
C31   C     C_R   0.402220 0.424959 0.557819 0.438721
C32   C     C_R   0.597883 0.574810 0.442025 0.436828
N1    N     N_R   0.352080 0.500030 0.499980 -0.242240
N2    N     N_R   0.647920 0.499970 0.500020 -0.242313
N3    N     N_3   0.736006 0.123068 0.581578 -0.571101
H15   H     H_    0.657767 0.097775 0.548584 0.246497
H16   H     H_    0.701206 0.091257 0.647988 0.222298
N4    N     N_3   0.264042 0.876939 0.418438 -0.570715
H17   H     H_    0.342174 0.902164 0.451550 0.246565
H18   H     H_    0.299032 0.908823 0.352042 0.222822
N5    N     N_R   0.305930 0.343931 0.618958 0.139089
O9    O     O_R   0.302429 0.228023 0.598256 -0.378460
O10   O     O_R   0.262160 0.374682 0.702990 -0.411779
N6    N     N_R   0.694547 0.654894 0.380287 0.139679
O11   O     O_R   0.698039 0.771261 0.399768 -0.377483
O12   O     O_R   0.739770 0.622214 0.296711 -0.407500

loop_
_geom_bond_atom_site_label_1
_geom_bond_atom_site_label_2
_geom_bond_distance
_ccdc_geom_bond_type
C24   C27   1.408826 A    
C15   C21   1.389690 A    
O5    Cu1   1.954186 S    
O5    C3    1.299963 A    
O7    Cu2   1.937711 S    
C21   H1    1.084234 S    
C23   C28   1.408799 A    
C16   C22   1.389728 A    
N4    H17   1.046156 S    
C12   H3    1.075033 S    
C9    H6    1.082487 S    
C13   C17   1.428789 A    
C23   N3    1.433961 S    
C23   C25   1.388656 A    
C26   C28   1.398782 A    
C8    C10   1.391995 A    
C8    C16   1.404116 A    
C25   C27   1.398797 A    
O6    C4    1.299395 A    
C17   C18   1.425862 A    
C7    C15   1.403962 A    
C30   H14   1.082107 S    
C11   C13   1.406390 A    
N4    H18   1.046011 S    
C19   H9    1.075798 S    
N3    H15   1.045972 S    
C19   C21   1.385918 A    
C11   H4    1.073889 S    
C6    C10   1.398201 A    
Cu1   Cu2   2.684894 S    
C17   C20   1.417583 A    
C20   C22   1.386489 A    
C10   H5    1.082842 S    
O7    C3    1.295498 A    
C14   C16   1.418154 A    
O2    C2    1.295216 A    
O3    Cu2   1.963678 S    
O8    C4    1.295372 A    
O1    C1    1.295237 A    
Cu1   N1    2.017691 S    
C18   C19   1.417028 A    
C7    C9    1.391496 A    
C32   N2    1.376922 A    
C5    C9    1.398198 A    
C29   C31   1.416761 A    
C31   N1    1.377127 A    
C2    C27   1.449515 S    
C4    C6    1.467041 S    
O2    Cu2   1.963989 S    
C12   C14   1.406055 A    
C1    C28   1.449475 S    
N3    H16   1.045832 S    
N5    O10   1.300144 A    
C30   N1    1.361532 A    
C31   N5    1.426151 S    
C29   H13   1.082124 S    
C26   H12   1.084441 S    
C30   C32   1.416905 A    
C5    C11   1.399991 A    
C13   C15   1.418552 A    
O1    Cu1   1.963989 S    
O4    C2    1.290295 A    
N5    O9    1.300466 A    
C7    H7    1.083479 S    
C25   H11   1.084429 S    
O4    Cu1   1.963678 S    
C29   N2    1.361328 A    
N6    O12   1.300365 A    
C8    H8    1.083600 S    
C20   H10   1.075505 S    
C6    C12   1.398749 A    
O6    Cu2   1.954186 S    
C24   N4    1.434041 S    
C32   N6    1.426163 S    
C3    C5    1.468590 S    
C14   C18   1.427984 A    
Cu2   N2    2.017692 S    
C24   C26   1.388653 A    
N6    O11   1.300486 A    
O3    C1    1.290257 A    
O8    Cu1   1.937712 S    
C22   H2    1.084555 S    
