data_mof_unit_46016.cif
_audit_creation_date              2012-12-10T17:02:01-0500
_audit_creation_method            fapswitch 2.2
_symmetry_space_group_name_H-M    P1
_symmetry_Int_Tables_number       1
_space_group_crystal_system       triclinic
_cell_length_a                    10.793171
_cell_length_b                    11.081711
_cell_length_c                    9.888276
_cell_angle_alpha                 111.274008
_cell_angle_beta                  96.317379
_cell_angle_gamma                 91.809734
_cell_volume                      1092.14894467

loop_
_atom_site_label
_atom_site_type_symbol
_atom_type_description
_atom_site_fract_x
_atom_site_fract_y
_atom_site_fract_z
_atom_type_partial_charge
C1    C     C_R   0.490946 0.254715 0.441161 0.836130
C2    C     C_R   0.075302 0.543583 0.638264 0.003710
C3    C     C_R   0.126659 0.480363 0.506493 -0.172825
C4    C     C_R   0.045062 0.421579 0.374455 0.393555
C5    C     C_R   0.918572 0.438989 0.371617 -0.193101
C6    C     C_R   0.871630 0.518226 0.497032 -0.121279
C7    C     C_2   0.478100 0.116226 0.410615 -0.227441
C8    C     C_2   0.492584 0.072146 0.520580 -0.213097
C9    C     C_2   0.515814 0.885250 0.590552 -0.372519
C10   C     C_2   0.464300 0.935429 0.494574 0.434206
C11   C     C_2   0.523502 0.496360 0.075181 0.311893
C12   C     C_R   0.262104 0.490420 0.501371 0.839688
C13   C     C_2   0.514495 0.468680 0.912789 -0.006333
C14   C     C_R   0.506908 0.745646 0.559166 0.881185
C15   C     C_R   0.737209 0.508964 0.499237 0.794184
C16   C     C_R   0.135513 0.560318 0.779125 -0.211597
C17   C     C_R   0.081161 0.628663 0.904242 0.187829
C18   C     C_R   0.975389 0.695377 0.891974 0.386478
C19   C     C_R   0.911581 0.672114 0.753739 -0.197614
C20   C     C_R   0.952599 0.581062 0.628320 0.026274
Cu1   Cu    Cu3+1 0.521920 0.521810 0.644910 1.020206
Cu2   Cu    Cu3+1 0.478080 0.478190 0.355090 1.123927
H1    H     H_    0.451634 0.050867 0.297920 0.220064
H2    H     H_    0.483466 0.371463 0.836861 0.151794
H3    H     H_    0.216201 0.509146 0.793701 0.205358
H4    H     H_    0.826034 0.719039 0.745794 0.186823
H5    H     H_    0.856055 0.385932 0.272323 0.198571
H6    H     H_    0.525087 0.137614 0.632044 0.164785
H7    H     H_    0.572861 0.947718 0.690830 0.142168
N1    N     N_2   0.445130 0.445430 0.137370 -0.017848
N2    N     N_2   0.554930 0.554500 0.862630 -0.095928
O1    O     O_R   0.511700 0.332330 0.577400 -0.607565
O2    O     O_R   0.474680 0.295500 0.332650 -0.528849
O3    O     O_R   0.338160 0.518420 0.622400 -0.604686
O4    O     O_R   0.301140 0.481590 0.377650 -0.481948
O5    O     O_R   0.525320 0.704500 0.667350 -0.561563
O6    O     O_R   0.488300 0.667670 0.422600 -0.527359
O7    O     O_R   0.698860 0.518410 0.622350 -0.574127
O8    O     O_R   0.661840 0.481580 0.377600 -0.590058
Cl1   Cl    Cl    0.092719 0.309486 0.214328 -0.461953
I1    I     I_    0.687406 0.622746 0.194298 -0.170827
I2    I     I_    0.500741 0.742542 0.974488 -0.098474
Cl2   Cl    Cl    0.335606 0.322090 0.025827 -0.436310
I3    I     I_    0.146160 0.608024 0.102784 -0.032921
Cl3   Cl    Cl    0.913936 0.798297 0.046874 -0.488105
Cl4   Cl    Cl    0.353363 0.845622 0.343233 -0.514503

loop_
_geom_bond_atom_site_label_1
_geom_bond_atom_site_label_2
_ccdc_geom_bond_type
C10   Cl4   S    
C9    C14   S    
C15   O7    A    
Cu1   O3    S    
N2    I2    S    
C2    C16   A    
C11   C13   S    
C9    C10   D    
C19   C20   A    
C9    H7    S    
C17   C18   A    
C17   I3    S    
C1    O2    A    
C7    C8    D    
Cu1   O5    S    
C5    H5    S    
Cu1   Cu2   S    
C12   O4    A    
Cu2   O4    S    
Cu1   N2    S    
C15   O8    A    
C7    H1    S    
Cu2   O8    S    
C11   I1    S    
C2    C3    A    
C14   O5    A    
C5    C6    A    
C8    H6    S    
Cu1   O1    S    
N1    Cl2   S    
C12   O3    A    
C3    C4    A    
C18   Cl3   S    
C6    C20   A    
C13   H2    S    
C8    C10   S    
C18   C19   A    
C16   H3    S    
C19   H4    S    
Cu2   O2    S    
C4    C5    A    
C3    C12   S    
Cu2   N1    S    
C6    C15   S    
C1    C7    S    
Cu2   O6    S    
C2    C20   A    
C13   N2    D    
C1    O1    A    
Cu1   O7    S    
C4    Cl1   S    
C11   N1    D    
C16   C17   A    
C14   O6    A    
