data_mof_unit_25098.cif
_audit_creation_date              2013-03-05T15:50:13-0500
_audit_creation_method            fapswitch 2.2
_symmetry_space_group_name_H-M    P1
_symmetry_Int_Tables_number       1
_space_group_crystal_system       triclinic
_cell_length_a                    14.984235
_cell_length_b                    15.053763
_cell_length_c                    34.874855
_cell_angle_alpha                 90.488116
_cell_angle_beta                  90.204161
_cell_angle_gamma                 60.254609
_cell_volume                      6829.91545193

loop_
_atom_site_label
_atom_site_type_symbol
_atom_site_description
_atom_site_fract_x
_atom_site_fract_y
_atom_site_fract_z
_atom_type_partial_charge
O1    O     O_R   0.502070 0.323090 0.541280 -0.439961
O2    O     O_R   0.338340 0.520690 0.539540 -0.436529
C1    C     C_R   0.301145 0.608625 0.555514 0.561568
O3    O     O_R   0.324760 0.674070 0.543580 -0.531169
O4    O     O_R   0.522400 0.640310 0.540110 -0.514390
C2    C     C_R   0.611361 0.589307 0.554688 0.597765
O5    O     O_R   0.675940 0.500630 0.542210 -0.434851
O6    O     O_R   0.641790 0.337020 0.538150 -0.484029
C3    C     C_R   0.592286 0.297601 0.553001 0.550267
O7    O     O_R   0.500260 0.324550 0.456580 -0.527320
O8    O     O_R   0.336660 0.522040 0.461020 -0.487240
C4    C     C_R   0.299355 0.610510 0.446229 0.558790
O9    O     O_R   0.322940 0.675540 0.458880 -0.519641
O10   O     O_R   0.520720 0.641670 0.461580 -0.519614
C5    C     C_R   0.608281 0.590826 0.445491 0.587000
O11   O     O_R   0.674120 0.502090 0.457500 -0.422182
O12   O     O_R   0.640110 0.338380 0.459630 -0.467602
C6    C     C_R   0.588070 0.301923 0.443850 0.545803
Cr1   Cr    Cr6+3 0.421670 0.426920 0.499620 1.124658
Cr2   Cr    Cr6+3 0.427030 0.651190 0.500980 1.025599
Cr3   Cr    Cr6+3 0.651280 0.421870 0.499380 1.125197
O13   O     O_3   0.499990 0.499990 0.499990 -0.282163
N1    N     N_R   0.776360 0.625557 0.760840 -0.216815
N2    N     N_R   0.766452 0.621047 0.723059 -0.144830
C7    C     C_R   0.630566 0.627452 0.590861 -0.071055
C8    C     C_R   0.724150 0.624704 0.599321 0.195798
C9    C     C_R   0.738489 0.654989 0.636230 0.234774
C10   C     C_R   0.662631 0.680783 0.664885 -0.033649
C11   C     C_R   0.568520 0.685712 0.655623 0.166160
C12   C     C_R   0.552788 0.661898 0.618527 -0.170770
N3    N     N_R   0.613155 0.777639 0.725313 -0.189491
N4    N     N_R   0.623128 0.782091 0.763076 -0.219229
C13   C     C_R   0.703713 0.705043 0.781710 0.337780
C14   C     C_R   0.683782 0.696194 0.704771 0.377833
C15   C     C_R   0.791808 0.624713 0.843174 -0.139086
C16   C     C_R   0.798634 0.626448 0.882965 -0.176571
C17   C     C_R   0.634445 0.784485 0.885505 0.257118
C18   C     C_R   0.630096 0.783739 0.845467 -0.088243
C19   C     C_R   0.709116 0.704940 0.823956 -0.008407
C20   C     C_R   0.722744 0.708329 0.904549 0.015215
H1    H     H_    0.481478 0.662796 0.612051 0.171891
H2    H     H_    0.866881 0.566447 0.896542 0.139998
H3    H     H_    0.853268 0.561986 0.827443 0.150033
H4    H     H_    0.564340 0.845517 0.831349 0.147973
C21   C     C_R   0.723933 0.066070 0.904084 -0.066580
C22   C     C_R   0.646143 0.069542 0.880551 -0.128576
C23   C     C_R   0.643973 0.088188 0.841292 0.221426
C24   C     C_R   0.723756 0.099051 0.825014 0.045681
C25   C     C_R   0.800631 0.099467 0.848361 0.228868
C26   C     C_R   0.798215 0.085551 0.888224 -0.139396
C27   C     C_R   0.719186 0.197793 0.767562 -0.075671
C28   C     C_R   0.710472 0.212283 0.728085 -0.106950
C29   C     C_R   0.707349 0.138932 0.703858 0.026548
C30   C     C_R   0.717160 0.048935 0.719311 -0.117786
C31   C     C_R   0.727568 0.033689 0.758799 -0.071676
C32   C     C_R   0.726146 0.109219 0.783165 0.080323
C33   C     C_R   0.607707 0.156939 0.644391 -0.123178
C34   C     C_R   0.581972 0.190435 0.606367 0.236401
C35   C     C_R   0.727427 0.220690 0.604501 0.223402
C36   C     C_R   0.750369 0.188852 0.642399 -0.115013
C37   C     C_R   0.689503 0.159565 0.662726 -0.068703
C38   C     C_R   0.635633 0.232916 0.587596 0.013833
H5    H     H_    0.589622 0.052198 0.892116 0.172880
H6    H     H_    0.856459 0.085560 0.906638 0.130043
H7    H     H_    0.815364 0.188590 0.656250 0.143421
H8    H     H_    0.702257 0.282532 0.716522 0.137468
H9    H     H_    0.716970 0.257111 0.786013 0.148275
H10   H     H_    0.715758 0.991312 0.700890 0.102642
H11   H     H_    0.733865 0.964360 0.770508 0.145869
H12   H     H_    0.560624 0.133843 0.660239 0.141818
C39   C     C_R   0.086432 0.700747 0.910054 0.024509
C40   C     C_R   0.112439 0.764276 0.889323 -0.135775
C41   C     C_R   0.131292 0.749585 0.850067 -0.127860
C42   C     C_R   0.125451 0.670438 0.830863 0.034759
C43   C     C_R   0.108286 0.601374 0.851987 -0.118615
C44   C     C_R   0.088673 0.616516 0.891330 -0.127247
C45   C     C_R   0.194174 0.571229 0.769938 -0.099331
C46   C     C_R   0.201922 0.567289 0.730034 -0.041254
C47   C     C_R   0.144824 0.656127 0.708237 0.076616
C48   C     C_R   0.078709 0.748702 0.726931 -0.099005
C49   C     C_R   0.071836 0.752884 0.766841 -0.104886
C50   C     C_R   0.130622 0.664453 0.788650 0.030969
C51   C     C_R   0.190380 0.723239 0.651791 -0.149731
C52   C     C_R   0.228595 0.711637 0.614801 -0.165381
C53   C     C_R   0.204442 0.564868 0.604668 0.194018
C54   C     C_R   0.165407 0.576645 0.642391 0.183670
C55   C     C_R   0.163033 0.653826 0.666514 -0.036028
C56   C     C_R   0.240785 0.630051 0.591421 -0.034290
H13   H     H_    0.111381 0.829617 0.902916 0.118155
H14   H     H_    0.068495 0.566401 0.906452 0.124118
H15   H     H_    0.255059 0.495524 0.716231 0.142955
H16   H     H_    0.240305 0.502316 0.786250 0.103595
H17   H     H_    0.146550 0.802493 0.834406 0.102489
H18   H     H_    0.033898 0.817996 0.710649 0.099920
H19   H     H_    0.020885 0.825312 0.780739 0.107304
H20   H     H_    0.188545 0.783022 0.669863 0.169312
H21   H     H_    0.254472 0.763504 0.605398 0.165590
H22   H     H_    0.103769 0.539565 0.837688 0.111300
C57   C     C_R   0.692407 0.717919 0.090796 -0.020527
C58   C     C_R   0.601110 0.796542 0.106828 -0.119384
C59   C     C_R   0.572333 0.789595 0.144505 0.210725
C60   C     C_R   0.637198 0.701730 0.166286 0.021324
C61   C     C_R   0.723482 0.619997 0.149006 -0.138969
C62   C     C_R   0.750818 0.627856 0.111662 -0.123901
C63   C     C_R   0.620039 0.616713 0.224602 -0.104265
C64   C     C_R   0.616653 0.608814 0.264518 0.182201
C65   C     C_R   0.618083 0.685199 0.288149 0.008066
C66   C     C_R   0.617667 0.770394 0.271320 0.265969
C67   C     C_R   0.625649 0.773909 0.231540 -0.023246
C68   C     C_R   0.625189 0.698354 0.208070 -0.005360
C69   C     C_R   0.533823 0.728575 0.351831 -0.087424
C70   C     C_R   0.533796 0.707176 0.390420 -0.147128
C71   C     C_R   0.715553 0.579282 0.386982 0.223374
C72   C     C_R   0.714220 0.601829 0.347838 -0.017258
C73   C     C_R   0.623051 0.674390 0.330120 0.055315
C74   C     C_R   0.622480 0.628918 0.408176 0.010305
H23   H     H_    0.553681 0.864804 0.090399 0.156672
H24   H     H_    0.821169 0.565483 0.099994 0.148940
H25   H     H_    0.783712 0.561301 0.330879 0.181510
H26   H     H_    0.618046 0.559420 0.206266 0.139156
H27   H     H_    0.633144 0.835342 0.218868 0.130921
H28   H     H_    0.462040 0.782404 0.338465 0.135074
H29   H     H_    0.461134 0.747207 0.405508 0.154097
H30   H     H_    0.773723 0.552349 0.165334 0.143079
C75   C     C_R   0.744614 0.992249 0.099302 -0.033179
C76   C     C_R   0.828422 0.988825 0.118833 -0.112947
C77   C     C_R   0.828850 0.996133 0.158967 0.220961
C78   C     C_R   0.743765 0.004717 0.179687 0.057519
C79   C     C_R   0.663239 0.001918 0.160222 -0.105326
C80   C     C_R   0.663377 0.996198 0.120415 -0.119902
C81   C     C_R   0.661967 0.143044 0.228000 0.254607
C82   C     C_R   0.635108 0.175574 0.266043 0.265956
C83   C     C_R   0.682406 0.106186 0.296125 -0.015643
C84   C     C_R   0.746219 0.000973 0.288090 0.211204
C85   C     C_R   0.765636 0.967905 0.249770 -0.082487
C86   C     C_R   0.725526 0.038630 0.219870 -0.037818
C87   C     C_R   0.729311 0.186627 0.350033 0.240713
C88   C     C_R   0.710472 0.228588 0.387570 0.261310
C89   C     C_R   0.565966 0.198111 0.393083 -0.160468
C90   C     C_R   0.588496 0.151044 0.357337 -0.110596
C91   C     C_R   0.668592 0.146178 0.335488 0.047594
C92   C     C_R   0.624239 0.239998 0.408213 -0.012923
H31   H     H_    0.893167 0.982205 0.102769 0.171041
H32   H     H_    0.598793 0.996987 0.106122 0.161274
H33   H     H_    0.541197 0.120982 0.346072 0.132562
H34   H     H_    0.812334 0.887264 0.243255 0.223721
H35   H     H_    0.597312 0.009810 0.175895 0.145199
H36   H     H_    0.500719 0.203821 0.408528 0.166611
C93   C     C_R   0.085519 0.709290 0.093930 -0.022038
C94   C     C_R   0.093460 0.623428 0.112397 -0.114018
C95   C     C_R   0.124089 0.605143 0.150510 -0.112823
C96   C     C_R   0.145216 0.673417 0.170851 0.030087
C97   C     C_R   0.149910 0.752986 0.151199 0.226793
C98   C     C_R   0.120448 0.769305 0.112627 -0.099296
C99   C     C_R   0.241118 0.646887 0.231475 -0.112079
C100  C     C_R   0.246746 0.642694 0.271254 -0.102467
C101  C     C_R   0.163328 0.653218 0.292772 0.021597
C102  C     C_R   0.073740 0.669133 0.274382 0.011258
C103  C     C_R   0.064950 0.677903 0.234483 0.237435
C104  C     C_R   0.150206 0.666406 0.212835 0.028931
C105  C     C_R   0.192990 0.563954 0.355337 0.193943
C106  C     C_R   0.228189 0.554268 0.393008 -0.089741
C107  C     C_R   0.207401 0.724101 0.391282 -0.125517
C108  C     C_R   0.171519 0.736491 0.353518 0.190511
C109  C     C_R   0.169129 0.653716 0.334777 0.001625
C110  C     C_R   0.240250 0.631701 0.410466 -0.059916
H37   H     H_    0.069203 0.574507 0.098340 0.142706
H38   H     H_    0.117295 0.834179 0.098148 0.175658
H39   H     H_    0.316445 0.630522 0.285359 0.159195
H40   H     H_    0.306971 0.636814 0.215170 0.144958
H41   H     H_    0.123267 0.542284 0.165117 0.134685
H42   H     H_    0.009913 0.676829 0.291266 0.222531
H43   H     H_    0.251174 0.483419 0.408012 0.188897
H44   H     H_    0.214091 0.785225 0.405114 0.171042
O14   O     O_R   0.017640 0.822070 0.960410 -0.519284
O15   O     O_R   0.822000 0.989470 0.960340 -0.495405
C111  C     C_R   0.736037 0.024649 0.943031 0.561276
O16   O     O_R   0.666920 0.007430 0.955290 -0.496402
O17   O     O_R   0.694410 0.812480 0.959650 -0.454618
C112  C     C_R   0.747030 0.724012 0.944322 0.547573
O18   O     O_R   0.831550 0.656950 0.958960 -0.528147
O19   O     O_R   0.998590 0.685540 0.963930 -0.500944
C113  C     C_R   0.037306 0.734667 0.948025 0.542720
O20   O     O_R   0.008220 0.831200 0.045060 -0.529178
O21   O     O_R   0.813270 0.997930 0.038810 -0.498783
C114  C     C_R   0.745254 0.984596 0.057140 0.573032
O22   O     O_R   0.657500 0.016560 0.039940 -0.507787
O23   O     O_R   0.685680 0.820940 0.038120 -0.527928
C115  C     C_R   0.733550 0.734353 0.054792 0.537650
O24   O     O_R   0.822130 0.666070 0.043610 -0.510606
O25   O     O_R   0.989860 0.694000 0.042400 -0.496870
C116  C     C_R   0.028454 0.744537 0.057737 0.539845
Cr4   Cr    Cr6+3 0.910810 0.908010 0.001130 1.020650
Cr5   Cr    Cr6+3 0.682800 0.909890 0.998370 1.037938
Cr6   Cr    Cr6+3 0.908370 0.682300 0.002180 1.011094
O26   O     O_3   0.833990 0.833400 0.000560 -0.268800
N5    N     N_R   0.802695 0.595082 0.570522 0.099784
O27   O     O_R   0.899443 0.543750 0.579836 -0.198677
O28   O     O_R   0.778070 0.623848 0.535140 -0.315307
O29   O     O_3   0.571952 0.083233 0.817534 -0.570629
C117  C     C_3   0.469935 0.153854 0.828829 0.011227
H45   H     H_    0.432446 0.207531 0.804690 0.160505
H46   H     H_    0.463395 0.201913 0.854394 0.114193
C118  C     C_3   0.411737 0.096085 0.836160 -0.260955
H47   H     H_    0.415558 0.051190 0.810123 0.191988
H48   H     H_    0.448393 0.041909 0.860195 0.192752
C119  C     C_3   0.299313 0.169207 0.846084 -0.486017
H49   H     H_    0.293535 0.212273 0.872853 0.148570
H50   H     H_    0.259189 0.124867 0.850476 0.148670
H51   H     H_    0.260783 0.224019 0.822363 0.159373
O30   O     O_3   0.499366 0.189840 0.588569 -0.498245
C120  C     C_3   0.520030 0.087941 0.582902 0.030353
H52   H     H_    0.446218 0.091563 0.575346 0.184419
H53   H     H_    0.547655 0.041221 0.609399 0.107671
C121  C     C_3   0.596080 0.034846 0.549778 -0.291988
H54   H     H_    0.564652 0.079744 0.523107 0.185421
H55   H     H_    0.670646 0.030783 0.556314 0.140049
C122  C     C_3   0.615556 0.926219 0.543261 -0.451051
H56   H     H_    0.648024 0.879832 0.569540 0.150615
H57   H     H_    0.671344 0.889435 0.519448 0.186865
H58   H     H_    0.542851 0.927664 0.535567 0.160343
O31   O     O_3   0.873345 0.118594 0.831447 -0.575782
C123  C     C_3   0.974953 0.049585 0.843480 0.009734
H59   H     H_    0.022501 0.015366 0.817369 0.151372
H60   H     H_    0.982847 0.983812 0.860592 0.118415
C124  C     C_3   0.018046 0.108471 0.865458 -0.255433
H61   H     H_    0.021885 0.164546 0.845973 0.178703
H62   H     H_    0.966361 0.151529 0.889727 0.166833
C125  C     C_3   0.125130 0.036762 0.881104 -0.496606
H63   H     H_    0.121592 0.984245 0.902382 0.147583
H64   H     H_    0.155565 0.082089 0.895651 0.148960
H65   H     H_    0.178135 0.991501 0.857444 0.147911
O32   O     O_3   0.791461 0.247496 0.585553 -0.526564
C126  C     C_3   0.866346 0.161732 0.564640 0.025257
H66   H     H_    0.892066 0.191455 0.540575 0.166147
H67   H     H_    0.834968 0.115111 0.551363 0.093634
C127  C     C_3   0.960237 0.094518 0.589719 -0.272014
H68   H     H_    0.989217 0.142667 0.603053 0.204458
H69   H     H_    0.938328 0.058902 0.612874 0.147571
C128  C     C_3   0.046468 0.008785 0.566484 -0.470676
H70   H     H_    0.020469 0.956914 0.554431 0.146240
H71   H     H_    0.113501 0.963432 0.585411 0.162260
H72   H     H_    0.071043 0.040896 0.542866 0.162134
N6    N     N_R   0.125692 0.512803 0.655818 0.093957
O33   O     O_R   0.175620 0.414568 0.649619 -0.251288
O34   O     O_R   0.041764 0.552050 0.676107 -0.283156
N7    N     N_R   0.203437 0.489601 0.579555 0.121279
O35   O     O_R   0.275640 0.394450 0.581913 -0.231840
O36   O     O_R   0.140237 0.518538 0.550683 -0.279535
N8    N     N_R   0.611375 0.523485 0.280407 0.094030
O37   O     O_R   0.651922 0.436577 0.262018 -0.310206
O38   O     O_R   0.556598 0.534940 0.310847 -0.327799
N9    N     N_R   0.478722 0.872107 0.160248 0.067477
O39   O     O_R   0.439734 0.963955 0.146412 -0.352026
O40   O     O_R   0.426540 0.854276 0.185784 -0.283327
O41   O     O_3   0.615314 0.847882 0.293699 -0.531465
C129  C     C_3   0.511952 0.926736 0.298717 0.021627
H73   H     H_    0.504906 0.958623 0.328112 0.171806
H74   H     H_    0.455064 0.899533 0.296715 0.134076
C130  C     C_3   0.482775 0.012935 0.269829 -0.284299
H75   H     H_    0.536066 0.043753 0.272668 0.141413
H76   H     H_    0.488468 0.983353 0.240184 0.196319
C131  C     C_3   0.372647 0.099019 0.276343 -0.439022
H77   H     H_    0.318379 0.068944 0.274708 0.212557
H78   H     H_    0.351202 0.157680 0.253796 0.153731
H79   H     H_    0.365474 0.135412 0.304861 0.162409
O42   O     O_3   0.828140 0.656995 0.644228 -0.468919
C132  C     C_3   0.807615 0.759401 0.648031 0.032352
H80   H     H_    0.832394 0.768779 0.677149 0.167039
H81   H     H_    0.724767 0.818858 0.645015 0.079146
C133  C     C_3   0.869830 0.779601 0.618170 -0.226470
H82   H     H_    0.952645 0.722328 0.621201 0.215227
H83   H     H_    0.844610 0.771536 0.588971 0.198060
C134  C     C_3   0.855766 0.886783 0.622749 -0.505153
H84   H     H_    0.773529 0.945501 0.619422 0.144873
H85   H     H_    0.900968 0.899305 0.600429 0.153016
H86   H     H_    0.883131 0.895699 0.651408 0.148427
N10   N     N_R   0.810825 0.506144 0.404381 0.102968
O43   O     O_R   0.835935 0.524893 0.438014 -0.255735
O44   O     O_R   0.879385 0.429102 0.384429 -0.257276
O45   O     O_3   0.558277 0.274729 0.273507 -0.502112
C135  C     C_3   0.462764 0.278166 0.268443 0.026895
H87   H     H_    0.442660 0.251920 0.295065 0.144543
H88   H     H_    0.463632 0.229130 0.244039 0.138915
C136  C     C_3   0.378755 0.387186 0.260164 -0.223481
H89   H     H_    0.363100 0.434196 0.286616 0.201448
H90   H     H_    0.404855 0.420144 0.237306 0.186734
C137  C     C_3   0.280622 0.388794 0.246887 -0.438478
H91   H     H_    0.293653 0.348550 0.218868 0.145805
H92   H     H_    0.217952 0.468488 0.243306 0.165789
H93   H     H_    0.255948 0.351029 0.268230 0.222515
O46   O     O_3   0.616259 0.212735 0.198690 -0.572226
C138  C     C_3   0.678843 0.255579 0.189932 0.056904
H94   H     H_    0.748009 0.198952 0.173919 0.163128
H95   H     H_    0.704009 0.279670 0.216244 0.218470
C139  C     C_3   0.618345 0.349568 0.164827 -0.255152
H96   H     H_    0.583853 0.329697 0.140268 0.183009
H97   H     H_    0.555171 0.410990 0.182017 0.183043
C140  C     C_3   0.687493 0.388799 0.149327 -0.473824
H98   H     H_    0.728442 0.402819 0.173141 0.171164
H99   H     H_    0.640272 0.461518 0.133743 0.152658
H100  H     H_    0.745118 0.331845 0.129177 0.169389
N11   N     N_R   0.490860 0.707510 0.684034 0.101243
O47   O     O_R   0.515097 0.657261 0.716102 -0.307827
O48   O     O_R   0.394213 0.763694 0.675206 -0.358417
N12   N     N_R   0.912211 0.001483 0.177585 0.081292
O49   O     O_R   0.934291 0.976825 0.213404 -0.223918
O50   O     O_R   0.969020 0.028468 0.158294 -0.300863
N13   N     N_R   0.791672 0.927529 0.318307 0.123035
O51   O     O_R   0.883330 0.849495 0.314086 -0.292885
O52   O     O_R   0.739230 0.933217 0.348775 -0.322894
N14   N     N_R   0.806388 0.189862 0.326472 0.085994
O53   O     O_R   0.817510 0.270284 0.326988 -0.207680
O54   O     O_R   0.868736 0.111141 0.305713 -0.259460
O55   O     O_3   0.771938 0.264436 0.403258 -0.498547
C141  C     C_3   0.869013 0.181004 0.413505 0.062379
H101  H     H_    0.922674 0.211215 0.417538 0.207807
H102  H     H_    0.903009 0.121619 0.390520 0.174727
C142  C     C_3   0.863383 0.132155 0.451211 -0.300248
H103  H     H_    0.834535 0.190819 0.474406 0.174069
H104  H     H_    0.809581 0.101826 0.448116 0.156479
C143  C     C_3   0.968621 0.044154 0.462406 -0.475862
H105  H     H_    0.999940 0.985471 0.439202 0.186269
H106  H     H_    0.961048 0.007670 0.488745 0.144112
H107  H     H_    0.022874 0.072907 0.468057 0.161191
N15   N     N_R   0.143629 0.830862 0.333975 0.097764
O56   O     O_R   0.074826 0.863975 0.306915 -0.205635
O57   O     O_R   0.180527 0.888778 0.345359 -0.331002
N16   N     N_R   0.969268 0.699652 0.216738 0.061238
O58   O     O_R   0.911253 0.668453 0.232574 -0.339668
O59   O     O_R   0.933687 0.760599 0.187492 -0.347264
N17   N     N_R   0.189566 0.478978 0.337729 0.067465
O60   O     O_R   0.258183 0.385789 0.346595 -0.364793
O61   O     O_R   0.108897 0.493775 0.318498 -0.319225
N18   N     N_R   0.178725 0.820902 0.169819 0.101312
O62   O     O_R   0.150933 0.852167 0.204904 -0.199902
O63   O     O_R   0.223347 0.861052 0.150159 -0.264689
O64   O     O_3   0.555718 0.865771 0.905098 -0.573896
C144  C     C_3   0.492308 0.833040 0.922875 0.016696
H108  H     H_    0.450890 0.887252 0.946755 0.158044
H109  H     H_    0.536987 0.755832 0.936075 0.118828
C145  C     C_3   0.412669 0.835421 0.894532 -0.283353
H110  H     H_    0.366747 0.913744 0.882694 0.164810
H111  H     H_    0.452170 0.781451 0.870400 0.169615
C146  C     C_3   0.340992 0.804727 0.913859 -0.477271
H112  H     H_    0.385629 0.726656 0.925984 0.158074
H113  H     H_    0.286516 0.804556 0.892290 0.150755
H114  H     H_    0.296664 0.859835 0.937130 0.151771

loop_
_geom_bond_atom_site_label_1
_geom_bond_atom_site_label_2
_geom_bond_distance
_ccdc_geom_bond_type
C143  H106  1.108827 S    
C63   C68   1.398301 A    
C101  C102  1.395754 A    
C25   O31   1.391680 S    
C117  H46   1.116785 S    
C16   H2    1.083089 S    
C123  H59   1.111163 S    
C41   H17   1.083475 S    
C47   C55   1.478329 S    
C72   C73   1.402119 A    
C123  C124  1.530707 S    
N11   O48   1.301243 A    
C135  H87   1.111378 S    
C76   C77   1.403294 A    
O4    C2    1.269307 A    
C49   H19   1.083617 S    
C89   C92   1.405646 A    
C143  H107  1.110694 S    
C64   C65   1.417777 A    
N8    O38   1.301190 A    
C133  H82   1.110570 S    
C76   H31   1.082564 S    
N6    O33   1.300460 A    
C134  H84   1.110479 S    
N5    O28   1.301399 A    
C8    N5    1.439700 S    
O19   C113  1.275225 A    
C20   C112  1.479249 S    
C119  H51   1.110874 S    
N15   O56   1.301181 A    
C82   O45   1.382568 S    
C35   C36   1.392396 A    
Cr3   O13   1.969028 S    
C118  H47   1.111798 S    
C126  H67   1.117298 S    
C105  C106  1.395525 A    
C132  H81   1.118661 S    
C27   C28   1.391296 A    
C137  H93   1.109810 S    
C39   C113  1.475998 S    
C131  H77   1.110866 S    
C90   C91   1.394522 A    
N18   O63   1.301453 A    
C145  H110  1.111447 S    
C21   C22   1.403003 A    
C43   H22   1.083207 S    
N2    C14   1.355404 A    
C141  H101  1.110906 S    
C126  C127  1.536829 S    
C59   N9    1.441122 S    
C43   C44   1.397156 A    
C125  H63   1.109207 S    
N11   O47   1.301429 A    
O10   C5    1.274186 A    
C16   C20   1.406609 A    
C85   H34   1.080956 S    
N12   O49   1.300320 A    
C146  H114  1.110710 S    
C139  H96   1.111796 S    
C108  N15   1.443185 S    
C36   H7    1.083836 S    
C102  C103  1.398424 A    
O14   C113  1.269277 A    
C131  H78   1.108994 S    
C108  C109  1.418230 A    
O9    Cr2   2.036738 S    
O2    Cr1   1.928687 S    
C52   C56   1.402861 A    
C40   C41   1.392350 A    
C145  C146  1.524546 S    
C90   H33   1.083829 S    
C89   C90   1.385915 A    
C33   C37   1.398124 A    
C2    O5    1.272423 A    
C57   C115  1.476499 S    
C64   N8    1.441043 S    
C136  H90   1.111784 S    
C67   H27   1.083305 S    
C21   C26   1.400673 A    
O7    C6    1.265386 A    
C79   H35   1.083991 S    
N18   O62   1.300564 A    
C2    C7    1.467328 S    
C120  H52   1.110854 S    
C99   C100  1.389621 A    
O23   C115  1.278199 A    
C58   H23   1.082497 S    
C114  O22   1.300709 A    
C67   C68   1.398402 A    
C71   N10   1.436640 S    
O14   Cr4   2.045181 S    
C105  C109  1.415321 A    
O20   Cr4   2.038181 S    
C142  H104  1.110771 S    
O11   Cr3   2.037744 S    
C69   C70   1.386504 A    
C102  H42   1.080622 S    
C78   C79   1.400956 A    
O4    Cr2   1.920660 S    
C29   C30   1.400619 A    
C66   C67   1.396587 A    
C11   C12   1.389816 A    
C141  C142  1.534905 S    
C45   C50   1.401753 A    
C125  H65   1.110852 S    
N9    O39   1.301440 A    
C17   O64   1.383834 S    
C30   H10   1.083555 S    
C95   H41   1.083916 S    
N14   O53   1.301371 A    
C129  H73   1.111100 S    
C29   C37   1.465658 S    
C139  C140  1.526828 S    
N3    N4    1.329758 A    
C65   C66   1.412166 A    
C12   H1    1.084861 S    
O15   Cr4   1.922297 S    
C15   H3    1.082862 S    
O32   C126  1.417780 S    
C72   H25   1.083557 S    
C127  H68   1.111451 S    
C69   H28   1.081121 S    
N16   O59   1.301135 A    
C35   O32   1.383263 S    
O6    Cr3   1.921185 S    
N13   O52   1.300584 A    
C89   H36   1.083029 S    
N17   O60   1.301767 A    
C81   C86   1.402487 A    
C121  C122  1.526904 S    
C101  C109  1.467372 S    
C7    C8    1.412394 A    
C77   N12   1.442731 S    
O17   C112  1.276702 A    
C137  H92   1.104770 S    
C138  H94   1.109956 S    
C122  H57   1.110360 S    
C51   C52   1.387345 A    
C120  C121  1.536803 S    
Cr4   O26   1.967039 S    
O12   C6    1.276143 A    
N3    C14   1.356227 A    
C27   H9    1.083262 S    
C31   H11   1.083569 S    
O24   Cr6   2.037113 S    
C1    O3    1.273984 A    
C133  H83   1.111423 S    
C70   C74   1.410784 A    
C28   C29   1.403707 A    
C122  H58   1.110771 S    
C79   C80   1.390123 A    
C53   C56   1.418648 A    
C30   C31   1.393506 A    
C1    C56   1.483879 S    
C130  H75   1.108568 S    
O42   C132  1.419527 S    
C123  H60   1.115270 S    
C84   C85   1.402197 A    
C135  H88   1.117707 S    
C57   C58   1.404430 A    
C22   H5    1.082492 S    
C129  C130  1.531738 S    
C39   C40   1.404559 A    
C87   N14   1.440382 S    
C33   C34   1.405783 A    
C51   H20   1.083423 S    
C128  H70   1.110521 S    
N6    O34   1.301233 A    
C143  H105  1.111138 S    
C134  H85   1.110490 S    
C60   C61   1.401083 A    
C140  H100  1.110825 S    
O25   Cr6   1.920020 S    
C144  C145  1.533673 S    
C4    O9    1.269934 A    
C135  C136  1.522135 S    
C124  H61   1.111711 S    
C127  C128  1.525357 S    
C119  H50   1.109542 S    
N10   O43   1.301383 A    
N15   O57   1.301660 A    
O19   Cr6   1.920625 S    
C34   C38   1.416022 A    
C133  C134  1.526990 S    
C51   C55   1.399631 A    
C31   C32   1.405344 A    
C59   C60   1.416826 A    
C134  H86   1.111087 S    
C41   C42   1.401876 A    
C15   C16   1.392075 A    
C88   O55   1.386874 S    
C85   C86   1.400565 A    
C106  H43   1.083357 S    
C45   C46   1.395201 A    
O16   Cr5   2.039175 S    
O8    Cr1   1.922456 S    
C8    C9    1.412844 A    
C52   H21   1.083132 S    
C10   C11   1.411315 A    
C138  C139  1.527389 S    
C78   C86   1.466705 S    
C39   C44   1.406813 A    
C145  H111  1.110585 S    
C141  H102  1.113571 S    
N16   O58   1.301656 A    
C106  C110  1.399366 A    
C9    O42   1.385901 S    
C93   C116  1.469479 S    
N12   O50   1.301591 A    
C95   C96   1.403078 A    
O20   C116  1.267193 A    
C33   H12   1.083305 S    
C146  H113  1.108974 S    
C139  H97   1.111977 S    
C57   C62   1.403024 A    
C10   C14   1.467465 S    
O55   C141  1.418484 S    
C66   O41   1.383817 S    
C98   H38   1.083247 S    
C42   C50   1.474123 S    
C130  C131  1.526350 S    
C61   H30   1.083594 S    
C62   H24   1.082972 S    
N7    O36   1.300693 A    
O1    Cr1   2.040346 S    
C119  H49   1.110820 S    
O10   Cr2   1.920993 S    
C107  C110  1.399579 A    
O1    C3    1.275051 A    
C70   H29   1.083094 S    
C88   C92   1.414796 A    
O21   Cr4   1.927568 S    
C54   C55   1.414752 A    
Cr6   O26   1.976214 S    
N8    O37   1.300676 A    
C53   C54   1.415254 A    
C128  H72   1.110537 S    
O25   C116  1.275439 A    
C36   C37   1.392004 A    
C15   C19   1.402157 A    
C93   C98   1.404292 A    
C18   H4    1.083161 S    
C136  H89   1.110211 S    
C103  C104  1.420276 A    
C118  C119  1.525419 S    
O7    Cr1   2.046235 S    
N7    O35   1.300995 A    
C13   C19   1.475222 S    
C24   C25   1.410765 A    
Cr2   O13   1.976583 S    
O22   Cr5   2.045534 S    
C75   C76   1.404965 A    
C60   C68   1.473328 S    
C126  H66   1.110385 S    
C48   H18   1.083415 S    
C81   C82   1.399701 A    
C28   H8    1.083443 S    
C112  O18   1.272478 A    
C71   C72   1.407203 A    
C7    C12   1.399245 A    
C87   C91   1.413163 A    
C22   C23   1.396977 A    
C100  C101  1.399566 A    
C17   C20   1.416900 A    
C63   C64   1.401381 A    
C83   C91   1.467712 S    
N4    C13   1.357646 A    
C125  H64   1.110045 S    
O5    Cr3   2.043037 S    
C93   C94   1.400233 A    
C99   H40   1.083549 S    
O21   C114  1.302883 A    
C18   C19   1.403344 A    
C94   H37   1.083046 S    
N14   O54   1.301100 A    
C121  H54   1.111545 S    
C115  O24   1.270212 A    
O18   Cr6   2.038696 S    
O12   Cr3   1.925307 S    
C84   N13   1.436757 S    
C142  H103  1.110229 S    
C132  H80   1.111696 S    
C111  O16   1.262540 A    
C61   C62   1.390129 A    
C5    C74   1.484379 S    
C44   H14   1.083027 S    
O17   Cr5   1.928422 S    
O6    C3    1.270972 A    
C131  H79   1.110804 S    
C96   C104  1.467836 S    
C45   H16   1.083204 S    
C26   H6    1.081765 S    
C117  H45   1.111291 S    
C107  C108  1.399279 A    
C140  H98   1.110240 S    
C49   C50   1.405521 A    
N13   O51   1.298252 A    
C17   C18   1.397789 A    
C81   O46   1.383796 S    
O46   C138  1.412186 S    
N17   O61   1.300054 A    
C136  C137  1.528793 S    
C121  H55   1.111176 S    
C4    C110  1.469785 S    
C5    O11   1.277488 A    
C100  H39   1.083653 S    
C27   C32   1.399583 A    
C58   C59   1.405184 A    
C75   C80   1.400476 A    
C144  H108  1.110957 S    
C82   C83   1.404544 A    
N1    C13   1.358228 A    
C21   C111  1.472100 S    
C71   C74   1.418982 A    
C142  C143  1.524966 S    
O23   Cr5   1.921063 S    
N5    O27   1.301373 A    
C103  N16   1.441200 S    
C42   C43   1.403395 A    
C3    C38   1.487475 S    
C6    C92   1.480259 S    
Cr1   O13   1.966716 S    
C130  H76   1.108853 S    
N9    O40   1.301459 A    
C46   C47   1.405578 A    
O29   C117  1.416585 S    
O45   C135  1.416699 S    
C75   C114  1.473591 S    
C129  H74   1.115657 S    
O30   C120  1.418422 S    
C23   C24   1.406630 A    
C132  C133  1.529587 S    
N1    N2    1.330360 A    
O41   C129  1.418642 S    
C128  H71   1.110498 S    
Cr5   O26   1.968707 S    
C63   H26   1.081515 S    
C96   C97   1.416799 A    
C140  H99   1.110481 S    
C65   C73   1.471657 S    
C11   N11   1.437820 S    
O15   C111  1.275559 A    
C144  H109  1.116148 S    
C118  H48   1.110532 S    
C25   C26   1.410947 A    
C124  H62   1.110623 S    
C127  H69   1.109607 S    
C117  C118  1.529710 S    
N10   O44   1.301421 A    
C23   O29   1.388931 S    
C80   H32   1.081857 S    
C53   N7    1.432119 S    
C24   C32   1.471192 S    
C35   C38   1.420648 A    
C99   C104  1.401562 A    
C94   C95   1.389147 A    
C120  H53   1.113281 S    
C48   C49   1.394578 A    
O8    C4    1.274039 A    
O3    Cr2   2.039107 S    
C46   H15   1.083090 S    
C124  C125  1.524055 S    
C87   C88   1.415650 A    
C105  N17   1.437916 S    
C137  H91   1.110809 S    
O2    C1    1.277046 A    
C97   C98   1.399507 A    
C138  H95   1.115048 S    
C40   H13   1.081263 S    
C122  H56   1.111250 S    
C83   C84   1.411723 A    
C34   O30   1.386701 S    
O31   C123  1.416607 S    
C47   C48   1.402786 A    
C54   N6    1.440215 S    
O64   C144  1.415590 S    
C9    C10   1.415986 A    
C69   C73   1.393118 A    
C146  H112  1.110785 S    
C97   N18   1.441574 S    
C107  H44   1.083090 S    
C77   C78   1.416276 A    
