data_mof_unit_47614.cif
_audit_creation_date              2012-12-11T16:07:19-0500
_audit_creation_method            fapswitch 2.2
_symmetry_space_group_name_H-M    P1
_symmetry_Int_Tables_number       1
_space_group_crystal_system       triclinic
_cell_length_a                    17.092074
_cell_length_b                    17.092079
_cell_length_c                    17.326724
_cell_angle_alpha                 89.997339
_cell_angle_beta                  90.000378
_cell_angle_gamma                 89.999896
_cell_volume                      5061.81318729

loop_
_atom_site_label
_atom_site_type_symbol
_atom_type_description
_atom_site_fract_x
_atom_site_fract_y
_atom_site_fract_z
_atom_type_partial_charge
C1    C     C_R   0.421519 0.671617 0.644625 -0.134726
C2    C     C_R   0.605735 0.698449 0.606201 -0.134253
C3    C     C_3   0.754325 0.279207 0.722805 0.305918
C4    C     C_3   0.720840 0.754263 0.277213 0.305936
C5    C     C_3   0.190545 0.223365 0.637680 0.300336
C6    C     C_3   0.776493 0.190476 0.362258 0.300320
C7    C     C_3   0.245534 0.720652 0.722840 0.305899
C8    C     C_3   0.745544 0.779357 0.777165 0.305900
C9    C     C_3   0.276497 0.309516 0.137741 0.300329
C10   C     C_3   0.690553 0.276648 0.862325 0.300339
C11   C     C_3   0.220850 0.745741 0.222788 0.305943
C12   C     C_3   0.254333 0.220781 0.777193 0.305915
C13   C     C_R   0.698452 0.394264 0.393805 -0.134269
C14   C     C_3   0.723275 0.690602 0.137647 0.300343
C15   C     C_3   0.309548 0.723536 0.862244 0.300313
C16   C     C_3   0.779317 0.254442 0.222826 0.305887
C17   C     C_3   0.279849 0.207215 0.356991 -0.392778
C18   C     C_3   0.226850 0.135363 0.359430 -0.916572
C19   C     C_3   0.842835 0.772286 0.556287 -0.406897
C20   C     C_3   0.916902 0.821365 0.548550 -0.889065
C21   C     C_3   0.227121 0.842448 0.443936 -0.406895
C22   C     C_3   0.178115 0.916562 0.451667 -0.888916
C23   C     C_3   0.792580 0.279587 0.642952 -0.392830
C24   C     C_R   0.329934 0.577618 0.645670 -0.156841
C25   C     C_3   0.864389 0.226529 0.640520 -0.916459
C26   C     C_3   0.720527 0.792452 0.357094 -0.392862
C27   C     C_3   0.773643 0.864218 0.359557 -0.916380
C28   C     C_3   0.157400 0.227329 0.556141 -0.406885
C29   C     C_3   0.083240 0.178386 0.548449 -0.888958
C30   C     C_3   0.772380 0.157223 0.443749 -0.406839
C31   C     C_3   0.821251 0.083013 0.451418 -0.889096
C32   C     C_3   0.207142 0.720080 0.643053 -0.392772
C33   C     C_3   0.135288 0.773075 0.640627 -0.916652
C34   C     C_3   0.707161 0.779932 0.856956 -0.392761
C35   C     C_R   0.577599 0.670049 0.354316 -0.156792
C36   C     C_3   0.635306 0.726939 0.859392 -0.916676
C37   C     C_3   0.272388 0.342755 0.056245 -0.406854
C38   C     C_3   0.321257 0.416966 0.048567 -0.889084
C39   C     C_3   0.657421 0.272701 0.943870 -0.406885
C40   C     C_3   0.583257 0.321640 0.951560 -0.888952
C41   C     C_3   0.220548 0.707558 0.142905 -0.392875
C42   C     C_3   0.273652 0.635784 0.140447 -0.916362
C43   C     C_3   0.292595 0.220387 0.857043 -0.392823
C44   C     C_3   0.364410 0.273438 0.859478 -0.916466
C45   C     C_3   0.727150 0.657536 0.056074 -0.406901
C46   C     C_R   0.394260 0.301545 0.606192 -0.134327
C47   C     C_3   0.678114 0.583442 0.048338 -0.888926
C48   C     C_3   0.342848 0.727702 0.943709 -0.406885
C49   C     C_3   0.416937 0.678653 0.951427 -0.889071
C50   C     C_3   0.779851 0.292807 0.143022 -0.392784
C51   C     C_3   0.726850 0.364657 0.140593 -0.916569
C52   C     C_R   0.301546 0.605740 0.393805 -0.134369
C53   C     C_R   0.670055 0.422388 0.645677 -0.156810
C54   C     C_R   0.922379 0.170063 0.145670 -0.156825
C55   C     C_R   0.105738 0.801549 0.893807 -0.134257
C56   C     C_R   0.198451 0.105734 0.106201 -0.134272
C57   C     C_R   0.606729 0.301520 0.394429 -0.159728
C58   C     C_R   0.829942 0.922390 0.854324 -0.156839
C59   C     C_R   0.077600 0.829950 0.145683 -0.156793
C60   C     C_R   0.894259 0.198455 0.893810 -0.134335
C61   C     C_R   0.801548 0.894261 0.106198 -0.134373
C62   C     C_R   0.170054 0.077611 0.854322 -0.156813
C63   C     C_R   0.921525 0.828390 0.855370 -0.134730
C64   C     C_R   0.106728 0.198478 0.105576 -0.159724
C65   C     C_R   0.198481 0.893272 0.894429 -0.159737
C66   C     C_R   0.828381 0.078478 0.144626 -0.134747
C67   C     C_R   0.078466 0.171604 0.855360 -0.134836
C68   C     C_R   0.698479 0.606726 0.605578 -0.159739
C69   C     C_R   0.893267 0.801517 0.105568 -0.159634
C70   C     C_R   0.801516 0.106734 0.894438 -0.159655
C71   C     C_R   0.171588 0.921540 0.144648 -0.134903
C72   C     C_3   0.320804 0.321231 0.253018 0.065382
C73   C     C_3   0.734272 0.735643 0.662959 0.060844
C74   C     C_3   0.264331 0.734288 0.337065 0.060851
C75   C     C_3   0.678749 0.320827 0.747006 0.065384
C76   C     C_3   0.679149 0.678739 0.252978 0.065393
C77   C     C_3   0.265716 0.264338 0.662935 0.060848
C78   C     C_3   0.735647 0.265731 0.337048 0.060847
C79   C     C_R   0.328385 0.421526 0.355371 -0.134751
C80   C     C_3   0.321221 0.679196 0.746979 0.065366
C81   C     C_3   0.821227 0.820814 0.753015 0.065364
C82   C     C_3   0.235646 0.234266 0.162961 0.060849
C83   C     C_3   0.765716 0.235663 0.837067 0.060850
C84   C     C_3   0.179149 0.821261 0.247023 0.065393
C85   C     C_3   0.178750 0.179174 0.752995 0.065382
C86   C     C_3   0.764334 0.765713 0.162940 0.060853
C87   C     C_3   0.234273 0.764356 0.837050 0.060842
C88   C     C_3   0.820800 0.178773 0.246980 0.065383
C89   C     C_R   0.363089 0.637521 0.687725 0.066430
C90   C     C_R   0.578466 0.328397 0.644640 -0.134846
C91   C     C_R   0.683077 0.317769 0.376704 0.063741
C92   C     C_R   0.682230 0.683072 0.623307 0.063740
C93   C     C_R   0.362483 0.363102 0.312268 0.066423
C94   C     C_R   0.636881 0.362504 0.687749 0.066440
C95   C     C_R   0.316914 0.682240 0.376711 0.063735
C96   C     C_R   0.317761 0.316915 0.623285 0.063731
C97   C     C_R   0.637470 0.636867 0.312235 0.066454
C98   C     C_R   0.862476 0.136905 0.187727 0.066418
C99   C     C_R   0.182234 0.816925 0.876706 0.063740
C100  C     C_R   0.183075 0.182228 0.123306 0.063742
C101  C     C_R   0.393265 0.698484 0.394435 -0.159632
C102  C     C_R   0.863100 0.862491 0.812267 0.066431
C103  C     C_R   0.137471 0.863132 0.187765 0.066458
C104  C     C_R   0.817760 0.183086 0.876718 0.063734
C105  C     C_R   0.816916 0.817762 0.123295 0.063735
C106  C     C_R   0.136881 0.137496 0.812251 0.066438
C107  C     C_3   0.773920 0.705229 0.736488 -0.205082
C108  C     C_3   0.246674 0.350215 0.211598 -0.237833
C109  C     C_3   0.649717 0.246790 0.788553 -0.237756
C110  C     C_3   0.294814 0.774200 0.263700 -0.205395
C111  C     C_3   0.225907 0.294803 0.736358 -0.205307
C112  C     C_R   0.301517 0.393267 0.605563 -0.159656
C113  C     C_3   0.753142 0.649682 0.211375 -0.237761
C114  C     C_3   0.350200 0.753347 0.788357 -0.238056
C115  C     C_3   0.705213 0.226058 0.263542 -0.205182
C116  C     C_3   0.809893 0.294390 0.295955 -0.232354
C117  C     C_3   0.282103 0.648065 0.820589 -0.218707
C118  C     C_3   0.647962 0.718125 0.179529 -0.219080
C119  C     C_3   0.294416 0.190175 0.704149 -0.232259
C120  C     C_3   0.190226 0.705557 0.295773 -0.232211
C121  C     C_3   0.718051 0.352006 0.820499 -0.219072
C122  C     C_3   0.351945 0.282066 0.179440 -0.218964
C123  C     C_R   0.671588 0.578459 0.355351 -0.134899
C124  C     C_3   0.705620 0.809914 0.704011 -0.232446
C125  C     C_3   0.309890 0.205607 0.204058 -0.232341
C126  C     C_3   0.782100 0.851937 0.679406 -0.218680
C127  C     C_3   0.147956 0.781868 0.320465 -0.219134
C128  C     C_3   0.794420 0.309818 0.795841 -0.232254
C129  C     C_3   0.690222 0.794440 0.204222 -0.232247
C130  C     C_3   0.218039 0.147999 0.679495 -0.219053
C131  C     C_3   0.851942 0.217925 0.320565 -0.218944
C132  C     C_3   0.205618 0.690089 0.795995 -0.232438
C133  C     C_3   0.273913 0.794777 0.763519 -0.205082
C134  C     C_R   0.422384 0.329942 0.354327 -0.156827
C135  C     C_3   0.746668 0.149788 0.288396 -0.237848
C136  C     C_3   0.149721 0.253220 0.711460 -0.237768
C137  C     C_3   0.794812 0.725809 0.236312 -0.205359
C138  C     C_3   0.725894 0.205194 0.763652 -0.205317
C139  C     C_3   0.253134 0.850322 0.288636 -0.237710
C140  C     C_3   0.850204 0.746659 0.711640 -0.238092
C141  C     C_3   0.205214 0.273951 0.236461 -0.205206
C142  C     C_3   0.279316 0.245568 0.277182 0.305891
C143  C     C_3   0.809542 0.776464 0.637754 0.300326
C144  C     C_3   0.223263 0.809395 0.362358 0.300343
H1    H     H_    0.455466 0.722897 0.658832 0.094907
H2    H     H_    0.577430 0.755010 0.605312 0.084065
H3    H     H_    0.092247 0.755227 0.685329 0.256903
H4    H     H_    0.152402 0.834969 0.650342 0.264364
H5    H     H_    0.106903 0.768474 0.583202 0.253279
H6    H     H_    0.250531 0.740077 0.599682 0.188751
H7    H     H_    0.188977 0.659500 0.628499 0.186017
H8    H     H_    0.592255 0.744797 0.814704 0.256900
H9    H     H_    0.652417 0.665048 0.849660 0.264378
H10   H     H_    0.606937 0.731530 0.916824 0.253285
H11   H     H_    0.750555 0.759936 0.900323 0.188751
H12   H     H_    0.688998 0.840513 0.871511 0.186021
H13   H     H_    0.755012 0.422570 0.394693 0.084067
H14   H     H_    0.300419 0.462120 0.089767 0.260594
H15   H     H_    0.383861 0.404127 0.060194 0.259456
H16   H     H_    0.315895 0.440298 0.988986 0.249885
H17   H     H_    0.294683 0.298049 0.015597 0.200702
H18   H     H_    0.210468 0.355784 0.041640 0.185503
H19   H     H_    0.596122 0.384213 0.939793 0.259438
H20   H     H_    0.538022 0.300755 0.910467 0.260576
H21   H     H_    0.560013 0.316412 0.011185 0.249890
H22   H     H_    0.644365 0.210816 0.958597 0.185523
H23   H     H_    0.702199 0.295033 0.984423 0.200701
H24   H     H_    0.279616 0.542767 0.661181 0.099160
H25   H     H_    0.335491 0.652961 0.150395 0.264365
H26   H     H_    0.255729 0.592596 0.184982 0.256862
H27   H     H_    0.269266 0.607541 0.082940 0.253286
H28   H     H_    0.160032 0.689350 0.128141 0.186101
H29   H     H_    0.240602 0.751093 0.099701 0.188715
H30   H     H_    0.407542 0.255522 0.814891 0.256875
H31   H     H_    0.347268 0.335297 0.849592 0.264362
H32   H     H_    0.392702 0.268986 0.916960 0.253207
H33   H     H_    0.249121 0.240437 0.900306 0.188733
H34   H     H_    0.310777 0.159847 0.871744 0.186070
H35   H     H_    0.542758 0.720375 0.338809 0.099196
H36   H     H_    0.698956 0.538144 0.089386 0.260605
H37   H     H_    0.615563 0.596378 0.060137 0.259425
H38   H     H_    0.683287 0.560246 0.988692 0.249908
H39   H     H_    0.704858 0.702380 0.015569 0.200700
H40   H     H_    0.789014 0.644418 0.041316 0.185538
H41   H     H_    0.403895 0.616041 0.940065 0.259398
H42   H     H_    0.462066 0.699197 0.910055 0.260725
H43   H     H_    0.440408 0.684178 0.010938 0.249907
H44   H     H_    0.356045 0.789615 0.958193 0.185506
H45   H     H_    0.298109 0.705599 0.984422 0.200702
H46   H     H_    0.422565 0.244985 0.605303 0.084081
H47   H     H_    0.664965 0.347541 0.150358 0.264365
H48   H     H_    0.744723 0.407719 0.185262 0.256889
H49   H     H_    0.731410 0.393019 0.083152 0.253182
H50   H     H_    0.840424 0.310970 0.128433 0.186025
H51   H     H_    0.759839 0.249401 0.099677 0.188741
H52   H     H_    0.244986 0.577434 0.394694 0.084088
H53   H     H_    0.720381 0.457229 0.661184 0.099195
H54   H     H_    0.957227 0.220383 0.161180 0.099172
H55   H     H_    0.077432 0.744989 0.894695 0.084065
H56   H     H_    0.255011 0.077429 0.105314 0.084068
H57   H     H_    0.579030 0.244619 0.394878 0.090113
H58   H     H_    0.779625 0.957243 0.838812 0.099162
H59   H     H_    0.042760 0.779623 0.161189 0.099198
H60   H     H_    0.922565 0.255015 0.894698 0.084082
H61   H     H_    0.744986 0.922566 0.105308 0.084091
H62   H     H_    0.220378 0.042768 0.838815 0.099193
H63   H     H_    0.955473 0.777111 0.841162 0.094909
H64   H     H_    0.079029 0.255380 0.105128 0.090113
H65   H     H_    0.255382 0.920972 0.894878 0.090113
H66   H     H_    0.777100 0.044531 0.158834 0.094908
H67   H     H_    0.044518 0.222882 0.841145 0.094940
H68   H     H_    0.755381 0.579028 0.605129 0.090113
H69   H     H_    0.920964 0.744614 0.105114 0.090117
H70   H     H_    0.744615 0.079035 0.894892 0.090114
H71   H     H_    0.222865 0.955487 0.158868 0.094965
H72   H     H_    0.769648 0.644688 0.759405 0.125110
H73   H     H_    0.222029 0.410232 0.214568 0.122653
H74   H     H_    0.589660 0.222229 0.785678 0.122689
H75   H     H_    0.355415 0.770137 0.240903 0.125077
H76   H     H_    0.230052 0.355384 0.759191 0.125102
H77   H     H_    0.777654 0.589603 0.214196 0.122722
H78   H     H_    0.410208 0.778011 0.785354 0.122701
H79   H     H_    0.277103 0.455472 0.341163 0.094910
H80   H     H_    0.644661 0.230310 0.240649 0.125117
H81   H     H_    0.835319 0.354079 0.298773 0.119768
H82   H     H_    0.287283 0.587368 0.842799 0.126435
H83   H     H_    0.587206 0.713150 0.157429 0.126424
H84   H     H_    0.354142 0.164823 0.701434 0.119760
H85   H     H_    0.164932 0.645803 0.298414 0.119754
H86   H     H_    0.713010 0.412746 0.842622 0.126452
H87   H     H_    0.412650 0.287219 0.157246 0.126458
H88   H     H_    0.645937 0.835353 0.701167 0.119777
H89   H     H_    0.335311 0.145916 0.201248 0.119767
H90   H     H_    0.544518 0.277118 0.658855 0.094944
H91   H     H_    0.787276 0.912633 0.657190 0.126433
H92   H     H_    0.087198 0.786836 0.342558 0.126427
H93   H     H_    0.854149 0.335162 0.798547 0.119760
H94   H     H_    0.664923 0.854192 0.201574 0.119758
H95   H     H_    0.212987 0.087263 0.657363 0.126453
H96   H     H_    0.912648 0.212766 0.342759 0.126456
H97   H     H_    0.145937 0.664647 0.798843 0.119775
H98   H     H_    0.269638 0.855320 0.740606 0.125112
H99   H     H_    0.722018 0.089774 0.285418 0.122656
H100  H     H_    0.089669 0.277788 0.714343 0.122687
H101  H     H_    0.420963 0.755386 0.394890 0.090118
H102  H     H_    0.855410 0.729878 0.259114 0.125075
H103  H     H_    0.730028 0.144610 0.740825 0.125101
H104  H     H_    0.277640 0.910404 0.285821 0.122717
H105  H     H_    0.910212 0.721997 0.714638 0.122707
H106  H     H_    0.144662 0.269704 0.259354 0.125118
H107  H     H_    0.164965 0.152473 0.349650 0.264372
H108  H     H_    0.244733 0.092290 0.314775 0.256885
H109  H     H_    0.231403 0.107016 0.416879 0.253175
H110  H     H_    0.340421 0.189056 0.371587 0.186028
H111  H     H_    0.259833 0.250627 0.400329 0.188740
H112  H     H_    0.244616 0.420966 0.605110 0.090113
H113  H     H_    0.903828 0.883980 0.559859 0.259384
H114  H     H_    0.962031 0.800877 0.589950 0.260738
H115  H     H_    0.940387 0.815805 0.489046 0.249907
H116  H     H_    0.856056 0.710374 0.541820 0.185507
H117  H     H_    0.798085 0.794360 0.515569 0.200706
H118  H     H_    0.199016 0.961873 0.410662 0.260587
H119  H     H_    0.115567 0.903666 0.439810 0.259437
H120  H     H_    0.183251 0.939725 0.511329 0.249905
H121  H     H_    0.204794 0.797605 0.484425 0.200697
H122  H     H_    0.288984 0.855537 0.458720 0.185538
H123  H     H_    0.722865 0.544512 0.341132 0.094964
H124  H     H_    0.907523 0.244443 0.685106 0.256878
H125  H     H_    0.847241 0.164672 0.650409 0.264362
H126  H     H_    0.892682 0.230974 0.583039 0.253211
H127  H     H_    0.749100 0.259534 0.599695 0.188731
H128  H     H_    0.810765 0.340123 0.628240 0.186074
H129  H     H_    0.835481 0.847028 0.349628 0.264364
H130  H     H_    0.755741 0.907400 0.315010 0.256872
H131  H     H_    0.769249 0.892470 0.417059 0.253301
H132  H     H_    0.660011 0.810670 0.371844 0.186095
H133  H     H_    0.740566 0.748918 0.400305 0.188712
H134  H     H_    0.457232 0.279623 0.338816 0.099174
H135  H     H_    0.096113 0.115811 0.560195 0.259438
H136  H     H_    0.038010 0.199253 0.589556 0.260579
H137  H     H_    0.059984 0.183630 0.488830 0.249889
H138  H     H_    0.144337 0.289216 0.541430 0.185521
H139  H     H_    0.202175 0.205010 0.515577 0.200701
H140  H     H_    0.800422 0.037867 0.410204 0.260598
H141  H     H_    0.883857 0.095856 0.439803 0.259455
H142  H     H_    0.815883 0.059665 0.510992 0.249881
H143  H     H_    0.794669 0.201923 0.484405 0.200702
H144  H     H_    0.710459 0.144189 0.458347 0.185499
N1    N     N_R   0.424590 0.632770 0.578330 -0.041714
N2    N     N_R   0.575410 0.632770 0.578330 -0.035513
N3    N     N_R   0.632770 0.424590 0.421670 -0.035501
N4    N     N_R   0.367230 0.575410 0.578330 -0.040097
N5    N     N_R   0.575410 0.632770 0.421670 -0.040109
N6    N     N_R   0.424590 0.367230 0.578330 -0.035498
N7    N     N_R   0.367230 0.575410 0.421670 -0.035493
N8    N     N_R   0.632770 0.424590 0.578330 -0.040100
N9    N     N_R   0.924590 0.132770 0.078330 -0.040096
N10   N     N_R   0.075410 0.867230 0.921670 -0.035512
N11   N     N_R   0.132770 0.075410 0.078330 -0.035500
N12   N     N_R   0.575410 0.367230 0.421670 -0.032955
N13   N     N_R   0.867230 0.924590 0.921670 -0.040100
N14   N     N_R   0.075410 0.867230 0.078330 -0.040107
N15   N     N_R   0.924590 0.132770 0.921670 -0.035496
N16   N     N_R   0.867230 0.924590 0.078330 -0.035494
N17   N     N_R   0.132770 0.075410 0.921670 -0.040100
N18   N     N_R   0.924590 0.867230 0.921670 -0.041716
N19   N     N_R   0.075410 0.132770 0.078330 -0.032957
N20   N     N_R   0.132770 0.924590 0.921670 -0.032957
N21   N     N_R   0.867230 0.075410 0.078330 -0.041707
N22   N     N_R   0.075410 0.132770 0.921670 -0.041705
N23   N     N_R   0.632770 0.575410 0.578330 -0.032958
N24   N     N_R   0.924590 0.867230 0.078330 -0.032965
N25   N     N_R   0.867230 0.075410 0.921670 -0.032962
N26   N     N_R   0.132770 0.924590 0.078330 -0.041705
N27   N     N_R   0.367230 0.424590 0.421670 -0.041709
N28   N     N_R   0.575410 0.367230 0.578330 -0.041704
N29   N     N_R   0.424590 0.632770 0.421670 -0.032965
N30   N     N_R   0.367230 0.424590 0.578330 -0.032962
N31   N     N_R   0.632770 0.575410 0.421670 -0.041707
N32   N     N_R   0.424590 0.367230 0.421670 -0.040099
Ni1   Ni    Ni4+2 0.500000 0.631570 0.500000 0.205078
Ni2   Ni    Ni4+2 0.500000 0.368430 0.500000 0.205077
Ni3   Ni    Ni4+2 0.631570 0.500000 0.500000 0.205071
Ni4   Ni    Ni4+2 0.368430 0.500000 0.500000 0.205082
Ni5   Ni    Ni4+2 1.000000 0.131570 0.000000 0.205078
Ni6   Ni    Ni4+2 1.000000 0.868430 0.000000 0.205077
Ni7   Ni    Ni4+2 0.131570 0.000000 0.000000 0.205072
Ni8   Ni    Ni4+2 0.868430 0.000000 0.000000 0.205082

loop_
_geom_bond_atom_site_label_1
_geom_bond_atom_site_label_2
_ccdc_geom_bond_type
C5    C136  S    
C81   C126  S    
C78   C115  S    
C52   H52   S    
C44   H31   S    
C83   C128  S    
C57   N12   A    
C34   H11   S    
C9    C108  S    
C72   C142  S    
C38   H15   S    
C7    C133  S    
N26   Ni7   S    
N17   N22   A    
C126  C143  S    
C119  C130  S    
C135  H99   S    
C107  C140  S    
C117  C132  S    
C109  H74   S    
C33   H3    S    
C55   H55   S    
C49   H42   S    
C19   C20   S    
C22   H120  S    
C67   H67   S    
C61   C105  A    
C59   N14   A    
N28   Ni2   S    
N2    N23   A    
C21   C22   S    
C13   C91   A    
C82   C141  S    
C66   N21   A    
C36   H9    S    
C14   C45   S    
C45   C47   S    
C130  H95   S    
N31   Ni3   S    
C23   H128  S    
C123  N31   A    
C8    C81   S    
C70   H70   S    
C115  H80   S    
C65   C99   A    
C121  C128  S    
C69   C105  A    
C128  H93   S    
C76   C118  S    
C17   C142  S    
C28   H138  S    
C43   C44   S    
C82   C125  S    
C37   C38   S    
C50   H51   S    
C55   N10   A    
C1    N1    A    
C3    C138  S    
C113  H77   S    
C48   H45   S    
C124  H88   S    
C108  H73   S    
C5    C130  S    
C6    C30   S    
N24   Ni6   S    
C30   H143  S    
C113  C137  S    
C31   H142  S    
C69   N24   A    
C5    C77   S    
C16   C115  S    
C27   H131  S    
N16   N24   A    
N29   Ni1   S    
C80   C117  S    
C28   C29   S    
C88   C135  S    
C74   C110  S    
N23   Ni3   S    
C48   H44   S    
C62   C106  A    
C11   C84   S    
C29   H135  S    
C74   C120  S    
C53   H53   S    
C118  C129  S    
C33   H5    S    
N11   N19   A    
C35   N5    A    
C22   H118  S    
C68   C92   A    
C58   N13   A    
C112  H112  S    
C46   C96   A    
C58   H58   S    
N20   Ni7   S    
C70   N25   A    
N21   Ni8   S    
C62   H62   S    
C83   C138  S    
C25   H125  S    
C45   H40   S    
C37   H18   S    
C56   H56   S    
C81   C140  S    
C43   H34   S    
C1    H1    S    
C140  C143  S    
C47   H37   S    
C120  C127  S    
N1    Ni1   S    
C122  H87   S    
N27   N32   A    
C6    C135  S    
C44   H30   S    
C40   H20   S    
N27   Ni4   S    
C111  C136  S    
C6    C78   S    
C112  N30   A    
C65   N20   A    
C10   C109  S    
C4    C137  S    
C60   H60   S    
C72   C108  S    
C68   N23   A    
C66   H66   S    
C42   H26   S    
C18   H107  S    
C20   H113  S    
C27   H129  S    
C73   C124  S    
C62   N17   A    
N13   Ni8   S    
C63   N18   A    
C15   C48   S    
C63   C102  A    
C11   C120  S    
N2    Ni1   S    
C13   H13   S    
N5    N31   A    
C119  H84   S    
C76   C113  S    
C35   H35   S    
N7    N29   A    
C117  H82   S    
N6    Ni2   S    
C14   C86   S    
C51   H49   S    
C39   C40   S    
C3    C128  S    
C36   H8    S    
C109  C138  S    
N32   Ni2   S    
C47   H36   S    
C110  H75   S    
C123  H123  S    
C133  H98   S    
C12   C119  S    
C131  H96   S    
C17   C18   S    
C32   H6    S    
C8    C34   S    
N3    N12   A    
C40   H21   S    
C90   N28   A    
C21   H122  S    
C85   C106  S    
C68   H68   S    
C8    C107  S    
C51   H47   S    
N9    Ni5   S    
C41   H29   S    
C7    C32   S    
C53   C94   A    
C78   C116  S    
C44   H32   S    
C21   C144  S    
C79   H79   S    
C34   H12   S    
C77   C96   S    
N30   Ni4   S    
C116  H81   S    
C59   C103  A    
C66   C98   A    
C122  C125  S    
C38   H16   S    
C97   C123  A    
C115  C135  S    
C71   H71   S    
C34   C36   S    
N14   Ni6   S    
C42   H27   S    
C20   H115  S    
C38   H14   S    
C49   H41   S    
N17   Ni7   S    
C55   C99   A    
C46   N6    A    
C88   C131  S    
C60   C104  A    
C88   C98   S    
C95   C101  A    
C61   H61   S    
N6    N30   A    
N8    N28   A    
C41   C42   S    
C101  H101  S    
C36   H10   S    
C23   H127  S    
C26   C27   S    
C124  C126  S    
C110  C139  S    
C16   C50   S    
C30   C31   S    
C70   C104  A    
C73   C107  S    
C10   C83   S    
N1    N4    A    
C52   C95   A    
C80   C89   S    
C77   C111  S    
N15   Ni5   S    
C71   C103  A    
C138  H103  S    
C86   C137  S    
N12   Ni2   S    
C84   C139  S    
N8    Ni3   S    
N5    Ni1   S    
C1    C89   A    
C58   C102  A    
C53   N8    A    
C9    C82   S    
C63   H63   S    
N14   N26   A    
C30   H144  S    
C141  H106  S    
C31   H141  S    
C79   N27   A    
N16   Ni8   S    
C139  H104  S    
C16   C116  S    
C108  C141  S    
C90   C94   A    
C101  N29   A    
C56   N11   A    
C134  H134  S    
C69   H69   S    
C73   C92   S    
C134  N32   A    
C19   H116  S    
C8    C124  S    
C76   C97   S    
C15   C117  S    
C10   C39   S    
C33   H4    S    
C85   C130  S    
N15   N25   A    
C64   H64   S    
C49   H43   S    
C22   H119  S    
C9    C122  S    
C114  H78   S    
N9    N21   A    
C24   N4    A    
C72   C93   S    
C48   C49   S    
C25   H124  S    
C45   H39   S    
C37   H17   S    
C73   C143  S    
C74   C144  S    
C43   H33   S    
N11   Ni7   S    
C57   C91   A    
C6    C131  S    
C120  H85   S    
C4    C26   S    
N4    Ni4   S    
C67   C106  A    
C4    C129  S    
C67   N22   A    
C118  H83   S    
C14   C113  S    
C32   C33   S    
C39   H22   S    
C31   H140  S    
N18   Ni6   S    
C26   H132  S    
C50   H50   S    
C2    N2    A    
N13   N18   A    
C96   C112  A    
C127  C144  S    
C52   N7    A    
C71   N26   A    
C59   H59   S    
C132  H97   S    
C64   C100  A    
C29   H137  S    
C16   C88   S    
N19   Ni5   S    
C26   H133  S    
C75   C94   S    
N10   N20   A    
C7    C80   S    
C28   H139  S    
C129  H94   S    
N7    Ni4   S    
C87   C133  S    
C3    C23   S    
C10   C121  S    
C24   C89   A    
C29   H136  S    
C32   H7    S    
C127  H92   S    
C61   N16   A    
C12   C85   S    
C24   H24   S    
C79   C93   A    
C12   C43   S    
N10   Ni6   S    
C90   H90   S    
N22   Ni5   S    
C64   N19   A    
C107  H72   S    
C18   H108  S    
C14   C118  S    
C65   H65   S    
C25   H126  S    
C21   H121  S    
C84   C127  S    
C46   H46   S    
C47   H38   S    
C50   C51   S    
C87   C99   S    
C81   C102  S    
C18   H109  S    
C41   H28   S    
C75   C109  S    
C83   C104  S    
C136  H100  S    
C40   H19   S    
C93   C134  A    
C85   C136  S    
C87   C132  S    
C17   H110  S    
C19   H117  S    
C5    C28   S    
C139  C144  S    
N3    Ni3   S    
C125  C142  S    
C42   H25   S    
C20   H114  S    
C9    C37   S    
C7    C132  S    
C15   C114  S    
C2    C92   A    
C126  H91   S    
C54   N9    A    
C27   H130  S    
C80   C114  S    
C13   N3    A    
C86   C105  S    
C111  H76   S    
C56   C100  A    
C57   H57   S    
C3    C75   S    
C15   C87   S    
C60   N15   A    
C17   H111  S    
C19   C143  S    
C121  H86   S    
C72   C122  S    
C75   C121  S    
C82   C100  S    
C74   C95   S    
C140  H105  S    
C77   C119  S    
C86   C129  S    
C78   C91   S    
C2    H2    S    
C54   H54   S    
C141  C142  S    
C137  H102  S    
C116  C131  S    
C114  C133  S    
C11   C41   S    
C23   C25   S    
N25   Ni8   S    
C39   H23   S    
C4    C76   S    
C125  H89   S    
C84   C103  S    
C54   C98   A    
C35   C97   A    
C12   C111  S    
C51   H48   S    
C11   C110  S    
