data_mof_unit_67798.cif
_audit_creation_date              2013-03-05T15:41:22-0500
_audit_creation_method            fapswitch 2.2
_symmetry_space_group_name_H-M    P1
_symmetry_Int_Tables_number       1
_space_group_crystal_system       triclinic
_cell_length_a                    8.059477
_cell_length_b                    8.96661
_cell_length_c                    10.962814
_cell_angle_alpha                 94.048069
_cell_angle_beta                  84.128936
_cell_angle_gamma                 92.430673
_cell_volume                      785.624524627

loop_
_atom_site_label
_atom_site_type_symbol
_atom_site_description
_atom_site_fract_x
_atom_site_fract_y
_atom_site_fract_z
_atom_type_partial_charge
O1    O     O_R   0.389250 0.738570 0.508370 -0.664645
O2    O     O_R   0.678390 0.711620 0.486510 -0.661469
C1    C     C_R   0.542528 0.793690 0.504138 0.857066
O3    O     O_R   0.355430 0.513500 0.696140 -0.538050
O4    O     O_R   0.644580 0.486550 0.674270 -0.590240
C2    C     C_R   0.501718 0.513083 0.743074 0.932706
Zn1   Zn    Zn3+2 0.306940 0.517990 0.514600 0.966793
Zn2   Zn    Zn3+2 0.693060 0.482010 0.485400 0.978359
O5    O     O_R   0.321610 0.288380 0.513490 -0.658053
O6    O     O_R   0.610750 0.261430 0.491630 -0.601326
O7    O     O_R   0.355420 0.513450 0.325730 -0.678702
O8    O     O_R   0.644570 0.486500 0.303860 -0.654980
C3    C     C_R   0.455975 0.208632 0.512379 0.906437
C4    C     C_R   0.504965 0.517651 0.262159 0.787512
C5    C     C_3   0.386426 0.645991 0.955690 -0.183870
H1    H     H_    0.449396 0.755565 0.952278 0.248003
C6    C     C_3   0.361704 0.619086 0.094488 -0.283510
H2    H     H_    0.247468 0.547047 0.111877 0.173007
H3    H     H_    0.375328 0.322962 0.127654 0.067592
C7    C     C_3   0.450795 0.360811 0.934881 0.023044
C8    C     C_3   0.691269 0.583133 0.921305 -0.122165
C9    C     C_3   0.506346 0.523385 0.884204 -0.123700
C10   C     C_3   0.516289 0.529362 0.127372 -0.084440
C11   C     C_3   0.490356 0.364170 0.073127 -0.209454
C12   C     C_3   0.691154 0.606477 0.070762 0.063274
C13   C     C_2   0.562609 0.957013 0.520457 -0.207120
C14   C     C_2   0.430863 0.051818 0.541867 -0.059901
N1    N     N_2   0.950330 0.457950 0.465890 -0.032369
N2    N     N_2   0.049670 0.542050 0.534110 0.020103
C15   C     C_2   0.225471 0.678869 0.906725 0.521169
H4    H     H_    0.116265 0.608790 0.923364 0.169027
O9    O     O_2   0.213033 0.794998 0.857381 -0.647284
C16   C     C_2   0.848542 0.548976 0.121773 0.434425
H5    H     H_    0.882438 0.593761 0.210867 0.126767
O10   O     O_2   0.945959 0.462091 0.067680 -0.661652
C17   C     C_3   0.525456 0.224869 0.850983 -0.381786
C18   C     C_3   0.475868 0.069253 0.895939 -0.702015
H6    H     H_    0.575974 0.026594 0.944089 0.286403
H7    H     H_    0.358765 0.067306 0.958084 0.264739
H8    H     H_    0.458542 0.990864 0.815306 0.308781
H9    H     H_    0.483579 0.229124 0.758592 0.209403
H10   H     H_    0.660600 0.227408 0.830879 0.252564
C19   C     C_2   0.609677 0.252098 0.110243 0.453480
H11   H     H_    0.575051 0.193575 0.193083 0.053886
O11   O     O_2   0.742536 0.224718 0.051936 -0.595420
C20   C     C_2   0.737621 0.012656 0.517547 0.435171
H12   H     H_    0.829361 0.973345 0.444317 0.034175
O12   O     O_2   0.781735 0.095934 0.602314 -0.575844
C21   C     C_3   0.252658 0.002586 0.589064 -0.478474
C22   C     C_3   0.162653 0.101955 0.692179 -0.663283
H13   H     H_    0.238621 0.115689 0.768341 0.273907
H14   H     H_    0.126260 0.210219 0.663687 0.316864
H15   H     H_    0.046466 0.048391 0.733296 0.260192
H16   H     H_    0.175996 0.992366 0.510282 0.210442
H17   H     H_    0.255628 0.898845 0.635694 0.299059
C23   C     C_3   0.018059 0.316862 0.415791 -0.167946
C24   C     C_3   0.934736 0.248352 0.305992 -0.857393
H18   H     H_    0.798681 0.255052 0.317570 0.301767
H19   H     H_    0.985084 0.303590 0.222931 0.292647
H20   H     H_    0.966927 0.129071 0.290289 0.222627
H21   H     H_    0.147228 0.334995 0.377219 0.229131
H22   H     H_    0.010036 0.236798 0.488122 0.223926
C25   C     C_3   0.024346 0.694590 0.512933 -0.215166
C26   C     C_3   0.954403 0.766870 0.629756 -0.744512
H23   H     H_    0.036231 0.753469 0.701816 0.292384
H24   H     H_    0.836059 0.707384 0.649579 0.340364
H25   H     H_    0.935940 0.883325 0.620645 0.252270
H26   H     H_    0.135454 0.750298 0.474268 0.184915
H27   H     H_    0.949500 0.708075 0.435623 0.163684
C27   C     C_2   0.320414 0.762061 0.175235 0.291911
H28   H     H_    0.312809 0.762681 0.274220 0.117520
O13   O     O_2   0.290617 0.878188 0.131204 -0.611834
C28   C     C_2   0.260708 0.333052 0.936072 0.365791
H29   H     H_    0.189273 0.274556 0.008583 0.133728
O14   O     O_2   0.185205 0.363495 0.851497 -0.558317
C29   C     C_2   0.823673 0.475387 0.861874 0.463101
H30   H     H_    0.836781 0.368553 0.894836 0.208861
O15   O     O_2   0.923753 0.506719 0.775756 -0.561127
C30   C     C_2   0.742610 0.733694 0.868255 0.354831
H31   H     H_    0.862835 0.785194 0.883185 0.147917
O16   O     O_2   0.655548 0.796893 0.804792 -0.644031
C31   C     C_3   0.694462 0.778080 0.123676 -0.502974
C32   C     C_3   0.865758 0.862356 0.127429 -0.861308
H32   H     H_    0.911813 0.856391 0.219030 0.233195
H33   H     H_    0.962647 0.816340 0.058192 0.278139
H34   H     H_    0.853688 0.982031 0.112374 0.304576
H35   H     H_    0.616775 0.847920 0.075864 0.249425
H36   H     H_    0.638321 0.785200 0.220643 0.197297

loop_
_geom_bond_atom_site_label_1
_geom_bond_atom_site_label_2
_geom_bond_distance
_ccdc_geom_bond_type
N2    C25   1.429877 S    
Zn1   N2    2.081402 S    
C28   H29   1.085406 S    
C17   H10   1.088542 S    
N1    C23   1.448857 S    
Zn1   O7    2.065290 S    
C8    C29   1.533923 S    
C13   C14   1.379334 D    
C6    C10   1.596019 S    
C17   C18   1.535935 S    
C29   O15   1.217893 D    
C18   H8    1.106406 S    
C31   H35   1.098024 S    
O4    C2    1.330970 A    
O7    C4    1.329574 A    
C24   H19   1.100079 S    
C5    H1    1.087798 S    
C2    C9    1.547592 S    
C23   C24   1.517638 S    
Zn1   O5    2.066324 S    
O5    C3    1.321335 A    
C25   H26   1.070211 S    
C5    C9    1.603246 S    
C7    C11   1.578320 S    
C22   H14   1.100762 S    
C10   C11   1.570392 S    
C27   H28   1.080242 S    
C21   H16   1.108721 S    
C6    C27   1.534133 S    
C8    C9    1.642926 S    
C28   O14   1.212326 D    
C17   H9    1.103515 S    
O3    Zn1   2.070500 S    
C16   H5    1.086179 S    
C20   O12   1.222571 D    
C22   H15   1.103079 S    
C26   H25   1.073980 S    
C25   H27   1.105467 S    
C29   H30   1.060496 S    
O3    C2    1.333999 A    
C30   O16   1.219332 D    
C24   H20   1.108722 S    
C22   H13   1.082056 S    
C21   H17   1.094853 S    
C25   C26   1.464278 S    
O1    C1    1.308513 A    
C26   H24   1.082708 S    
C4    C10   1.481985 S    
C19   H11   1.086741 S    
C18   H6    1.103496 S    
C32   H32   1.111121 S    
Zn2   O8    2.070499 S    
C8    C30   1.531752 S    
C6    H2    1.110086 S    
C19   O11   1.214721 D    
C32   H33   1.103630 S    
O8    C4    1.304944 A    
C31   C32   1.548360 S    
C12   C31   1.605759 S    
Zn2   N1    2.081401 S    
C23   H22   1.101943 S    
C5    C15   1.501689 S    
C5    C6    1.548846 S    
C8    C12   1.636973 S    
C20   H12   1.084493 S    
N1    N2    1.326896 D    
O1    Zn1   2.062804 S    
C1    C13   1.466856 S    
O2    Zn2   2.066324 S    
C7    C9    1.625479 S    
O6    C3    1.318689 A    
O4    Zn2   2.065291 S    
C26   H23   1.095502 S    
O2    C1    1.335230 A    
C18   H7    1.106317 S    
C15   O9    1.219184 D    
C24   H18   1.094597 S    
C15   H4    1.067333 S    
C31   H36   1.110541 S    
C16   O10   1.210968 D    
C7    C28   1.540509 S    
H3    C11   1.114478 S    
C10   C12   1.627413 S    
C13   C20   1.474049 S    
C30   H31   1.078292 S    
C7    C17   1.576250 S    
C32   H34   1.106949 S    
Zn2   O6    2.062802 S    
C21   C22   1.530623 S    
C11   C19   1.523143 S    
C23   H21   1.092837 S    
C3    C14   1.466020 S    
C27   O13   1.220986 D    
C14   C21   1.533557 S    
C12   C16   1.558480 S    
