data_mof_unit_43843.cif
_audit_creation_date              2012-10-26T19:48:48-0400
_audit_creation_method            fapswitch 2.2
_symmetry_space_group_name_H-M    P1
_symmetry_Int_Tables_number       1
_space_group_crystal_system       triclinic
_cell_length_a                    10.725155
_cell_length_b                    9.411624
_cell_length_c                    27.805768
_cell_angle_alpha                 89.883381
_cell_angle_beta                  90.030757
_cell_angle_gamma                 89.986184
_cell_volume                      2806.7392362

loop_
_atom_site_label
_atom_site_type_symbol
_atom_type_description
_atom_site_fract_x
_atom_site_fract_y
_atom_site_fract_z
_atom_type_partial_charge
Br1   Br    Br    0.293273 0.292887 0.641319 -0.576290
C1    C     C_R   0.259656 0.499792 0.500137 0.564847
C2    C     C_R   0.393517 0.553300 0.974228 0.018202
C3    C     C_R   0.611431 0.467724 0.974181 0.018200
C4    C     C_R   0.499915 0.500155 0.407450 0.552890
C5    C     C_R   0.502470 0.510886 0.948947 0.034461
C6    C     C_R   0.289834 0.601899 0.947262 -0.140732
C7    C     C_R   0.291417 0.603399 0.897335 -0.109478
C8    C     C_R   0.396367 0.557165 0.872170 0.025624
C9    C     C_R   0.502352 0.511373 0.897782 -0.026590
C10   C     C_R   0.608106 0.465783 0.872087 0.025425
C11   C     C_R   0.605474 0.465370 0.821589 0.403053
C12   C     C_R   0.490676 0.630059 0.278893 -0.057830
C13   C     C_R   0.397970 0.556305 0.821683 0.401859
C14   C     C_R   0.418563 0.414937 0.721714 -0.016151
C15   C     C_R   0.415763 0.411681 0.671525 0.129206
C16   C     C_R   0.740117 0.499773 0.500097 0.549768
C17   C     C_R   0.576460 0.593941 0.669457 -0.175414
C18   C     C_R   0.578428 0.596724 0.719553 -0.060478
C19   C     C_R   0.499835 0.506888 0.745876 0.204212
C20   C     C_R   0.391810 0.546599 0.025315 0.018486
C21   C     C_R   0.502123 0.508313 0.050568 0.034196
C22   C     C_R   0.612727 0.471676 0.025309 0.018439
C23   C     C_R   0.500900 0.502235 0.253551 0.243312
C24   C     C_R   0.282827 0.575741 0.052297 -0.141154
C25   C     C_R   0.720150 0.440756 0.102286 -0.112306
C26   C     C_R   0.715372 0.420768 0.947126 -0.140738
C27   C     C_R   0.713520 0.420115 0.897189 -0.110151
C28   C     C_R   0.497684 0.499940 0.592387 0.587999
C29   C     C_R   0.721380 0.440758 0.052346 -0.141127
C30   C     C_3   0.071889 0.576696 0.545420 -0.228731
C31   C     C_3   0.071320 0.344179 0.500646 -0.232567
C32   C     C_3   0.927944 0.576617 0.545416 -0.235337
C33   C     C_3   0.928601 0.344174 0.500561 -0.234629
C34   C     C_R   0.501790 0.506542 0.101729 -0.027090
C35   C     C_3   0.071789 0.575236 0.454622 -0.235581
C36   C     C_3   0.121728 0.499014 0.500213 0.043229
C37   C     C_3   0.878071 0.498996 0.500182 0.046449
C38   C     C_3   0.927898 0.575346 0.454627 -0.231146
C39   C     C_3   0.628483 0.083622 0.503746 -0.107496
C40   C     C_3   0.628473 0.916272 0.503862 -0.104615
C41   C     C_3   0.429888 0.083537 0.542539 -0.094142
C42   C     C_3   0.429537 0.915933 0.542482 -0.102140
C43   C     C_3   0.441724 0.083896 0.456934 -0.105406
C44   C     C_3   0.441990 0.916574 0.456885 -0.104110
C45   C     C_R   0.392252 0.539062 0.127363 0.024661
C46   C     C_R   0.393863 0.536522 0.177849 0.397473
C47   C     C_R   0.608682 0.471290 0.177896 0.397720
C48   C     C_R   0.510712 0.373603 0.278655 -0.057629
C49   C     C_R   0.510149 0.372677 0.328813 -0.149159
C50   C     C_R   0.490433 0.629473 0.329028 -0.148756
C51   C     C_R   0.283417 0.572318 0.102219 -0.112394
C52   C     C_R   0.610973 0.472201 0.127400 0.024641
C53   C     C_R   0.500115 0.500710 0.354479 0.001789
C54   C     C_R   0.496454 0.500645 0.645067 0.017023
Cu1   Cu    Cu3+1 0.499860 0.642410 0.500020 0.879136
Cu2   Cu    Cu3+1 0.499860 0.357590 0.500020 0.898987
H1    H     H_    0.482364 0.729734 0.347769 0.112934
H2    H     H_    0.105539 0.285433 0.468523 0.116190
H3    H     H_    0.106830 0.523314 0.578548 0.161807
H4    H     H_    0.105437 0.286787 0.533161 0.153579
H5    H     H_    0.893141 0.523107 0.578527 0.126823
H6    H     H_    0.894384 0.286520 0.532984 0.126810
H7    H     H_    0.483264 0.729868 0.259663 0.128032
H8    H     H_    0.893539 0.688197 0.546119 0.119353
H9    H     H_    0.894616 0.285689 0.468341 0.117741
H10   H     H_    0.106166 0.686779 0.453368 0.119969
H11   H     H_    0.106568 0.520695 0.421772 0.119396
H12   H     H_    0.518369 0.274380 0.259235 0.128345
H13   H     H_    0.893602 0.686947 0.453442 0.118873
H14   H     H_    0.892968 0.521020 0.421749 0.120937
H15   H     H_    0.675968 0.122684 0.536760 0.117843
H16   H     H_    0.675601 0.877130 0.537004 0.114547
H17   H     H_    0.684444 0.121871 0.472630 0.113683
H18   H     H_    0.684781 0.878001 0.472886 0.115186
H19   H     H_    0.472027 0.120214 0.576835 0.165214
H20   H     H_    0.470736 0.878207 0.576888 0.136085
H21   H     H_    0.344454 0.123656 0.453394 0.111432
H22   H     H_    0.344889 0.876514 0.453173 0.112682
H23   H     H_    0.805853 0.415984 0.121182 0.167528
H24   H     H_    0.492796 0.121068 0.424531 0.116832
H25   H     H_    0.493539 0.880007 0.424556 0.116038
H26   H     H_    0.332273 0.123387 0.542044 0.147804
H27   H     H_    0.331765 0.876605 0.541780 0.121955
H28   H     H_    0.197465 0.595791 0.121075 0.167423
H29   H     H_    0.356619 0.346847 0.742113 0.168774
H30   H     H_    0.209320 0.641091 0.878491 0.169988
H31   H     H_    0.205921 0.642045 0.963524 0.110682
H32   H     H_    0.194093 0.599313 0.036047 0.108590
H33   H     H_    0.517919 0.271902 0.347407 0.113217
H34   H     H_    0.799613 0.380965 0.963311 0.110688
H35   H     H_    0.638366 0.663713 0.649656 0.120496
H36   H     H_    0.795608 0.383025 0.878287 0.170049
H37   H     H_    0.640749 0.668950 0.737973 0.149377
H38   H     H_    0.810283 0.418127 0.036148 0.108580
H39   H     H_    0.106163 0.688308 0.546091 0.123435
N1    N     N_R   0.501120 0.503148 0.201979 -0.398330
N2    N     N_R   0.501307 0.510050 0.797486 -0.398262
N3    N     N_3   0.500250 0.143650 0.501060 -0.234989
N4    N     N_3   0.500250 0.856350 0.501060 -0.230041
O1    O     O_R   0.317570 0.620260 0.500030 -0.514687
O2    O     O_2   0.297297 0.602014 0.796936 -0.483451
O3    O     O_2   0.713265 0.439852 0.202761 -0.495449
O4    O     O_2   0.705710 0.419304 0.796763 -0.487705
O5    O     O_R   0.317570 0.379740 0.500030 -0.503409
O6    O     O_R   0.499900 0.620250 0.430280 -0.512440
O7    O     O_R   0.499900 0.379750 0.430280 -0.513779
O8    O     O_R   0.682190 0.620260 0.500010 -0.518281
O9    O     O_R   0.682190 0.379740 0.500010 -0.518479
O10   O     O_R   0.499860 0.620280 0.569750 -0.513367
O11   O     O_R   0.499860 0.379720 0.569750 -0.472445
O12   O     O_2   0.288947 0.566315 0.202661 -0.495717

loop_
_geom_bond_atom_site_label_1
_geom_bond_atom_site_label_2
_ccdc_geom_bond_type
Cu2   O5    S    
C34   C52   A    
C18   C19   A    
C2    C5    A    
C33   H9    S    
C39   N3    S    
C35   H10   S    
C32   H8    S    
C6    C7    A    
C21   C34   A    
C49   C53   A    
C35   C36   S    
C31   H4    S    
C11   O4    S    
C2    C6    A    
C37   C38   S    
C43   N3    S    
C13   O2    S    
C30   H39   S    
Cu2   N3    S    
C45   C51   A    
Cu1   Cu2   S    
C17   C18   A    
Cu1   O8    S    
C12   C50   A    
C49   H33   S    
Cu2   O9    S    
C44   H25   S    
C32   H5    S    
C30   C32   S    
C26   H34   S    
C8    C9    A    
C11   N2    A    
C48   H12   S    
C20   C21   A    
C42   H27   S    
C14   C19   A    
Cu1   O10   S    
C13   N2    A    
C4    O6    A    
C47   C52   A    
C14   C15   A    
C23   N1    S    
C22   C29   A    
C28   O10   A    
C42   N4    S    
C3    C5    A    
C43   H24   S    
C16   O8    A    
C50   H1    S    
C3    C22   A    
C7    C8    A    
C28   C54   S    
C1    O1    A    
C47   O3    S    
C25   H23   S    
C30   C36   S    
C12   C23   A    
C27   H36   S    
C31   C33   S    
C30   H3    S    
C8    C13   A    
C29   H38   S    
C47   N1    A    
C40   H18   S    
C4    C53   S    
C6    H31   S    
C40   N4    S    
C44   H22   S    
Br1   C15   S    
C31   C36   S    
Cu1   O6    S    
C18   H37   S    
C17   C54   A    
C14   H29   S    
C39   C40   S    
Cu2   O7    S    
C25   C29   A    
C2    C20   A    
C41   C42   S    
Cu1   N4    S    
C25   C52   A    
C3    C26   A    
C43   C44   S    
C4    O7    A    
C23   C48   A    
C20   C24   A    
C45   C46   A    
C51   H28   S    
C39   H15   S    
C33   C37   S    
C24   H32   S    
C28   O11   A    
C35   C38   S    
C41   H26   S    
C44   N4    S    
C16   O9    A    
C5    C9    A    
C10   C11   A    
C35   H11   S    
Cu1   O1    S    
C42   H20   S    
C1    O5    A    
C41   H19   S    
C32   C37   S    
C46   N1    A    
C50   C53   A    
C17   H35   S    
C7    H30   S    
C43   H21   S    
C24   C51   A    
C41   N3    S    
C1    C36   S    
Cu2   O11   S    
C12   H7    S    
C10   C27   A    
C33   H6    S    
C38   H13   S    
C39   H17   S    
C16   C37   S    
C15   C54   A    
C9    C10   A    
C40   H16   S    
C19   N2    S    
C48   C49   A    
C26   C27   A    
C38   H14   S    
C21   C22   A    
C31   H2    S    
C34   C45   A    
C46   O12   S    
