data_mof_unit_67775.cif
_audit_creation_date              2013-03-05T15:40:34-0500
_audit_creation_method            fapswitch 2.2
_symmetry_space_group_name_H-M    P1
_symmetry_Int_Tables_number       1
_space_group_crystal_system       triclinic
_cell_length_a                    7.916216
_cell_length_b                    8.834681
_cell_length_c                    10.938997
_cell_angle_alpha                 92.273267
_cell_angle_beta                  85.021735
_cell_angle_gamma                 92.398857
_cell_volume                      760.990255026

loop_
_atom_site_label
_atom_site_type_symbol
_atom_site_description
_atom_site_fract_x
_atom_site_fract_y
_atom_site_fract_z
_atom_type_partial_charge
O1    O     O_R   0.389250 0.738570 0.508280 -0.572835
O2    O     O_R   0.610750 0.261430 0.491720 -0.587340
O3    O     O_R   0.678390 0.711630 0.486650 -0.637495
O4    O     O_R   0.321610 0.288370 0.513350 -0.634483
C1    C     C_R   0.543500 0.792739 0.490362 0.900143
C2    C     C_R   0.454514 0.205675 0.495570 0.819299
O5    O     O_R   0.355430 0.513480 0.694040 -0.631332
O6    O     O_R   0.644570 0.486520 0.305960 -0.637851
O7    O     O_R   0.644570 0.486540 0.672410 -0.629033
O8    O     O_R   0.355430 0.513460 0.327590 -0.621150
C3    C     C_R   0.503713 0.509920 0.740517 0.854001
C4    C     C_R   0.497325 0.484494 0.260837 0.847189
Zn1   Zn    Zn3+2 0.306940 0.517990 0.514440 0.927969
Zn2   Zn    Zn3+2 0.693060 0.482010 0.485560 0.913235
H1    H     H_    0.045560 0.398587 0.851651 0.118032
H2    H     H_    0.968462 0.560250 0.151960 0.171275
C5    C     C_R   0.220817 0.615679 0.912425 -0.262003
C6    C     C_R   0.779660 0.358825 0.093697 -0.189164
C7    C     C_R   0.052900 0.587599 0.968802 0.485482
C8    C     C_R   0.947018 0.368759 0.036437 0.474276
C9    C     C_R   0.039568 0.500863 0.075418 -0.159083
C10   C     C_R   0.968550 0.451907 0.926559 -0.228443
C11   C     C_R   0.186032 0.475588 0.132486 -0.221311
C12   C     C_R   0.823489 0.474194 0.866156 -0.192096
C13   C     C_R   0.348902 0.501271 0.073100 0.087596
C14   C     C_R   0.660447 0.480249 0.929537 0.124468
C15   C     C_R   0.362824 0.549792 0.952909 -0.002996
C16   C     C_R   0.646064 0.438896 0.052438 0.028185
C17   C     C_R   0.494973 0.465313 0.127116 -0.195849
C18   C     C_R   0.512850 0.523793 0.875673 -0.214295
H3    H     H_    0.242898 0.691980 0.837504 0.145509
H4    H     H_    0.754887 0.287067 0.171612 0.150682
H5    H     H_    0.167503 0.402751 0.210097 0.179293
H6    H     H_    0.854543 0.518425 0.777476 0.182220
C19   C     C_2   0.565124 0.953581 0.475491 0.205419
C20   C     C_2   0.428213 0.041171 0.481639 0.147487
N1    N     N_2   0.950330 0.457950 0.466250 -0.195431
N2    N     N_2   0.049670 0.542050 0.533750 -0.197146
H7    H     H_    0.013314 0.381720 0.407303 0.167861
H8    H     H_    0.986785 0.620829 0.590308 0.168719
O9    O     O_3   0.952162 0.714781 0.983360 -0.651519
C21   C     C_3   0.954989 0.802450 0.877918 0.090071
H9    H     H_    0.978860 0.735474 0.790959 0.109426
H10   H     H_    0.061120 0.886563 0.881614 0.115682
C22   C     C_3   0.788393 0.884044 0.879654 -0.327105
H11   H     H_    0.691231 0.830258 0.945580 0.249535
H12   H     H_    0.811021 0.002474 0.913693 0.212392
C23   C     C_3   0.717067 0.883583 0.753652 -0.901186
H13   H     H_    0.812691 0.857733 0.676566 0.276130
H14   H     H_    0.666895 0.995703 0.737966 0.257760
H15   H     H_    0.610634 0.798960 0.749930 0.239407
O10   O     O_3   0.022082 0.227593 0.046022 -0.679404
C24   C     C_3   0.167417 0.193915 0.964912 0.067170
H16   H     H_    0.235912 0.291874 0.924440 0.166771
H17   H     H_    0.127921 0.121931 0.888064 0.143383
C25   C     C_3   0.295575 0.110892 0.031386 -0.366081
H18   H     H_    0.318157 0.170688 0.120043 0.229312
H19   H     H_    0.249814 0.993788 0.048034 0.238577
C26   C     C_3   0.461737 0.095295 0.953739 -0.998873
H20   H     H_    0.442668 0.008160 0.879970 0.269523
H21   H     H_    0.557318 0.059671 0.013867 0.270166
H22   H     H_    0.507072 0.202710 0.911347 0.277375
O11   O     O_3   0.728772 0.011899 0.455596 -0.684162
C27   C     C_3   0.771671 0.018530 0.327772 0.068420
H23   H     H_    0.858695 0.119503 0.314049 0.176510
H24   H     H_    0.662194 0.039686 0.273499 0.099424
C28   C     C_3   0.858116 0.873046 0.278552 -0.358543
H25   H     H_    0.899856 0.806328 0.352937 0.265504
H26   H     H_    0.768845 0.799852 0.227050 0.223201
C29   C     C_3   0.015446 0.910706 0.196801 -0.858164
H27   H     H_    0.975918 0.958694 0.112363 0.313661
H28   H     H_    0.089027 0.807900 0.174388 0.281934
H29   H     H_    0.099217 0.993952 0.243615 0.256254
O12   O     O_3   0.272722 0.969475 0.457407 -0.666166
C30   C     C_3   0.123492 0.040708 0.502646 0.178554
H30   H     H_    0.019627 0.958348 0.485956 0.201793
H31   H     H_    0.100492 0.139115 0.447476 0.152769
C31   C     C_3   0.106764 0.071603 0.641756 -0.391982
H32   H     H_    0.077478 0.962815 0.685956 0.188357
H33   H     H_    0.225793 0.117456 0.677798 0.209788
C32   C     C_3   0.966318 0.182654 0.675929 -0.870292
H34   H     H_    0.016196 0.299021 0.658347 0.272709
H35   H     H_    0.920040 0.175808 0.773666 0.249339
H36   H     H_    0.856173 0.159596 0.621702 0.313576

loop_
_geom_bond_atom_site_label_1
_geom_bond_atom_site_label_2
_geom_bond_distance
_ccdc_geom_bond_type
H2    C9    1.096013 S    
C4    C17   1.467503 S    
O9    C21   1.412706 S    
C19   C20   1.353297 D    
O7    Zn2   2.045804 S    
C32   H34   1.103784 S    
H1    C10   1.082459 S    
C22   H11   1.112560 S    
O5    C3    1.321101 A    
O1    C1    1.294398 A    
C16   C17   1.411041 A    
C7    C9    1.414666 A    
C12   C14   1.413133 A    
C31   H33   1.107810 S    
C22   C23   1.533970 S    
C25   H18   1.110462 S    
C22   H12   1.109251 S    
O4    Zn1   2.036293 S    
C23   H15   1.105122 S    
C3    C18   1.486468 S    
C25   H19   1.098579 S    
C11   H5    1.081758 S    
C29   H27   1.105959 S    
C23   H14   1.107529 S    
C26   H20   1.108469 S    
C15   C18   1.417875 A    
O2    C2    1.309836 A    
C21   H10   1.100437 S    
C32   H35   1.102824 S    
C24   H17   1.093359 S    
C13   C17   1.396912 A    
C26   H21   1.107660 S    
O12   C30   1.404484 S    
C28   H25   1.104419 S    
C5    C15   1.400106 A    
C27   C28   1.537846 S    
C7    C10   1.427963 A    
C6    C16   1.411871 A    
O4    C2    1.302325 A    
C31   H32   1.100008 S    
C24   H16   1.090151 S    
C12   H6    1.065270 S    
C28   H26   1.112156 S    
C21   C22   1.527543 S    
C27   H24   1.118099 S    
C30   H30   1.097378 S    
N1    N2    1.313017 D    
O7    C3    1.305356 A    
O6    C4    1.303862 A    
C29   H29   1.109563 S    
C30   H31   1.107773 S    
Zn1   N2    2.048311 S    
O3    Zn2   2.036293 S    
O8    C4    1.314272 A    
C23   H13   1.106637 S    
C8    C10   1.427360 A    
C14   C18   1.426688 A    
C9    C11   1.393635 A    
C5    H3    1.079697 S    
C10   C12   1.398204 A    
O1    Zn1   2.030577 S    
C21   H9    1.106440 S    
C32   H36   1.104056 S    
O10   C24   1.424767 S    
C24   C25   1.525988 S    
C20   O12   1.401657 S    
C26   H22   1.105394 S    
O6    Zn2   2.036453 S    
O3    C1    1.307508 A    
O8    Zn1   2.045804 S    
C29   H28   1.107330 S    
C13   C15   1.392887 A    
C14   C16   1.401003 A    
C25   C26   1.510836 S    
C28   C29   1.502397 S    
C27   H23   1.110915 S    
N1    H7    1.027526 S    
Zn2   N1    2.048311 S    
N2    H8    1.027804 S    
C31   C32   1.525941 S    
C1    C19   1.438095 S    
C5    C7    1.432164 A    
C2    C20   1.463348 S    
C6    C8    1.416279 A    
C11   C13   1.406299 A    
O2    Zn2   2.030577 S    
C30   C31   1.530617 S    
O11   C27   1.412913 S    
O5    Zn1   2.036453 S    
C6    H4    1.081780 S    
C8    C9    1.422635 A    
C8    O10   1.415183 S    
C19   O11   1.376641 S    
C7    O9    1.400920 S    
