data_mof_unit_62162.cif
_audit_creation_date              2012-12-11T16:15:11-0500
_audit_creation_method            fapswitch 2.2
_symmetry_space_group_name_H-M    P1
_symmetry_Int_Tables_number       1
_space_group_crystal_system       triclinic
_cell_length_a                    8.255124
_cell_length_b                    14.943841
_cell_length_c                    17.335238
_cell_angle_alpha                 96.251147
_cell_angle_beta                  96.113373
_cell_angle_gamma                 97.781237
_cell_volume                      2090.22334616

loop_
_atom_site_label
_atom_site_type_symbol
_atom_type_description
_atom_site_fract_x
_atom_site_fract_y
_atom_site_fract_z
_atom_type_partial_charge
Ba1   Ba    Ba6+2 0.159600 0.544390 0.464780 1.703206
Ba2   Ba    Ba6+2 0.650580 0.455600 0.535150 1.697724
C1    C     C_3   0.396143 0.767899 0.178089 -0.357959
C2    C     C_R   0.885278 0.790987 0.518702 0.015785
C3    C     C_R   0.072836 0.233559 0.522835 -0.304972
C4    C     C_3   0.882575 0.788353 0.273432 0.327066
C5    C     C_R   0.164864 0.173266 0.556492 -0.043888
C6    C     C_R   0.097689 0.081469 0.554691 0.276256
C7    C     C_R   0.943732 0.045517 0.507805 -0.018234
C8    C     C_R   0.853759 0.108971 0.471228 -0.015784
C9    C     C_R   0.873276 0.950114 0.496644 0.018522
C10   C     C_R   0.708626 0.922543 0.459171 -0.007392
C11   C     C_R   0.625348 0.986777 0.425145 -0.073312
C12   C     C_3   0.408327 0.739763 0.259919 0.382390
C13   C     C_R   0.698980 0.076569 0.428137 -0.026436
C14   C     C_R   0.961677 0.879955 0.518651 -0.095435
C15   C     C_R   0.722661 0.766411 0.485796 -0.245326
C16   C     C_3   0.972444 0.885592 0.285584 -0.333097
C17   C     C_R   0.918880 0.203856 0.480084 0.106370
C18   C     C_R   0.601107 0.538552 0.281275 -0.279215
C19   C     C_R   0.444651 0.489725 0.255223 0.060775
C20   C     C_R   0.384448 0.479744 0.175520 -0.119512
C21   C     C_R   0.481697 0.517177 0.121863 -0.002548
C22   C     C_R   0.641940 0.562923 0.148266 -0.137975
C23   C     C_3   0.601680 0.740814 0.677360 0.667880
C24   C     C_R   0.702372 0.572360 0.228050 -0.012823
C25   C     C_R   0.415096 0.517291 0.835816 -0.128560
C26   C     C_R   0.362546 0.505697 0.755353 0.035455
C27   C     C_R   0.102689 0.422414 0.776632 -0.008364
C28   C     C_3   0.746850 0.346301 0.297835 0.302715
C29   C     C_R   0.154082 0.433408 0.857600 -0.117294
C30   C     C_R   0.312142 0.480144 0.887333 0.000838
C31   C     C_1   0.368553 0.492936 0.970377 0.003500
C32   C     C_1   0.419667 0.504252 0.039417 0.003024
C33   C     C_R   0.209842 0.455389 0.725928 -0.254511
C34   C     C_3   0.736505 0.800005 0.734523 -0.282989
C35   C     C_3   0.714829 0.322787 0.209425 -0.384612
C36   C     C_3   0.062946 0.651501 0.701507 0.317363
C37   C     C_3   0.126466 0.677181 0.788014 -0.364787
C38   C     C_3   0.241579 0.269152 0.364202 0.315109
C39   C     C_3   0.216615 0.166254 0.342752 -0.384927
C40   C     C_3   0.863520 0.204361 0.708810 0.913663
C41   C     C_3   0.825704 0.112793 0.738880 -0.208838
C42   C     C_3   0.356720 0.227770 0.745929 0.814894
C43   C     C_3   0.470475 0.289419 0.810377 -0.261676
C44   C     C_R   0.634089 0.830009 0.454165 0.044366
Cl1   Cl    Cl    0.487073 0.815196 0.628767 -0.629537
Cl2   Cl    Cl    0.255522 0.137642 0.790805 -0.662585
Cl3   Cl    Cl    0.200776 0.022002 0.622864 -0.598891
F1    F     F_    0.779648 0.198865 0.634856 -0.684172
H1    H     H_    0.315476 0.678572 0.259772 0.098445
H2    H     H_    0.123482 0.290464 0.377313 -0.003936
H3    H     H_    0.334950 0.287286 0.416561 0.060253
H4    H     H_    0.270633 0.783728 0.160978 0.146650
H5    H     H_    0.118576 0.145623 0.292469 0.124039
H6    H     H_    0.179933 0.131555 0.392875 0.036038
H7    H     H_    0.333098 0.144139 0.326739 0.123618
H8    H     H_    0.533516 0.722547 0.274939 -0.114884
H9    H     H_    0.420836 0.711663 0.135687 0.072125
H10   H     H_    0.658221 0.699205 0.633447 -0.048536
H11   H     H_    0.822530 0.841445 0.702585 0.118036
H12   H     H_    0.606255 0.268814 0.193353 0.129432
H13   H     H_    0.682194 0.846568 0.775520 0.141496
H14   H     H_    0.804477 0.756136 0.769245 0.068170
H15   H     H_    0.487912 0.829054 0.176348 0.108332
H16   H     H_    0.888622 0.933022 0.305755 0.048211
H17   H     H_    0.997293 0.218116 0.705305 -0.075323
H18   H     H_    0.868288 0.058961 0.699990 0.124958
H19   H     H_    0.889565 0.115557 0.798969 0.093917
H20   H     H_    0.691048 0.095018 0.740078 0.162265
H21   H     H_    0.263863 0.267919 0.722034 -0.237056
H22   H     H_    0.400245 0.311221 0.858344 0.071978
H23   H     H_    0.690577 0.383537 0.181446 0.066647
H24   H     H_    0.524977 0.350265 0.786380 0.109908
H25   H     H_    0.843473 0.772727 0.330631 -0.031577
H26   H     H_    0.568665 0.253142 0.835168 0.145079
H27   H     H_    0.664608 0.696868 0.484896 0.077213
H28   H     H_    0.502668 0.968084 0.394130 0.093039
H29   H     H_    0.092215 0.890034 0.531802 0.193240
H30   H     H_    0.125439 0.304534 0.527115 0.057175
H31   H     H_    0.629391 0.120650 0.397361 0.089037
H32   H     H_    0.533348 0.557446 0.858308 0.077824
H33   H     H_    0.720428 0.588888 0.106995 0.075516
H34   H     H_    0.824202 0.298238 0.187028 0.128907
H35   H     H_    0.070404 0.408105 0.897017 0.079146
H36   H     H_    0.772563 0.784272 0.229713 -0.004561
H37   H     H_    0.263873 0.441079 0.155172 0.087206
H38   H     H_    0.648563 0.544861 0.342567 0.065291
H39   H     H_    0.168386 0.449011 0.663927 0.049028
H40   H     H_    0.081119 0.892106 0.330585 0.149297
H41   H     H_    0.014085 0.904551 0.229917 0.122097
H42   H     H_    0.634993 0.367054 0.319639 0.006422
H43   H     H_    0.850838 0.403148 0.312181 0.066858
H44   H     H_    0.156945 0.619976 0.671702 0.017480
H45   H     H_    0.948719 0.601765 0.695817 0.044729
H46   H     H_    0.247565 0.721527 0.795122 0.171275
H47   H     H_    0.139546 0.615426 0.816407 0.048467
H48   H     H_    0.039703 0.714101 0.818714 0.114867
O1    O     O_2   0.167760 0.722240 0.545330 -0.384776
O2    O     O_2   0.778097 0.443513 0.772531 -0.501165
O3    O     O_3   0.812671 0.272086 0.759657 -0.634096
O4    O     O_3   0.895630 0.608830 0.542770 -0.513727
O5    O     O_3   0.421020 0.453750 0.407560 -0.493669
O6    O     O_2   0.649640 0.543870 0.686710 -0.477593
O7    O     O_3   0.496743 0.689652 0.720442 -0.648844
O8    O     O_2   0.494869 0.172599 0.541731 -0.396757
O9    O     O_3   0.450474 0.191699 0.689647 -0.514100
O10   O     O_3   0.383340 0.666720 0.405900 -0.487032
O11   O     O_2   0.292442 0.825570 0.453606 -0.438071
O12   O     O_3   0.293620 0.310072 0.300480 -0.633155
O13   O     O_3   0.030603 0.730286 0.669669 -0.605179
O14   O     O_3   0.377088 0.811560 0.312860 -0.615816
O15   O     O_2   0.160650 0.456070 0.313260 -0.465829
O16   O     O_3   0.956180 0.620960 0.366010 -0.477833
O17   O     O_2   0.036857 0.560293 0.227523 -0.491179
O18   O     O_3   0.987294 0.729355 0.244535 -0.581560
O19   O     O_2   0.642530 0.277700 0.454650 -0.461365
O20   O     O_3   0.914670 0.391160 0.457170 -0.501629
O21   O     O_3   0.426950 0.333280 0.594040 -0.488463
O22   O     O_3   0.784578 0.268953 0.330265 -0.649061
O23   O     O_3   0.389270 0.546240 0.592370 -0.461010
O24   O     O_3   0.854110 0.379030 0.633930 -0.427325
P1    P     P_3+3 0.994810 0.708030 0.567580 1.048244
P2    P     P_3+3 0.329370 0.428660 0.324010 0.981007
P3    P     P_3+3 0.918537 0.619342 0.264650 0.948600
P4    P     P_3+3 0.815490 0.291960 0.432360 0.993016
P5    P     P_3+3 0.888447 0.379387 0.735656 0.984616
P6    P     P_3+3 0.421702 0.784988 0.407961 1.008087
P7    P     P_3+3 0.474432 0.572119 0.690152 0.955515
P8    P     P_3+3 0.382123 0.216476 0.595734 1.121056

loop_
_geom_bond_atom_site_label_1
_geom_bond_atom_site_label_2
_ccdc_geom_bond_type
C29   H35   S    
O2    P5    D    
Ba1   O1    S    
C35   H12   S    
Ba2   O20   S    
C23   O7    S    
C4    H25   S    
C13   H31   S    
C12   O14   S    
C28   O22   S    
C43   H26   S    
C16   H41   S    
C44   P6    S    
C22   H33   S    
C22   C24   A    
Ba1   Ba2   S    
C28   H43   S    
C8    C13   A    
C36   C37   S    
C1    H4    S    
O22   P4    S    
C42   O9    S    
Ba2   O4    S    
O21   P8    S    
C42   H21   S    
C26   P7    S    
O24   P5    S    
C39   H5    S    
C5    P8    S    
C35   H23   S    
O12   P2    S    
C29   C30   A    
C26   C33   A    
C41   H18   S    
C36   H45   S    
C21   C22   A    
C35   H34   S    
C23   H10   S    
Ba1   O4    S    
C34   H13   S    
C7    C8    A    
Ba1   O5    S    
C41   H19   S    
C19   C20   A    
C43   H22   S    
C1    H15   S    
Ba1   O15   S    
O9    P8    S    
C4    C16   S    
O5    P2    S    
Ba2   O19   S    
Ba2   O24   S    
C12   H8    S    
O13   P1    S    
C16   H40   S    
C5    C6    A    
C15   C44   A    
C28   H42   S    
C3    C5    A    
O16   P3    S    
C6    C7    A    
C37   H48   S    
O7    P7    S    
Ba1   O10   S    
C38   H2    S    
C28   C35   S    
C43   H24   S    
C24   P3    S    
C2    C14   A    
Ba1   P1    S    
C39   H6    S    
C9    C14   A    
O11   P6    D    
C12   H1    S    
Ba2   O6    S    
C8    C17   A    
C9    C10   A    
C21   C32   S    
C36   H44   S    
C15   H27   S    
C31   C32   T    
C20   H37   S    
O10   P6    S    
C3    H30   S    
C7    C9    A    
C4    O18   S    
C1    C12   S    
C40   F1    S    
C2    C15   A    
Ba2   P4    S    
C10   C44   A    
C38   C39   S    
C41   H20   S    
O6    P7    D    
C11   C13   A    
C40   H17   S    
C40   C41   S    
O4    P1    S    
C40   O3    S    
C33   H39   S    
C42   C43   S    
O1    P1    D    
O19   P4    D    
Ba2   O23   S    
O8    P8    D    
C23   Cl1   S    
C11   H28   S    
C25   C30   A    
C25   H32   S    
O23   P7    S    
O17   P3    D    
C38   O12   S    
Ba2   O21   S    
C3    C17   A    
C16   H16   S    
C27   C33   A    
C17   P4    S    
C4    H36   S    
O18   P3    S    
C14   H29   S    
C30   C31   S    
C19   P2    S    
C27   P5    S    
Ba1   P2    S    
C39   H7    S    
C27   C29   A    
O15   P2    D    
C18   C24   A    
Ba2   O5    S    
C18   H38   S    
O3    P5    S    
Ba1   O20   S    
Ba1   O23   S    
C37   H46   S    
O14   P6    S    
C37   H47   S    
C23   C34   S    
C42   Cl2   S    
C10   C11   A    
C2    P1    S    
C18   C19   A    
C38   H3    S    
Ba1   O16   S    
C25   C26   A    
C20   C21   A    
O20   P4    S    
C36   O13   S    
C34   H14   S    
C6    Cl3   S    
C34   H11   S    
C1    H9    S    
