data_mof_unit_55317.cif
_audit_creation_date              2012-12-10T18:35:14-0500
_audit_creation_method            fapswitch 2.2
_symmetry_space_group_name_H-M    P1
_symmetry_Int_Tables_number       1
_space_group_crystal_system       triclinic
_cell_length_a                    15.001225
_cell_length_b                    15.136781
_cell_length_c                    15.236172
_cell_angle_alpha                 93.619263
_cell_angle_beta                  98.569686
_cell_angle_gamma                 94.866344
_cell_volume                      3398.62972665

loop_
_atom_site_label
_atom_site_type_symbol
_atom_type_description
_atom_site_fract_x
_atom_site_fract_y
_atom_site_fract_z
_atom_type_partial_charge
C1    C     C_R   0.555666 0.663236 0.508304 0.862752
C2    C     C_R   0.478003 0.183812 0.441678 -0.216464
C3    C     C_R   0.555186 0.890841 0.424730 0.009702
C4    C     C_R   0.451077 0.097218 0.403769 0.012382
C5    C     C_R   0.649217 0.921367 0.440449 -0.062802
C6    C     C_R   0.357219 0.066182 0.387156 -0.055794
C7    C     C_R   0.490524 0.946615 0.387794 -0.072031
C8    C     C_R   0.516906 0.037508 0.391798 -0.067033
C9    C     C_R   0.608405 0.063314 0.385866 0.076458
C10   C     C_R   0.400141 0.917495 0.349431 0.055255
C11   C     C_R   0.674648 0.006446 0.413508 0.538853
C12   C     C_R   0.444736 0.336335 0.485510 0.869899
C13   C     C_R   0.333437 0.977181 0.351291 0.531925
C14   C     C_R   0.178119 0.665938 0.412174 -0.389282
C15   C     C_R   0.828994 0.343245 0.598090 -0.372018
C16   C     C_R   0.511132 0.497383 0.343431 0.829140
C17   C     C_R   0.489471 0.505973 0.656378 0.834457
C18   C     C_R   0.260413 0.630127 0.417684 0.744860
C19   C     C_R   0.742571 0.370186 0.582605 0.751277
C20   C     C_R   0.203920 0.505515 0.486205 -0.206493
C21   C     C_R   0.796789 0.501533 0.522582 -0.215649
C22   C     C_R   0.120433 0.541494 0.488278 -0.001494
C23   C     C_R   0.588114 0.754480 0.493074 -0.120545
C24   C     C_R   0.884695 0.473452 0.528322 -0.000403
C25   C     C_R   0.107177 0.620670 0.445757 0.052260
C26   C     C_R   0.900630 0.395605 0.572868 0.049150
C27   C     C_R   0.048180 0.499006 0.525523 0.016894
C28   C     C_R   0.957910 0.521520 0.496413 0.013411
C29   C     C_R   0.946041 0.591132 0.437190 0.137440
C30   C     C_R   0.061844 0.433651 0.588634 0.146654
C31   C     C_R   0.021229 0.648763 0.428177 -0.170213
C32   C     C_R   0.988451 0.375269 0.600209 -0.171334
C33   C     C_R   0.522218 0.513459 0.248501 -0.148313
C34   C     C_R   0.414507 0.242135 0.458379 -0.118006
C35   C     C_R   0.492288 0.530943 0.754237 -0.171504
C36   C     C_R   0.458425 0.560236 0.194218 0.141199
C37   C     C_R   0.560305 0.500043 0.817684 0.120465
C38   C     C_R   0.490104 0.616598 0.133147 -0.162000
C39   C     C_R   0.593530 0.552764 0.897395 -0.155879
C40   C     C_R   0.577958 0.615286 0.114151 0.069627
C41   C     C_R   0.554701 0.630300 0.919087 0.064604
C42   C     C_R   0.631305 0.551332 0.149134 -0.247286
C43   C     C_R   0.476276 0.650086 0.865816 -0.216712
C44   C     C_R   0.605421 0.500375 0.216649 0.183750
C45   C     C_R   0.713390 0.865476 0.480808 0.170377
C46   C     C_R   0.443673 0.601746 0.783989 0.153651
C47   C     C_2   0.620736 0.691264 0.073884 0.100687
C48   C     C_2   0.605875 0.700598 0.984532 0.100832
C49   C     C_3   0.357560 0.552838 0.198764 -0.356646
C50   C     C_3   0.300368 0.528691 0.107142 -0.911835
C51   C     C_3   0.601168 0.413288 0.801284 -0.350206
C52   C     C_3   0.589266 0.350691 0.874500 -0.880618
C53   C     C_3   0.632457 0.136794 0.328359 -0.362685
C54   C     C_3   0.652173 0.096772 0.238991 -0.826900
C55   C     C_3   0.377436 0.832333 0.289173 -0.297961
C56   C     C_R   0.291546 0.125130 0.405829 0.169222
C57   C     C_3   0.369455 0.852110 0.191373 -0.877682
C58   C     C_3   0.860613 0.597724 0.370978 -0.429155
C59   C     C_3   0.879306 0.605001 0.275366 -0.880504
C60   C     C_3   0.149244 0.430821 0.653215 -0.437950
C61   C     C_3   0.134842 0.439755 0.750672 -0.860840
C62   C     C_3   0.360915 0.633743 0.730352 -0.402516
C63   C     C_3   0.385897 0.715421 0.682016 -0.803947
C64   C     C_3   0.667155 0.431504 0.249639 -0.404794
C65   C     C_3   0.619466 0.338482 0.229365 -0.879798
C66   C     C_3   0.644636 0.782228 0.944501 -0.397829
C67   C     C_R   0.680857 0.781718 0.504764 -0.198355
C68   C     C_3   0.735026 0.766322 0.914614 -0.865743
C69   C     C_3   0.680300 0.759306 0.140065 -0.393111
C70   C     C_3   0.624118 0.826153 0.180391 -0.871170
C71   C     C_3   0.814821 0.895368 0.498714 -0.312569
C72   C     C_3   0.876040 0.834231 0.550671 -0.957577
C73   C     C_3   0.190413 0.093952 0.391138 -0.312917
C74   C     C_3   0.127564 0.159152 0.423886 -0.938271
C75   C     C_R   0.322230 0.212883 0.440261 -0.198262
C76   C     C_R   0.526354 0.810413 0.456234 -0.222112
F1    F     F_    0.673457 0.320104 0.608534 -0.682471
F2    F     F_    0.329468 0.672875 0.385388 -0.731933
F3    F     F_    0.762423 0.035089 0.411078 -0.713790
F4    F     F_    0.246751 0.947067 0.316523 -0.717492
H1    H     H_    0.012037 0.708148 0.392960 0.160067
H2    H     H_    0.447122 0.663470 0.102031 0.140056
H3    H     H_    0.549296 0.206065 0.459504 0.193168
H4    H     H_    0.454776 0.791295 0.452805 0.214341
H5    H     H_    0.274688 0.259929 0.453277 0.169824
H6    H     H_    0.727266 0.736355 0.532548 0.169480
H7    H     H_    0.305828 0.583883 0.063055 0.256433
H8    H     H_    0.322173 0.467779 0.075286 0.271697
H9    H     H_    0.228034 0.515720 0.114756 0.255991
H10   H     H_    0.337882 0.499203 0.240133 0.233471
H11   H     H_    0.338981 0.617026 0.226644 0.249520
H12   H     H_    0.999658 0.319368 0.640318 0.150772
H13   H     H_    0.627905 0.378814 0.939512 0.254771
H14   H     H_    0.516475 0.338538 0.880726 0.263439
H15   H     H_    0.614863 0.286073 0.857424 0.262589
H16   H     H_    0.568139 0.376653 0.737888 0.249305
H17   H     H_    0.674420 0.427381 0.797796 0.218246
H18   H     H_    0.713953 0.060818 0.248369 0.293596
H19   H     H_    0.594005 0.049738 0.206404 0.247936
H20   H     H_    0.663000 0.149458 0.193388 0.238461
H21   H     H_    0.575456 0.178073 0.312970 0.200712
H22   H     H_    0.692043 0.180649 0.363201 0.238860
H23   H     H_    0.781665 0.565983 0.501800 0.159957
H24   H     H_    0.355893 0.788775 0.148652 0.239639
H25   H     H_    0.312951 0.893611 0.173123 0.297669
H26   H     H_    0.433500 0.887568 0.178336 0.252336
H27   H     H_    0.429960 0.785335 0.300529 0.222304
H28   H     H_    0.311997 0.798839 0.300626 0.278216
H29   H     H_    0.914828 0.670521 0.267080 0.257075
H30   H     H_    0.919854 0.550949 0.255948 0.269188
H31   H     H_    0.814390 0.599028 0.229574 0.237498
H32   H     H_    0.814546 0.536609 0.367336 0.212000
H33   H     H_    0.825739 0.655887 0.390963 0.204547
H34   H     H_    0.216238 0.441066 0.509236 0.156154
H35   H     H_    0.099264 0.499598 0.763539 0.265416
H36   H     H_    0.095117 0.379976 0.768146 0.255349
H37   H     H_    0.201560 0.446965 0.794608 0.248190
H38   H     H_    0.179413 0.367707 0.639859 0.203014
H39   H     H_    0.198590 0.487308 0.647015 0.211413
H40   H     H_    0.441810 0.703518 0.644165 0.265954
H41   H     H_    0.326133 0.730813 0.635164 0.247741
H42   H     H_    0.407965 0.773755 0.730671 0.236772
H43   H     H_    0.322551 0.581023 0.683297 0.223443
H44   H     H_    0.312429 0.651542 0.775650 0.193999
H45   H     H_    0.169236 0.726936 0.379606 0.182589
H46   H     H_    0.669296 0.291309 0.250380 0.256279
H47   H     H_    0.561575 0.329319 0.266670 0.252135
H48   H     H_    0.595045 0.325213 0.156834 0.266496
H49   H     H_    0.728507 0.434227 0.216551 0.202771
H50   H     H_    0.692987 0.442617 0.321397 0.229202
H51   H     H_    0.784590 0.749943 0.971537 0.252768
H52   H     H_    0.725566 0.710706 0.861898 0.263626
H53   H     H_    0.762753 0.827207 0.887161 0.252559
H54   H     H_    0.597021 0.797786 0.885615 0.206976
H55   H     H_    0.652649 0.842713 0.991017 0.212866
H56   H     H_    0.840136 0.283200 0.631708 0.174665
H57   H     H_    0.586354 0.861750 0.127462 0.247797
H58   H     H_    0.575369 0.791720 0.218039 0.270230
H59   H     H_    0.669466 0.875665 0.227125 0.261917
H60   H     H_    0.716227 0.724799 0.195116 0.212801
H61   H     H_    0.734622 0.794790 0.110121 0.214658
H62   H     H_    0.854758 0.823842 0.616332 0.268346
H63   H     H_    0.875208 0.769437 0.512089 0.257564
H64   H     H_    0.946860 0.865622 0.562553 0.268016
H65   H     H_    0.839182 0.903036 0.433976 0.251976
H66   H     H_    0.825145 0.960773 0.538065 0.249998
H67   H     H_    0.695886 0.545268 0.126880 0.123623
H68   H     H_    0.147776 0.178155 0.496208 0.260579
H69   H     H_    0.127975 0.219304 0.385730 0.262632
H70   H     H_    0.057140 0.126782 0.413318 0.278083
H71   H     H_    0.167219 0.078017 0.318731 0.256824
H72   H     H_    0.180457 0.032736 0.426538 0.244095
H73   H     H_    0.444351 0.708514 0.884875 0.136771
H74   H     H_    0.653131 0.536050 0.940180 0.138181
N1    N     N_R   0.271750 0.551950 0.454510 -0.127836
N2    N     N_R   0.728250 0.448050 0.545490 -0.137877
O1    O     O_R   0.615140 0.606020 0.522930 -0.620600
O2    O     O_R   0.384860 0.393980 0.477070 -0.623889
O3    O     O_R   0.468580 0.639400 0.493740 -0.547769
O4    O     O_R   0.531420 0.360600 0.506260 -0.541552
O5    O     O_R   0.581950 0.481350 0.400520 -0.597928
O6    O     O_R   0.418050 0.518650 0.599480 -0.593764
O7    O     O_R   0.435380 0.514730 0.371330 -0.571627
O8    O     O_R   0.564620 0.485270 0.628670 -0.568344
Zn1   Zn    Zn3+2 0.597860 0.477710 0.519490 0.961220
Zn2   Zn    Zn3+2 0.402140 0.522290 0.480510 0.954038

loop_
_geom_bond_atom_site_label_1
_geom_bond_atom_site_label_2
_ccdc_geom_bond_type
C25   C31   A    
C72   H63   S    
C66   C68   S    
C51   H17   S    
C20   N1    A    
C40   C47   S    
C73   C74   S    
C14   C18   A    
C57   H25   S    
C23   C76   A    
C4    C8    A    
C76   H4    S    
C62   H44   S    
C7    C8    A    
C39   C41   A    
C53   C54   S    
C44   C64   S    
C15   C19   A    
C28   C29   A    
C14   H45   S    
C46   C62   S    
O5    Zn1   S    
C58   H32   S    
C65   H47   S    
C74   H68   S    
C68   H53   S    
C35   C37   A    
C24   C26   A    
C5    C11   A    
C3    C7    A    
C37   C51   S    
C45   C71   S    
N1    Zn2   S    
C69   H61   S    
C59   H30   S    
C60   H39   S    
C52   H15   S    
C19   F1    S    
C7    C10   A    
C23   C67   A    
C68   H52   S    
C47   C69   S    
C66   H54   S    
C75   H5    S    
C53   H21   S    
C8    C9    A    
C22   C25   A    
C30   C60   S    
C45   C67   A    
C58   H33   S    
C59   H31   S    
C74   H69   S    
C33   C36   A    
C30   C32   A    
C49   H10   S    
C50   H8    S    
C34   C75   A    
C2    C34   A    
C69   H60   S    
C40   C42   A    
C57   H26   S    
C13   F4    S    
C70   H59   S    
C56   C75   A    
O6    Zn2   S    
C38   H2    S    
C27   C30   A    
C19   N2    A    
C41   C43   A    
C54   H20   S    
C2    H3    S    
C42   C44   A    
C49   H11   S    
C42   H67   S    
C62   H43   S    
C63   H41   S    
C16   O7    A    
C39   H74   S    
C61   H37   S    
C51   C52   S    
C65   H48   S    
C1    O3    A    
O7    Zn2   S    
C4    C6    A    
O1    Zn1   S    
C26   C32   A    
C15   C26   A    
C15   H56   S    
C58   C59   S    
C5    C45   A    
C55   H27   S    
C60   C61   S    
C68   H51   S    
C72   H62   S    
C61   H35   S    
C62   C63   S    
C3    C76   A    
C17   O8    A    
C16   C33   S    
C50   H9    S    
C47   C48   D    
C53   H22   S    
C18   F2    S    
C61   H36   S    
C52   H13   S    
O4    Zn1   S    
C12   O4    A    
C60   H38   S    
C10   C55   S    
C9    C11   A    
C11   F3    S    
C50   H7    S    
C71   H65   S    
C64   H50   S    
C70   H58   S    
C22   C27   A    
C55   C57   S    
C73   H72   S    
C41   C48   S    
C54   H19   S    
C9    C53   S    
C20   C22   A    
C12   C34   S    
C63   H42   S    
C52   H14   S    
C29   C58   S    
O2    Zn2   S    
C72   H64   S    
C57   H24   S    
O8    Zn1   S    
C67   H6    S    
C56   C73   S    
C33   C44   A    
C74   H70   S    
C24   C28   A    
C6    C56   A    
C3    C5    A    
C10   C13   A    
C1    C23   S    
C16   O5    A    
C51   H16   S    
C31   H1    S    
O3    Zn2   S    
C55   H28   S    
C48   C66   S    
C64   C65   S    
C1    O1    A    
C71   C72   S    
C37   C39   A    
C65   H46   S    
C6    C13   A    
C38   C40   A    
C63   H40   S    
C32   H12   S    
N2    Zn1   S    
C2    C4    A    
C36   C38   A    
C59   H29   S    
C21   N2    A    
C14   C25   A    
C69   C70   S    
C43   C46   A    
C20   H34   S    
C17   O6    A    
C18   N1    A    
C66   H55   S    
C21   H23   S    
C71   H66   S    
C64   H49   S    
C70   H57   S    
C29   C31   A    
C49   C50   S    
C21   C24   A    
C27   C28   A    
C54   H18   S    
C17   C35   S    
C12   O2    A    
C43   H73   S    
C35   C46   A    
C73   H71   S    
C36   C49   S    
