data_mof_unit_55856.cif
_audit_creation_date              2012-12-11T16:26:26-0500
_audit_creation_method            fapswitch 2.2
_symmetry_space_group_name_H-M    P1
_symmetry_Int_Tables_number       1
_space_group_crystal_system       triclinic
_cell_length_a                    6.99773
_cell_length_b                    17.543965
_cell_length_c                    19.321904
_cell_angle_alpha                 108.316912
_cell_angle_beta                  89.159825
_cell_angle_gamma                 90.775435
_cell_volume                      2251.58023094

loop_
_atom_site_label
_atom_site_type_symbol
_atom_type_description
_atom_site_fract_x
_atom_site_fract_y
_atom_site_fract_z
_atom_type_partial_charge
O1    O     O_R   0.494330 0.415720 0.413720 -0.551077
O2    O     O_R   0.819330 0.430070 0.560210 -0.540400
O3    O     O_R   0.994320 0.584280 0.586280 -0.537439
C1    C     C_R   0.649250 0.415480 0.581873 0.700938
O4    O     O_R   0.823730 0.406300 0.412670 -0.522382
O5    O     O_R   0.998760 0.560340 0.437690 -0.523738
C2    C     C_R   0.656651 0.386872 0.382799 0.733649
O6    O     O_R   0.489890 0.439660 0.562310 -0.535654
O7    O     O_3   0.662340 0.550560 0.508380 -0.385910
V1    V     V_3+5 0.935370 0.490620 0.498450 1.443951
O8    O     O_R   0.328750 0.569930 0.439790 -0.565083
C3    C     C_R   0.161342 0.584632 0.418176 0.718395
O9    O     O_R   0.324340 0.593700 0.587330 -0.537756
C4    C     C_R   0.155342 0.615608 0.615280 0.690791
V2    V     V_3+5 0.435940 0.509380 0.501550 1.389578
O10   O     O_3   0.159100 0.449440 0.491620 -0.365374
C5    C     C_R   0.063664 0.594027 0.754182 -0.144134
C6    C     C_R   0.025056 0.581196 0.820620 -0.129650
C7    C     C_R   0.018407 0.645799 0.884450 -0.134548
C8    C     C_R   0.047172 0.723664 0.882179 -0.130005
C9    C     C_R   0.087205 0.738795 0.815554 0.060757
C10   C     C_R   0.097110 0.672454 0.750380 0.070694
C11   C     C_R   0.122113 0.818190 0.813783 -0.190083
C12   C     C_R   0.174894 0.831142 0.746268 -0.014255
C13   C     C_R   0.187295 0.763498 0.681449 0.027756
C14   C     C_R   0.145269 0.684963 0.683390 -0.159050
C15   C     C_R   0.214132 0.909312 0.740278 0.403373
C16   C     C_R   0.278222 0.916931 0.673295 -0.195064
C17   C     C_R   0.288929 0.850965 0.611301 -0.205332
C18   C     C_R   0.241645 0.775451 0.614799 -0.141754
H1    H     H_    0.992200 0.635720 0.936213 0.114743
H2    H     H_    0.040429 0.771554 0.933515 0.088021
H3    H     H_    0.318995 0.974796 0.668788 0.124061
C19   C     C_R   0.179466 0.597381 0.293281 -0.187016
C20   C     C_R   0.155284 0.633667 0.368741 -0.063496
C21   C     C_R   0.126126 0.716861 0.396765 -0.260898
C22   C     C_R   0.117686 0.763714 0.349761 0.119573
C23   C     C_R   0.143444 0.727067 0.273960 0.045910
C24   C     C_R   0.176653 0.643735 0.245730 0.085431
C25   C     C_R   0.081776 0.846404 0.377048 -0.197849
C26   C     C_R   0.069663 0.892354 0.329689 -0.197421
C27   C     C_R   0.094993 0.856594 0.254222 0.102551
C28   C     C_R   0.133817 0.773652 0.226232 0.047097
C29   C     C_R   0.162639 0.737206 0.150547 0.114898
C30   C     C_R   0.200221 0.654682 0.123379 -0.208075
C31   C     C_R   0.204668 0.608173 0.170418 -0.178005
C32   C     C_R   0.082416 0.902186 0.206240 -0.222309
C33   C     C_R   0.111022 0.866093 0.130961 -0.059680
C34   C     C_R   0.152877 0.783913 0.103455 -0.219571
H4    H     H_    0.197759 0.532977 0.271504 0.128165
H5    H     H_    0.106352 0.744678 0.454945 0.107876
H6    H     H_    0.061497 0.875463 0.435051 0.126053
H7    H     H_    0.052447 0.965881 0.227345 0.112278
H8    H     H_    0.177096 0.756421 0.045462 0.102847
H9    H     H_    0.223391 0.625866 0.065512 0.113948
H10   H     H_    0.229751 0.544296 0.147876 0.126011
C35   C     C_R   0.589581 0.215772 0.895411 -0.243027
C36   C     C_R   0.627720 0.133459 0.868752 -0.103366
C37   C     C_R   0.656238 0.096647 0.793624 -0.229919
C38   C     C_R   0.656096 0.142464 0.745575 0.114845
C39   C     C_R   0.617749 0.225552 0.772883 -0.008299
C40   C     C_R   0.578176 0.261887 0.847860 0.026459
C41   C     C_R   0.692494 0.106659 0.670799 -0.217706
C42   C     C_R   0.700584 0.153428 0.623985 -0.194921
C43   C     C_R   0.665799 0.236249 0.650695 0.126339
C44   C     C_R   0.618576 0.272118 0.725123 0.048422
C45   C     C_R   0.573997 0.354572 0.751875 0.045419
C46   C     C_R   0.523487 0.389103 0.825717 -0.303165
C47   C     C_R   0.522423 0.342865 0.873521 0.397593
C48   C     C_R   0.677669 0.283854 0.604368 -0.221010
C49   C     C_R   0.635825 0.366021 0.630860 -0.064878
C50   C     C_R   0.580763 0.400863 0.704197 -0.193059
H11   H     H_    0.563111 0.243080 0.953000 0.150138
H12   H     H_    0.674309 0.032149 0.772541 0.110311
H13   H     H_    0.720125 0.042886 0.648934 0.125882
H14   H     H_    0.734190 0.124813 0.566826 0.122807
H15   H     H_    0.718271 0.257029 0.547628 0.102787
H16   H     H_    0.547183 0.464270 0.724283 0.113176
H17   H     H_    0.486168 0.452032 0.846617 0.143325
H18   H     H_    0.514231 0.141620 0.440977 0.111255
C51   C     C_R   0.729939 0.407512 0.234670 0.326582
C52   C     C_R   0.743969 0.415931 0.164267 0.403775
C53   C     C_R   0.712169 0.349322 0.103145 -0.290450
C54   C     C_R   0.670527 0.275045 0.110278 -0.217634
C55   C     C_R   0.654875 0.263852 0.179098 0.035774
C56   C     C_R   0.678130 0.331195 0.243516 -0.085536
C57   C     C_R   0.617644 0.185813 0.183293 -0.136868
C58   C     C_R   0.591327 0.174466 0.251980 0.061020
C59   C     C_R   0.605212 0.240983 0.316826 0.068348
C60   C     C_R   0.649027 0.319162 0.313224 -0.144769
C61   C     C_R   0.550268 0.097271 0.257410 -0.151134
C62   C     C_R   0.522617 0.085889 0.325021 -0.122177
C63   C     C_R   0.535622 0.150695 0.388495 -0.128997
C64   C     C_R   0.576413 0.227292 0.384775 -0.132193
H19   H     H_    0.728124 0.353733 0.048971 0.174421
H20   H     H_    0.653364 0.225711 0.060525 0.123683
H21   H     H_    0.538447 0.044939 0.209551 0.103693
H22   H     H_    0.490795 0.026472 0.328134 0.121056
H23   H     H_    0.585381 0.275432 0.435869 0.091975
O11   O     O_R   0.775200 0.060470 0.937800 -0.547749
O12   O     O_R   0.441110 0.093720 0.087350 -0.541378
O13   O     O_R   0.266330 0.939630 0.062280 -0.539850
C65   C     C_R   0.609012 0.115721 0.115453 0.685945
O14   O     O_R   0.445750 0.069950 0.939820 -0.526140
O15   O     O_R   0.271000 0.915700 0.913700 -0.519269
C66   C     C_R   0.615765 0.084490 0.918139 0.715899
O16   O     O_R   0.770530 0.084400 0.086380 -0.536406
O17   O     O_3   0.602830 0.949510 0.991680 -0.370739
V3    V     V_3+5 0.329710 0.009370 0.001550 1.455853
O18   O     O_R   0.940990 0.906170 0.912570 -0.547979
C67   C     C_R   0.110153 0.885887 0.883385 0.788915
O19   O     O_R   0.936350 0.929940 0.060100 -0.541582
C68   C     C_R   0.103868 0.915063 0.081529 0.692168
V4    V     V_3+5 0.829160 0.990450 0.998310 1.426070
O20   O     O_3   0.105910 0.050480 0.008320 -0.368778
H24   H     H_    0.334453 0.858383 0.559968 0.134250
H25   H     H_    0.040528 0.955960 0.352124 0.128868
H26   H     H_    0.070030 0.541670 0.706157 0.105102
O21   O     O_3   0.474181 0.377139 0.946311 -0.575286
C69   C     C_3   0.275218 0.391758 0.954526 0.081931
H27   H     H_    0.188940 0.358913 0.905783 0.116423
H28   H     H_    0.252150 0.456827 0.964293 0.084521
C70   C     C_3   0.200410 0.370349 0.021294 -0.322437
H29   H     H_    0.314552 0.379696 0.062562 0.207159
H30   H     H_    0.081741 0.410875 0.047241 0.174795
C71   C     C_3   0.126855 0.283827 0.001389 -0.720273
H31   H     H_    0.238772 0.240946 0.973100 0.231975
H32   H     H_    0.000524 0.275463 0.965550 0.209463
H33   H     H_    0.083867 0.270103 0.051755 0.226564
O22   O     O_3   0.790707 0.471636 0.292911 -0.572698
C72   C     C_3   0.639922 0.526591 0.319611 0.131207
H34   H     H_    0.641088 0.541339 0.379317 0.193657
H35   H     H_    0.495472 0.500719 0.302382 0.038935
C73   C     C_3   0.670328 0.604722 0.300568 -0.305089
H36   H     H_    0.810632 0.604820 0.273940 0.253315
H37   H     H_    0.560356 0.608718 0.261402 0.165043
C74   C     C_3   0.657725 0.679964 0.367152 -0.783999
H38   H     H_    0.690946 0.733962 0.350739 0.231435
H39   H     H_    0.759469 0.676828 0.409520 0.237336
H40   H     H_    0.512946 0.686396 0.391529 0.233666
O23   O     O_3   0.813869 0.487190 0.156021 -0.575411
C75   C     C_3   0.689165 0.518446 0.114341 0.064404
H41   H     H_    0.663553 0.582354 0.145446 0.144850
H42   H     H_    0.545940 0.488643 0.104873 0.104921
C76   C     C_3   0.782081 0.516459 0.041444 -0.289766
H43   H     H_    0.929155 0.541441 0.050613 0.188323
H44   H     H_    0.791703 0.453946 0.004477 0.203452
C77   C     C_3   0.667737 0.565323 0.003833 -0.802437
H45   H     H_    0.514980 0.547171 0.000401 0.236889
H46   H     H_    0.723626 0.554725 0.947602 0.222939
H47   H     H_    0.679615 0.630378 0.034475 0.227177
H48   H     H_    0.001976 0.520771 0.822651 0.115514
O24   O     O_3   0.205976 0.977426 0.800843 -0.578952
C78   C     C_3   0.085446 0.036687 0.789429 0.030994
H49   H     H_    0.978918 0.051067 0.833814 0.170456
H50   H     H_    0.007241 0.017620 0.736734 0.104067
C79   C     C_3   0.201535 0.112619 0.796337 -0.297285
H51   H     H_    0.265604 0.132225 0.850968 0.227018
H52   H     H_    0.310439 0.097873 0.752772 0.208513
C80   C     C_3   0.089449 0.182772 0.788438 -0.825102
H53   H     H_    0.030416 0.167398 0.732873 0.251461
H54   H     H_    0.186744 0.235076 0.795789 0.224456
H55   H     H_    0.976609 0.200511 0.830996 0.246612
H56   H     H_    0.251149 0.726345 0.564388 0.109749

loop_
_geom_bond_atom_site_label_1
_geom_bond_atom_site_label_2
_ccdc_geom_bond_type
C29   C34   A    
C15   O24   S    
C57   C58   A    
C79   H51   S    
C26   C27   A    
C7    C8    A    
C12   C15   A    
C18   H56   S    
C1    O6    A    
C72   C73   S    
C7    H1    S    
C73   C74   S    
O19   V4    S    
C51   C52   A    
C35   C36   A    
C62   H22   S    
C70   H29   S    
C55   C56   A    
C29   C30   A    
C74   H39   S    
C71   H31   S    
C38   C41   A    
C16   C17   A    
C77   H46   S    
C19   C20   A    
C22   C25   A    
O4    V1    S    
O5    C3    A    
C23   C24   A    
C70   H30   S    
O12   V3    S    
V2    O10   S    
O17   V3    S    
C45   C50   A    
C54   H20   S    
C35   H11   S    
C59   C64   A    
O18   C67   A    
C50   H16   S    
O8    V2    S    
C39   C44   A    
C20   C21   A    
C46   C47   A    
C11   C12   A    
C77   H47   S    
C48   C49   A    
O1    V2    S    
C17   C18   A    
O7    V1    S    
O18   V4    S    
C78   H50   S    
C51   C56   A    
C69   C70   S    
C32   H7    S    
C46   H17   S    
C44   C45   A    
O15   C67   A    
C37   C38   A    
C79   H52   S    
C34   H8    S    
O9    C4    A    
C48   H15   S    
C75   C76   S    
C52   O23   S    
C6    H48   S    
O14   C66   A    
O19   C68   A    
C76   H44   S    
C69   H28   S    
C76   H43   S    
C55   C57   A    
C74   H40   S    
C19   H4    S    
C53   C54   A    
C45   C46   A    
C80   H55   S    
C35   C40   A    
O11   V4    S    
C12   C13   A    
C78   C79   S    
C56   C60   A    
C61   C62   A    
O4    C2    A    
C6    C7    A    
C70   C71   S    
C73   H37   S    
C71   H33   S    
C13   C14   A    
C25   H6    S    
C2    C60   S    
C47   O21   S    
C61   H21   S    
C19   C24   A    
C40   C47   A    
C38   C39   A    
C36   C66   S    
C80   H54   S    
O2    C1    A    
C28   C29   A    
O16   V4    S    
C22   C23   A    
C32   C33   A    
C58   C61   A    
O21   C69   S    
C53   H19   S    
C4    C14   S    
C5    C6    A    
C42   H14   S    
C63   C64   A    
C54   C55   A    
C3    C20   S    
C21   H5    S    
C37   H12   S    
C78   H49   S    
O3    C4    A    
C5    H26   S    
C24   C31   A    
C57   C65   S    
C25   C26   A    
C17   H24   S    
C16   H3    S    
C52   C53   A    
O6    V2    S    
C9    C11   A    
C75   H42   S    
C36   C37   A    
C27   C28   A    
C72   H34   S    
O2    V1    S    
C76   C77   S    
C69   H27   S    
C8    H2    S    
C13   C18   A    
O15   V3    S    
C33   C34   A    
C71   H32   S    
C8    C9    A    
O1    C2    A    
C72   H35   S    
O5    V1    S    
O8    C3    A    
V4    O20   S    
C73   H36   S    
C79   C80   S    
C11   C67   S    
C74   H38   S    
O11   C66   A    
C5    C10   A    
O12   C65   A    
O17   V4    S    
C42   C43   A    
O9    V2    S    
O22   C72   S    
H18   C63   S    
C23   C28   A    
O3    V1    S    
V1    O10   S    
O23   C75   S    
C80   H53   S    
C51   O22   S    
O14   V3    S    
C41   H13   S    
C64   H23   S    
C62   C63   A    
C27   C32   A    
O7    V2    S    
C39   C40   A    
V3    O20   S    
C41   C42   A    
C30   C31   A    
C49   C50   A    
C58   C59   A    
C30   H9    S    
C21   C22   A    
C43   C44   A    
C10   C14   A    
C31   H10   S    
C15   C16   A    
O13   C68   A    
C75   H41   S    
O13   V3    S    
C65   O16   A    
C26   H25   S    
C59   C60   A    
C9    C10   A    
C77   H45   S    
C1    C49   S    
C43   C48   A    
C33   C68   S    
O24   C78   S    
