data_mof_unit_33676.cif
_audit_creation_date              2013-03-05T15:46:34-0500
_audit_creation_method            fapswitch 2.2
_symmetry_space_group_name_H-M    P1
_symmetry_Int_Tables_number       1
_space_group_crystal_system       triclinic
_cell_length_a                    17.352797
_cell_length_b                    24.502312
_cell_length_c                    14.930458
_cell_angle_alpha                 89.836947
_cell_angle_beta                  125.851674
_cell_angle_gamma                 90.601351
_cell_volume                      5145.10720692

loop_
_atom_site_label
_atom_site_type_symbol
_atom_site_description
_atom_site_fract_x
_atom_site_fract_y
_atom_site_fract_z
_atom_type_partial_charge
C1    C     C_R   0.308401 0.378272 0.905758 -0.126825
C2    C     C_R   0.654979 0.351002 0.092294 -0.148572
C3    C     C_R   0.808401 0.878272 0.905758 -0.126788
C4    C     C_R   0.155005 0.851016 0.092301 -0.148774
H1    H     H_    0.249623 0.375961 0.819653 0.099475
H2    H     H_    0.698882 0.337061 0.176933 0.099935
H3    H     H_    0.749624 0.875962 0.819652 0.099454
H4    H     H_    0.198917 0.837075 0.176939 0.099919
N1    N     N_R   0.394180 0.396910 0.943210 -0.043141
N2    N     N_R   0.605820 0.396910 0.056790 -0.040175
N3    N     N_R   0.894180 0.896910 0.943210 -0.043123
N4    N     N_R   0.105820 0.896910 0.056790 -0.040162
C5    C     C_R   0.404788 0.625955 0.092884 -0.165370
C6    C     C_R   0.554873 0.651399 0.907434 -0.186897
C7    C     C_R   0.904744 0.125904 0.092876 -0.165406
C8    C     C_R   0.054872 0.151399 0.907434 -0.186735
H5    H     H_    0.434711 0.635084 0.178250 0.137443
H6    H     H_    0.505774 0.664520 0.822751 0.143677
H7    H     H_    0.934640 0.135004 0.178246 0.137457
H8    H     H_    0.005774 0.164520 0.822749 0.143767
N5    N     N_R   0.450950 0.603070 0.056740 -0.052308
N6    N     N_R   0.549050 0.603070 0.943260 -0.062735
N7    N     N_R   0.950950 0.103070 0.056740 -0.052286
N8    N     N_R   0.049050 0.103070 0.943260 -0.062749
C9    C     C_R   0.548466 0.454705 0.303892 -0.129924
C10   C     C_R   0.518761 0.454660 0.750455 -0.117514
C11   C     C_R   0.048470 0.954704 0.303893 -0.129932
C12   C     C_R   0.018757 0.954659 0.750451 -0.117460
H9    H     H_    0.566151 0.412993 0.331718 0.094484
H10   H     H_    0.527750 0.412568 0.738382 0.099119
H11   H     H_    0.066154 0.912991 0.331716 0.094473
H12   H     H_    0.027744 0.912567 0.738374 0.099160
N9    N     N_R   0.525650 0.471570 0.206150 -0.046233
N10   N     N_R   0.474350 0.471570 0.793850 -0.044244
N11   N     N_R   0.025650 0.971570 0.206150 -0.046237
N12   N     N_R   0.974350 0.971570 0.793850 -0.044250
C13   C     C_R   0.247425 0.544827 0.694074 -0.114814
C14   C     C_R   0.767875 0.545794 0.244651 -0.099488
C15   C     C_R   0.747406 0.044840 0.694106 -0.115417
C16   C     C_R   0.267872 0.045798 0.244658 -0.099536
H13   H     H_    0.243686 0.584944 0.662600 0.164790
H14   H     H_    0.787390 0.587440 0.245045 0.149941
H15   H     H_    0.743638 0.084972 0.662672 0.164793
H16   H     H_    0.287384 0.087446 0.245057 0.149945
N13   N     N_R   0.319480 0.528420 0.793810 -0.053710
N14   N     N_R   0.680520 0.528420 0.206190 -0.032700
N15   N     N_R   0.819480 0.028420 0.793810 -0.053707
N16   N     N_R   0.180520 0.028420 0.206190 -0.032698
C17   C     C_R   0.548502 0.545579 0.303553 -0.101380
C18   C     C_R   0.519425 0.546165 0.751290 -0.116482
C19   C     C_R   0.048512 0.045577 0.303560 -0.101381
C20   C     C_R   0.019425 0.046164 0.751289 -0.116483
H17   H     H_    0.566526 0.587483 0.330988 0.123084
H18   H     H_    0.529853 0.588590 0.741332 0.094988
H19   H     H_    0.066543 0.087481 0.330999 0.123088
H20   H     H_    0.029855 0.088588 0.741331 0.094980
N17   N     N_R   0.525640 0.528390 0.206120 -0.035859
N18   N     N_R   0.474360 0.528390 0.793880 -0.040204
N19   N     N_R   0.025640 0.028390 0.206120 -0.035859
N20   N     N_R   0.974360 0.028390 0.793880 -0.040176
C21   C     C_R   0.244652 0.454529 0.694346 -0.128112
C22   C     C_R   0.769228 0.454713 0.251312 -0.114470
C23   C     C_R   0.744645 0.954537 0.694346 -0.128155
C24   C     C_R   0.269233 0.954718 0.251325 -0.114543
H21   H     H_    0.234574 0.412932 0.665280 0.091216
H22   H     H_    0.791060 0.412727 0.264618 0.096463
H23   H     H_    0.734561 0.912942 0.665265 0.091221
H24   H     H_    0.291075 0.912733 0.264645 0.096485
N21   N     N_R   0.319490 0.471590 0.793840 -0.046242
N22   N     N_R   0.680510 0.471590 0.206160 -0.047511
N23   N     N_R   0.819490 0.971590 0.793840 -0.046234
N24   N     N_R   0.180510 0.971590 0.206160 -0.047500
C25   C     C_R   0.313524 0.627962 0.907927 0.346884
C26   C     C_R   0.647396 0.652635 0.090190 0.319902
C27   C     C_R   0.813523 0.127979 0.907937 0.347123
C28   C     C_R   0.147392 0.152636 0.090189 0.319854
N25   N     N_R   0.394130 0.603080 0.943110 -0.090330
N26   N     N_R   0.605870 0.603080 0.056890 -0.089117
N27   N     N_R   0.894130 0.103080 0.943110 -0.090292
N28   N     N_R   0.105870 0.103080 0.056890 -0.089125
C29   C     C_R   0.400340 0.375352 0.090231 -0.117881
C30   C     C_R   0.562973 0.351004 0.907820 -0.125452
C31   C     C_R   0.900340 0.875352 0.090231 -0.117856
C32   C     C_R   0.062979 0.851019 0.907818 -0.125479
H25   H     H_    0.427638 0.367767 0.175182 0.112488
H26   H     H_    0.522299 0.336891 0.823105 0.108912
H27   H     H_    0.927638 0.867767 0.175182 0.112487
H28   H     H_    0.022299 0.836903 0.823104 0.108834
N29   N     N_R   0.450990 0.396900 0.056840 -0.045489
N30   N     N_R   0.549010 0.396900 0.943160 -0.042963
N31   N     N_R   0.950990 0.896900 0.056840 -0.045489
N32   N     N_R   0.049010 0.896900 0.943160 -0.042956
C33   C     C_R   0.309170 0.363965 0.995750 0.055208
C34   C     C_R   0.629780 0.322694 0.000183 0.057625
C35   C     C_R   0.809169 0.863965 0.995749 0.055183
C36   C     C_R   0.129852 0.822736 0.000184 0.057890
C37   C     C_R   0.317927 0.641797 0.000661 -0.128616
C38   C     C_R   0.616120 0.684137 0.997379 -0.088728
C39   C     C_R   0.817852 0.141725 0.000665 -0.129204
C40   C     C_R   0.116116 0.184137 0.997377 -0.088790
C41   C     C_R   0.564214 0.500273 0.367424 0.029498
C42   C     C_R   0.549810 0.500659 0.724877 0.037870
C43   C     C_R   0.064225 0.000271 0.367430 0.029513
C44   C     C_R   0.049809 0.000658 0.724874 0.037854
C45   C     C_R   0.197986 0.499838 0.630126 0.043685
C46   C     C_R   0.825648 0.500732 0.275016 0.028543
C47   C     C_R   0.697971 0.999853 0.630147 0.043915
C48   C     C_R   0.325647 0.000740 0.275030 0.028533
Ni1   Ni    Ni4+2 0.434860 0.434850 0.869700 0.208943
Ni2   Ni    Ni4+2 0.565140 0.434850 0.130300 0.210498
Ni3   Ni    Ni4+2 0.934860 0.934850 0.869700 0.208979
Ni4   Ni    Ni4+2 0.065140 0.934850 0.130300 0.210462
Ni5   Ni    Ni4+2 0.565130 0.565140 0.130240 0.285428
Ni6   Ni    Ni4+2 0.434870 0.565140 0.869760 0.246342
Ni7   Ni    Ni4+2 0.065130 0.065140 0.130240 0.285399
Ni8   Ni    Ni4+2 0.934870 0.065140 0.869760 0.246389
C49   C     C_R   0.074012 0.550764 0.462915 0.102647
C50   C     C_R   0.979925 0.551284 0.372777 0.116707
C51   C     C_R   0.573990 0.050789 0.462971 0.102890
C52   C     C_R   0.479907 0.051307 0.372831 0.116644
C53   C     C_R   0.118894 0.501333 0.512686 0.052405
C54   C     C_R   0.928449 0.502254 0.329792 0.056891
C55   C     C_R   0.618880 0.001356 0.512715 0.052378
C56   C     C_R   0.428446 0.002273 0.329818 0.056831
C57   C     C_R   0.075627 0.452947 0.451971 -0.184206
C58   C     C_R   0.980320 0.453481 0.359819 -0.185044
C59   C     C_R   0.575631 0.952974 0.451976 -0.184265
C60   C     C_R   0.480327 0.953507 0.359822 -0.185153
H29   H     H_    0.110156 0.413953 0.482445 0.127399
H30   H     H_    0.945250 0.414848 0.322656 0.127600
H31   H     H_    0.610171 0.913982 0.482430 0.127418
H32   H     H_    0.445266 0.914874 0.322638 0.127611
C61   C     C_3   0.960897 0.601927 0.412677 -0.451992
C62   C     C_3   0.063519 0.601263 0.510887 -0.428858
C63   C     C_3   0.460863 0.101935 0.412754 -0.451867
C64   C     C_3   0.563487 0.101277 0.510965 -0.429186
H33   H     H_    0.943892 0.637283 0.357372 0.230797
H34   H     H_    0.071756 0.593725 0.589523 0.234738
H35   H     H_    0.443846 0.137299 0.357465 0.230822
H36   H     H_    0.571736 0.093734 0.589608 0.234425
H37   H     H_    0.911860 0.595224 0.436821 0.220578
H38   H     H_    0.105438 0.636287 0.512213 0.221036
H39   H     H_    0.411826 0.095212 0.436893 0.220520
H40   H     H_    0.605392 0.136310 0.512292 0.221062
C65   C     C_R   0.289210 0.737839 0.976412 -0.139529
C66   C     C_R   0.676270 0.778681 0.073791 -0.144174
C67   C     C_R   0.790340 0.237899 0.978290 -0.140890
C68   C     C_R   0.176261 0.278683 0.073783 -0.144150
H41   H     H_    0.339739 0.741608 0.956074 0.140788
H42   H     H_    0.670592 0.772373 0.141397 0.169979
H43   H     H_    0.841748 0.241752 0.959295 0.140143
H44   H     H_    0.170577 0.272377 0.141385 0.169962
C69   C     C_R   0.742716 0.282960 0.975038 0.030797
C70   C     C_R   0.226038 0.324175 0.074853 0.026409
C71   C     C_R   0.241494 0.782863 0.973056 0.030641
C72   C     C_R   0.726044 0.824174 0.074859 0.026413
C73   C     C_R   0.677342 0.276419 0.000714 0.071761
C74   C     C_R   0.234145 0.331207 0.986856 0.074573
C75   C     C_R   0.177406 0.776474 0.000689 0.071863
C76   C     C_R   0.734143 0.831209 0.986857 0.074557
C77   C     C_R   0.660520 0.226177 0.030980 -0.193564
C78   C     C_R   0.178300 0.298833 0.891643 -0.185093
C79   C     C_R   0.162011 0.726431 0.033035 -0.193730
C80   C     C_R   0.678292 0.798838 0.891641 -0.185072
H45   H     H_    0.610657 0.222242 0.052088 0.134708
H46   H     H_    0.178969 0.303373 0.820157 0.120242
H47   H     H_    0.113212 0.722634 0.055733 0.134698
H48   H     H_    0.678952 0.803382 0.820150 0.120258
C81   C     C_R   0.209089 0.681133 0.034286 -0.148146
C82   C     C_R   0.632149 0.753609 0.892698 -0.153931
C83   C     C_R   0.707611 0.180869 0.032265 -0.146668
C84   C     C_R   0.132154 0.253605 0.892698 -0.153881
H49   H     H_    0.197026 0.641641 0.057143 0.128639
H50   H     H_    0.600760 0.726207 0.822654 0.116591
H51   H     H_    0.694493 0.141239 0.053552 0.128439
H52   H     H_    0.100771 0.226201 0.822658 0.116570
C85   C     C_R   0.270802 0.687380 0.004127 0.181626
C86   C     C_R   0.638683 0.740351 0.987863 0.140639
C87   C     C_R   0.770720 0.187295 0.004178 0.182020
C88   C     C_R   0.138680 0.240351 0.987859 0.140692
C89   C     C_R   0.603808 0.550382 0.626084 -0.163026
C90   C     C_R   0.605374 0.550261 0.534516 -0.159221
C91   C     C_R   0.103820 0.050377 0.626091 -0.163112
C92   C     C_R   0.105391 0.050257 0.534527 -0.159257
H53   H     H_    0.601183 0.589342 0.657881 0.110658
H54   H     H_    0.603981 0.589192 0.499503 0.117037
H55   H     H_    0.101199 0.089337 0.657892 0.110656
H56   H     H_    0.104006 0.089187 0.499519 0.117035
C93   C     C_R   0.596962 0.500679 0.482592 0.136232
C94   C     C_R   0.592889 0.500957 0.665134 0.135066
C95   C     C_R   0.096973 0.000675 0.482598 0.136250
C96   C     C_R   0.092889 0.000953 0.665133 0.135091
C97   C     C_R   0.606618 0.451436 0.536156 -0.153971
C98   C     C_R   0.605338 0.451611 0.627968 -0.151464
C99   C     C_R   0.106617 0.951431 0.536154 -0.154098
C100  C     C_R   0.105331 0.951607 0.627961 -0.151309
H57   H     H_    0.606212 0.412420 0.502347 0.118950
H58   H     H_    0.604255 0.412724 0.661553 0.122696
H59   H     H_    0.106206 0.912416 0.502342 0.118945
H60   H     H_    0.104235 0.912719 0.661536 0.122836
C101  C     C_1   0.762562 0.335239 0.946725 0.059880
N33   N     N_1   0.778267 0.377056 0.924016 -0.079871
C102  C     C_1   0.269235 0.361701 0.166943 0.057326
N34   N     N_1   0.303775 0.391787 0.240795 -0.077737
C103  C     C_1   0.260016 0.834957 0.942710 0.059948
N35   N     N_1   0.274657 0.876623 0.918359 -0.080341
C104  C     C_1   0.769245 0.861698 0.166953 0.057242
N36   N     N_1   0.803788 0.891783 0.240808 -0.077749
N37   N     N_R   0.253579 0.653055 0.801840 0.209326
O1    O     O_R   0.165712 0.663983 0.761606 -0.419210
O2    O     O_R   0.291133 0.673726 0.755074 -0.454733
N38   N     N_R   0.694251 0.672339 0.200848 0.205099
O3    O     O_R   0.776595 0.696670 0.249934 -0.448652
O4    O     O_R   0.665994 0.655336 0.259907 -0.439844
N39   N     N_R   0.753737 0.153215 0.801977 0.209672
O5    O     O_R   0.665938 0.164318 0.761780 -0.418954
O6    O     O_R   0.791395 0.173779 0.755248 -0.454259
N40   N     N_R   0.194237 0.172342 0.200844 0.205095
O7    O     O_R   0.276579 0.196678 0.249935 -0.448686
O8    O     O_R   0.165975 0.155339 0.259897 -0.439882

loop_
_geom_bond_atom_site_label_1
_geom_bond_atom_site_label_2
_geom_bond_distance
_ccdc_geom_bond_type
C31   H27   1.079065 S    
C102  N34   1.157456 T    
N24   Ni4   1.847451 S    
N3    N31   1.375136 A    
C61   H33   1.111422 S    
C30   C34   1.365869 A    
C73   C77   1.395956 A    
C101  N33   1.157351 T    
C6    H6    1.081418 S    
C80   C82   1.365865 A    
C47   C55   1.463236 S    
C100  H60   1.080567 S    
N5    N25   1.375134 A    
C91   C96   1.401053 A    
C70   C102  1.443348 S    
N40   O7    1.300859 A    
C43   C95   1.461206 S    
C63   C64   1.504445 S    
C26   C38   1.390062 A    
C98   H58   1.080571 S    
C103  N35   1.157436 T    
C25   C37   1.384177 A    
C84   H52   1.081761 S    
C66   C86   1.402573 A    
C18   H18   1.078016 S    
C27   N27   1.326705 A    
C82   C86   1.395222 A    
C13   H13   1.074337 S    
C1    H1    1.076800 S    
C96   C100  1.402218 A    
C25   N37   1.430651 S    
N16   N24   1.392463 A    
C7    H7    1.080784 S    
C41   C93   1.461203 S    
N39   O6    1.301064 A    
C69   C73   1.401716 A    
C32   C36   1.365851 A    
C97   H57   1.080349 S    
C89   H53   1.080544 S    
C58   H30   1.081490 S    
C19   C43   1.382684 A    
C44   C96   1.461317 S    
C40   C88   1.457183 S    
C17   N17   1.332272 A    
C22   N22   1.338505 A    
N11   N19   1.392222 A    
C90   H54   1.080094 S    
C27   N39   1.430677 S    
C4    H4    1.081325 S    
C72   C104  1.443348 S    
C49   C53   1.400872 A    
N22   Ni2   1.847451 S    
N37   O2    1.301075 A    
C53   C57   1.407570 A    
C4    C36   1.363126 A    
C20   H20   1.078016 S    
N21   Ni1   1.864703 S    
N13   Ni6   1.847437 S    
N8    N28   1.375135 A    
N10   Ni1   1.857925 S    
C28   N40   1.430592 S    
N23   Ni3   1.864703 S    
C28   N28   1.343940 A    
C6    C38   1.375782 A    
C78   C84   1.365860 A    
C90   C93   1.402614 A    
C38   C86   1.457188 S    
C20   N20   1.333923 A    
C16   H16   1.070719 S    
C99   H59   1.080348 S    
C93   C97   1.401877 A    
C64   H36   1.111665 S    
C66   C72   1.397331 A    
C16   C48   1.384732 A    
C29   N29   1.342330 A    
C54   C58   1.409301 A    
C84   C88   1.395221 A    
C7    N7    1.328492 A    
C8    N8    1.325064 A    
C66   H42   1.080632 S    
N27   Ni8   1.868105 S    
C9    H9    1.079907 S    
C83   C87   1.390644 A    
C2    H2    1.081332 S    
C68   C70   1.397332 A    
C48   C56   1.463607 S    
C79   C81   1.378650 A    
C49   C62   1.496568 S    
C60   H32   1.081493 S    
C12   H12   1.076056 S    
C81   C85   1.390683 A    
C10   N10   1.333597 A    
C29   H25   1.079065 S    
C24   C48   1.388696 A    
C94   C98   1.402214 A    
C69   C101  1.447868 S    
N1    Ni1   1.858777 S    
N15   Ni8   1.847437 S    
C23   H23   1.080557 S    
N14   N22   1.392463 A    
C15   C47   1.374553 A    
C22   H22   1.077127 S    
N13   N21   1.392465 A    
C104  N36   1.157458 T    
C18   N18   1.333915 A    
C32   H28   1.081300 S    
C2    C34   1.363192 A    
C1    N1    1.322523 A    
N6    N26   1.375135 A    
N5    Ni5   1.865377 S    
C10   C42   1.390068 A    
N2    N30   1.375134 A    
N1    N29   1.375136 A    
C78   H46   1.079585 S    
C8    C40   1.375775 A    
C15   H15   1.074360 S    
C99   C100  1.383930 A    
C57   H29   1.081232 S    
C13   C45   1.374556 A    
C89   C90   1.383252 A    
C71   C75   1.401757 A    
N29   Ni2   1.847570 S    
C92   H56   1.080096 S    
C26   N38   1.430595 S    
C77   C83   1.378788 A    
N31   Ni4   1.847570 S    
C14   C46   1.384787 A    
C79   H47   1.083930 S    
N39   O5    1.300825 A    
C50   C54   1.401213 A    
C39   C87   1.410019 S    
C91   H55   1.080549 S    
C62   H38   1.111804 S    
C29   C33   1.396228 A    
C89   C94   1.401053 A    
C12   C44   1.390056 A    
C37   C85   1.409945 S    
N28   Ni7   1.857588 S    
C72   C76   1.410793 A    
C8    H8    1.081417 S    
C31   C35   1.396230 A    
C46   C54   1.463665 S    
N12   Ni3   1.857925 S    
C27   C39   1.384246 A    
N37   O1    1.300820 A    
C92   C95   1.402615 A    
C45   C53   1.463306 S    
C76   C80   1.402066 A    
N10   N18   1.392221 A    
N15   N23   1.392465 A    
C50   C61   1.498948 S    
N16   Ni7   1.864684 S    
C71   C103  1.447937 S    
C80   H48   1.079584 S    
C1    C33   1.380142 A    
C23   N23   1.341743 A    
N8    Ni8   1.847684 S    
C34   C73   1.406683 S    
C11   H11   1.079908 S    
C77   H45   1.083888 S    
C57   C58   1.401187 A    
C75   C79   1.396050 A    
N20   Ni8   1.868711 S    
N26   Ni5   1.857588 S    
C4    N4    1.326948 A    
C13   N13   1.329879 A    
C35   C76   1.460471 S    
C2    N2    1.327047 A    
C24   H24   1.077124 S    
C55   C59   1.407566 A    
N4    Ni4   1.869283 S    
C21   C45   1.382356 A    
C15   N15   1.329802 A    
C82   H50   1.081762 S    
C21   N21   1.341755 A    
C16   N16   1.332991 A    
C20   C44   1.391103 A    
N9    N17   1.392222 A    
N14   Ni5   1.864684 S    
C61   H37   1.112234 S    
N4    N32   1.375134 A    
C68   H44   1.080634 S    
N38   O4    1.300622 A    
N12   N20   1.392221 A    
N19   Ni7   1.858648 S    
C62   H34   1.111636 S    
N17   Ni5   1.858648 S    
C51   C52   1.379633 A    
N32   Ni3   1.865269 S    
C18   C42   1.391096 A    
C59   C60   1.401162 A    
C22   C46   1.388679 A    
C51   C55   1.400861 A    
C28   C40   1.390062 A    
C31   N31   1.342329 A    
C63   H35   1.111420 S    
C3    H3    1.076802 S    
C51   C64   1.496597 S    
C30   N30   1.326871 A    
C56   C60   1.409279 A    
N40   O8    1.300623 A    
C52   C63   1.498966 S    
C11   N11   1.334305 A    
C6    N6    1.325066 A    
C59   H31   1.081232 S    
C64   H40   1.111807 S    
C30   H26   1.081293 S    
C49   C50   1.379666 A    
C5    N5    1.328467 A    
N3    Ni3   1.858777 S    
C17   C41   1.382683 A    
C9    C41   1.384571 A    
C91   C92   1.383256 A    
C61   C62   1.504433 S    
C83   H51   1.083555 S    
C17   H17   1.079535 S    
C67   H43   1.086082 S    
C11   C43   1.384564 A    
C63   H39   1.112235 S    
C42   C94   1.461312 S    
N2    Ni2   1.869283 S    
C19   H19   1.079536 S    
C24   N24   1.338517 A    
C21   H21   1.080559 S    
C5    C37   1.377188 A    
C33   C74   1.460465 S    
C67   C69   1.369756 A    
C95   C99   1.401878 A    
C14   N14   1.333035 A    
C3    N3    1.322524 A    
C52   C56   1.401220 A    
C74   C78   1.402066 A    
N7    Ni7   1.865377 S    
C5    H5    1.080785 S    
C65   C71   1.369451 A    
C14   H14   1.070715 S    
C67   C87   1.394709 A    
N6    Ni6   1.847684 S    
C36   C75   1.406491 S    
C19   N19   1.332285 A    
N38   O3    1.300859 A    
C12   N12   1.333597 A    
C25   N25   1.326473 A    
C68   C88   1.402574 A    
C97   C98   1.383933 A    
C7    C39   1.377252 A    
C65   C85   1.394798 A    
N18   Ni6   1.868711 S    
C70   C74   1.410792 A    
C81   H49   1.083589 S    
C3    C35   1.380146 A    
N9    Ni2   1.867986 S    
C32   N32   1.326625 A    
N30   Ni1   1.865269 S    
N7    N27   1.375134 A    
C23   C47   1.382400 A    
C65   H41   1.086079 S    
N11   Ni4   1.867986 S    
N25   Ni6   1.868105 S    
C9    N9    1.334306 A    
C10   H10   1.076061 S    
C26   N26   1.343936 A    
