data_mof_unit_18137.cif
_audit_creation_date              2012-12-10T20:42:36-0500
_audit_creation_method            fapswitch 2.2
_symmetry_space_group_name_H-M    P1
_symmetry_Int_Tables_number       1
_space_group_crystal_system       triclinic
_cell_length_a                    8.890725
_cell_length_b                    10.685125
_cell_length_c                    10.033317
_cell_angle_alpha                 89.15027
_cell_angle_beta                  88.905896
_cell_angle_gamma                 92.171232
_cell_volume                      952.176794386

loop_
_atom_site_label
_atom_site_type_symbol
_atom_type_description
_atom_site_fract_x
_atom_site_fract_y
_atom_site_fract_z
_atom_type_partial_charge
C1    C     C_R   0.501478 0.260599 0.500807 0.856366
C2    C     C_R   0.574752 0.938711 0.395425 -0.172844
C3    C     C_R   0.487625 0.870537 0.491286 -0.076022
C4    C     C_R   0.387365 0.931074 0.573722 0.086081
C5    C     C_3   0.349816 0.912114 0.717941 -0.451516
C6    C     C_3   0.374993 0.052869 0.731485 -0.189465
C7    C     C_R   0.372788 0.465112 0.073370 0.147594
C8    C     C_R   0.623895 0.539625 0.066332 0.108413
C9    C     C_R   0.612590 0.559324 0.925674 0.144671
C10   C     C_R   0.373725 0.464627 0.931937 0.203466
C11   C     C_3   0.286280 0.343927 0.924712 -0.375578
C12   C     C_R   0.219268 0.499353 0.500890 0.932045
C13   C     C_3   0.287890 0.339309 0.078148 -0.185581
C14   C     C_R   0.497593 0.739035 0.498464 0.846098
C15   C     C_R   0.780677 0.499602 0.499383 0.898868
C16   C     C_1   0.065474 0.498859 0.501742 -0.107254
C17   C     C_1   0.934395 0.498799 0.499623 -0.178969
C18   C     C_R   0.399475 0.058688 0.582973 0.023279
C19   C     C_R   0.499894 0.127962 0.500039 -0.105103
C20   C     C_R   0.579705 0.068197 0.399088 -0.131554
H1    H     H_    0.650932 0.121052 0.327812 0.148130
H2    H     H_    0.354229 0.273551 0.875093 0.144779
H3    H     H_    0.645265 0.892408 0.323653 0.149236
H4    H     H_    0.230270 0.880292 0.734162 0.194041
H5    H     H_    0.431075 0.854227 0.770162 0.234414
H6    H     H_    0.272104 0.100098 0.764955 0.143554
N1    N     N_R   0.499010 0.499140 0.142800 -0.167690
N2    N     N_R   0.499010 0.499180 0.857150 -0.158826
O1    O     O_R   0.500020 0.316790 0.614690 -0.643383
O2    O     O_R   0.500000 0.316760 0.385350 -0.619056
O3    O     O_R   0.285350 0.500020 0.614650 -0.581854
O4    O     O_R   0.285340 0.499980 0.385310 -0.565993
O5    O     O_R   0.500000 0.683240 0.614650 -0.639495
O6    O     O_R   0.499980 0.683210 0.385310 -0.606580
O7    O     O_R   0.714660 0.500020 0.614690 -0.630404
O8    O     O_R   0.714650 0.499980 0.385350 -0.622957
Zn1   Zn    Zn3+2 0.500010 0.500020 0.653130 0.943879
Zn2   Zn    Zn3+2 0.499990 0.499980 0.346870 0.964197
C21   C     C_2   0.134046 0.341602 0.145216 0.497829
H7    H     H_    0.060854 0.257940 0.146650 0.055169
O9    O     O_2   0.089277 0.436706 0.195395 -0.597363
C22   C     C_2   0.381687 0.234759 0.130033 0.479558
H8    H     H_    0.502774 0.238716 0.112950 0.086825
O10   O     O_2   0.323398 0.143862 0.188762 -0.561443
C23   C     C_2   0.514852 0.084718 0.808825 0.386977
H9    H     H_    0.612430 0.131277 0.760763 0.083815
O11   O     O_2   0.519377 0.057909 0.927225 -0.585641
C24   C     C_3   0.781839 0.528213 0.117156 -0.279570
C25   C     C_3   0.846230 0.648138 0.179939 -0.691774
H10   H     H_    0.912353 0.705036 0.104750 0.226536
H11   H     H_    0.755974 0.704279 0.224134 0.242153
H12   H     H_    0.926573 0.625001 0.258622 0.269207
H13   H     H_    0.786692 0.443862 0.181501 0.222624
H14   H     H_    0.859606 0.502522 0.034985 0.204020
C26   C     C_3   0.716116 0.658996 0.858691 -0.360143
C27   C     C_3   0.683845 0.790117 0.909744 -0.819806
H15   H     H_    0.755933 0.816688 0.993750 0.256378
H16   H     H_    0.707038 0.860944 0.829025 0.244195
H17   H     H_    0.565032 0.795636 0.944403 0.282239
H18   H     H_    0.836652 0.639442 0.870702 0.219051
H19   H     H_    0.700095 0.663798 0.751795 0.265366
C28   C     C_2   0.133443 0.355429 0.862869 0.455472
H20   H     H_    0.066908 0.270994 0.842285 0.030867
O12   O     O_2   0.082104 0.457452 0.838064 -0.571530

loop_
_geom_bond_atom_site_label_1
_geom_bond_atom_site_label_2
_ccdc_geom_bond_type
C14   O6    A    
C7    C10   A    
C26   C27   S    
C8    C24   S    
C28   H20   S    
C9    C26   S    
C6    C23   S    
O4    Zn2   S    
C11   H2    S    
C19   C20   A    
C27   H17   S    
C7    C13   S    
C24   C25   S    
C11   C28   S    
C4    C18   A    
C25   H12   S    
C14   O5    A    
C1    O1    A    
C2    C3    A    
C21   O9    D    
O6    Zn2   S    
C26   H18   S    
C12   O4    A    
C24   H14   S    
C11   C13   S    
C6    H6    S    
C3    C14   S    
C22   O10   D    
N2    Zn1   S    
C5    H5    S    
C5    C6    S    
C26   H19   S    
O8    Zn2   S    
C13   C22   S    
O7    Zn1   S    
C27   H16   S    
C18   C19   A    
C23   O11   D    
C12   O3    A    
C24   H13   S    
C6    C18   S    
C13   C21   S    
O1    Zn1   S    
C10   C11   S    
N1    Zn2   S    
C10   N2    A    
C3    C4    A    
C21   H7    S    
C16   C17   T    
O3    Zn1   S    
C15   O8    A    
C4    C5    S    
C7    N1    A    
C20   H1    S    
O2    Zn2   S    
C15   C17   S    
C25   H10   S    
C22   H8    S    
C15   O7    A    
C2    H3    S    
C27   H15   S    
C8    N1    A    
C5    H4    S    
C28   O12   D    
C23   H9    S    
C1    C19   S    
C2    C20   A    
O5    Zn1   S    
C12   C16   S    
C9    N2    A    
C8    C9    A    
C25   H11   S    
C1    O2    A    
