data_mof_unit_6773.cif
_audit_creation_date              2012-12-11T16:08:56-0500
_audit_creation_method            fapswitch 2.2
_symmetry_space_group_name_H-M    P1
_symmetry_Int_Tables_number       1
_space_group_crystal_system       triclinic
_cell_length_a                    12.963934
_cell_length_b                    13.290156
_cell_length_c                    27.644567
_cell_angle_alpha                 94.753583
_cell_angle_beta                  90.358041
_cell_angle_gamma                 119.242533
_cell_volume                      4135.68393272

loop_
_atom_site_label
_atom_site_type_symbol
_atom_type_description
_atom_site_fract_x
_atom_site_fract_y
_atom_site_fract_z
_atom_type_partial_charge
C1    C     C_R   0.598927 0.931278 0.423706 0.570351
C2    C     C_R   0.141961 0.735383 0.302416 -0.009324
C3    C     C_R   0.269664 0.505497 0.650839 -0.105708
C4    C     C_R   0.344351 0.623290 0.646809 -0.096588
C5    C     C_R   0.321793 0.706017 0.671629 -0.069234
C6    C     C_R   0.128930 0.719321 0.201189 -0.044916
C7    C     C_R   0.600745 0.221580 0.440422 0.537540
C8    C     C_R   0.096885 0.620214 0.224990 -0.132548
C9    C     C_R   0.099256 0.625976 0.275507 0.253043
C10   C     C_R   0.116867 0.709604 0.151274 -0.114365
C11   C     C_R   0.127335 0.802733 0.126848 0.037950
C12   C     C_R   0.230182 0.955344 0.354526 -0.128823
C13   C     C_R   0.212891 0.944873 0.304325 0.020491
C14   C     C_R   0.172461 0.835566 0.278044 0.027313
C15   C     C_R   0.745685 0.430633 0.237667 -0.130224
C16   C     C_R   0.241697 0.042984 0.279832 -0.116492
C17   C     C_R   0.230578 0.033274 0.229218 -0.026674
C18   C     C_R   0.191802 0.925590 0.202603 0.119023
C19   C     C_R   0.269518 0.876948 0.425697 0.535103
C20   C     C_R   0.164672 0.826982 0.227317 0.069291
C21   C     C_R   0.172905 0.912727 0.151963 0.007113
C22   C     C_R   0.211927 0.858930 0.378099 -0.021700
C23   C     C_R   0.687838 0.012030 0.347403 -0.133962
C24   C     C_R   0.696439 0.000275 0.297309 -0.008367
C25   C     C_R   0.738401 0.951695 0.201607 0.020965
C26   C     C_R   0.733838 0.415582 0.287052 -0.046436
C27   C     C_R   0.818438 0.059620 0.227964 0.037496
C28   C     C_R   0.795475 0.082493 0.275775 -0.115005
C29   C     C_R   0.772491 0.903265 0.162196 0.210805
C30   C     C_R   0.684958 0.812957 0.129603 -0.029795
C31   C     C_R   0.627253 0.898955 0.565045 0.557067
C32   C     C_R   0.501414 0.831407 0.341310 -0.135153
C33   C     C_R   0.507611 0.819933 0.290534 0.017755
C34   C     C_R   0.608854 0.901712 0.268930 0.084091
C35   C     C_R   0.418986 0.724509 0.261334 -0.116656
C36   C     C_R   0.435084 0.705478 0.211953 -0.098522
C37   C     C_R   0.662843 0.305232 0.301764 -0.001438
C38   C     C_R   0.542027 0.779322 0.191601 0.027378
C39   C     C_R   0.627691 0.879984 0.220024 0.056981
C40   C     C_R   0.568316 0.751836 0.144528 -0.185377
C41   C     C_R   0.595772 0.923758 0.370105 -0.017360
C42   C     C_R   0.739316 0.292334 0.651730 -0.133621
C43   C     C_R   0.603859 0.227999 0.578146 0.550301
C44   C     C_R   0.752166 0.314663 0.702252 0.009926
C45   C     C_R   0.764888 0.342554 0.804296 0.012372
C46   C     C_R   0.849638 0.325311 0.779297 -0.143820
C47   C     C_R   0.842168 0.309594 0.728537 -0.147185
C48   C     C_R   0.684894 0.335954 0.202495 0.029397
C49   C     C_R   0.772792 0.361804 0.855044 -0.136468
C50   C     C_R   0.687306 0.379866 0.879042 -0.002773
C51   C     C_R   0.569741 0.324119 0.650927 -0.131724
C52   C     C_R   0.578551 0.342214 0.701195 0.010047
C53   C     C_R   0.668567 0.335126 0.727118 0.063302
C54   C     C_R   0.493546 0.359074 0.725935 -0.140579
C55   C     C_R   0.271892 0.879356 0.563396 0.550534
C56   C     C_R   0.495395 0.365328 0.776332 -0.142121
C57   C     C_R   0.584385 0.358330 0.802335 0.006831
C58   C     C_R   0.672687 0.345253 0.777930 0.063146
C59   C     C_1   0.692888 0.359290 0.152272 0.031036
C60   C     C_R   0.589310 0.369796 0.852548 -0.127697
C61   C     C_R   0.643655 0.290073 0.626485 -0.004473
C62   C     C_1   0.226087 0.863306 0.610774 -0.010161
C63   C     C_R   0.198091 0.757825 0.727150 0.008335
C64   C     C_R   0.184528 0.753688 0.777427 -0.104387
C65   C     C_R   0.151324 0.918332 0.781520 -0.107383
C66   C     C_R   0.163995 0.923300 0.731501 -0.115872
C67   C     C_1   0.630989 0.265311 0.393937 -0.000944
C68   C     C_R   0.186292 0.843149 0.704003 0.030389
C69   C     C_R   0.161560 0.833535 0.804498 0.024782
C70   C     C_1   0.648686 0.288494 0.352526 -0.030809
C71   C     C_1   0.136792 0.820214 0.854860 -0.054308
C72   C     C_1   0.202242 0.853014 0.652737 -0.055522
C73   C     C_1   0.107025 0.800882 0.895739 -0.007604
C74   C     C_1   0.641821 0.867749 0.611881 -0.027285
C75   C     C_R   0.678991 0.930712 0.738462 -0.107566
C76   C     C_R   0.678547 0.918342 0.788152 -0.105089
C77   C     C_R   0.616778 0.714453 0.769881 -0.101522
C78   C     C_R   0.617183 0.726826 0.720109 -0.100814
C79   C     C_R   0.602715 0.209833 0.266912 -0.105372
C80   C     C_R   0.649658 0.835384 0.704364 0.032540
C81   C     C_1   0.702002 0.389506 0.111886 0.027000
C82   C     C_R   0.647927 0.810334 0.803974 0.034636
C83   C     C_1   0.661112 0.800472 0.854735 -0.058867
C84   C     C_1   0.647709 0.849547 0.653469 -0.075311
C85   C     C_1   0.680617 0.791090 0.896284 -0.010977
C86   C     C_R   0.067442 0.772837 0.078567 0.576032
C87   C     C_R   0.716644 0.440182 0.066909 0.553439
C88   C     C_R   0.722454 0.782104 0.082375 0.584149
C89   C     C_R   0.057362 0.766725 0.941580 0.541649
C90   C     C_R   0.709896 0.434103 0.928957 0.547636
C91   C     C_R   0.612303 0.224226 0.217083 0.291921
C92   C     C_R   0.162412 0.749204 0.352629 -0.100981
C93   C     C_R   0.715722 0.776431 0.943200 0.540277
C94   C     C_R   0.925995 0.149914 0.206774 0.108400
C95   C     C_R   0.036198 0.204658 0.233141 0.000421
C96   C     C_R   0.136259 0.291911 0.213818 -0.063239
C97   C     C_R   0.127438 0.325812 0.168187 -0.086769
C98   C     C_R   0.018784 0.271676 0.141588 -0.091718
C99   C     C_R   0.918604 0.183876 0.160638 -0.038080
C100  C     C_R   0.222532 0.671069 0.700063 0.030103
C101  C     C_R   0.148107 0.552247 0.703992 -0.100874
C102  C     C_R   0.171742 0.470002 0.679474 -0.113397
Cr1   Cr    Cr6+3 0.416430 0.829200 0.492370 1.036989
Cr2   Cr    Cr6+3 0.674630 0.087020 0.504170 1.026602
Cr3   Cr    Cr6+3 0.408920 0.083740 0.503490 1.018217
Cr4   Cr    Cr6+3 0.914010 0.832750 0.013970 1.089498
Cr5   Cr    Cr6+3 0.922310 0.578600 0.003000 1.023917
Cr6   Cr    Cr6+3 0.656280 0.574630 0.003870 1.032344
H1    H     H_    0.546798 0.124762 0.278751 0.151963
H2    H     H_    0.426300 0.765917 0.358391 0.155940
H3    H     H_    0.847984 0.368658 0.875478 0.123674
H4    H     H_    0.797767 0.267745 0.632714 0.132154
H5    H     H_    0.920835 0.322903 0.798963 0.107878
H6    H     H_    0.906273 0.292941 0.709855 0.102737
H7    H     H_    0.521748 0.382051 0.870680 0.138283
H8    H     H_    0.428201 0.377096 0.794995 0.107743
H9    H     H_    0.423904 0.364245 0.706296 0.106309
H10   H     H_    0.497359 0.324873 0.631359 0.129799
H11   H     H_    0.800689 0.517008 0.226842 0.119451
H12   H     H_    0.251257 0.109501 0.210953 0.138583
H13   H     H_    0.191297 0.687608 0.795520 0.111604
H14   H     H_    0.131799 0.979438 0.802121 0.115512
H15   H     H_    0.155995 0.989577 0.714181 0.114300
H16   H     H_    0.702892 0.014776 0.726616 0.118818
H17   H     H_    0.704205 0.993302 0.814149 0.114994
H18   H     H_    0.594450 0.630845 0.781773 0.119011
H19   H     H_    0.592926 0.652272 0.694047 0.111511
H20   H     H_    0.779356 0.490072 0.313673 0.165190
H21   H     H_    0.085607 0.624308 0.132207 0.135340
H22   H     H_    0.150863 0.677244 0.371877 0.216038
H23   H     H_    0.273229 0.127253 0.299832 0.101251
H24   H     H_    0.067032 0.537370 0.203940 0.155302
H25   H     H_    0.186557 0.985628 0.132706 0.164812
H26   H     H_    0.847628 0.728470 0.177059 0.330057
H27   H     H_    0.044851 0.179518 0.268566 0.110806
H28   H     H_    0.220531 0.333628 0.234355 0.112743
H29   H     H_    0.204826 0.393886 0.153408 0.100947
H30   H     H_    0.012120 0.297796 0.106167 0.108890
H31   H     H_    0.835509 0.142896 0.139463 0.156422
H32   H     H_    0.572601 0.008486 0.118521 0.364146
H33   H     H_    0.071654 0.523426 0.725938 0.114471
H34   H     H_    0.268319 0.040528 0.374461 0.137198
H35   H     H_    0.114197 0.378706 0.682656 0.099611
H36   H     H_    0.287830 0.441743 0.631853 0.105809
H37   H     H_    0.420059 0.650314 0.624597 0.120233
H38   H     H_    0.382177 0.797081 0.668971 0.118194
H39   H     H_    0.133600 0.404994 0.331374 0.362499
H40   H     H_    0.757146 0.086869 0.369066 0.145849
H41   H     H_    0.857972 0.162159 0.297056 0.150025
H42   H     H_    0.501819 0.677967 0.121522 0.126104
H43   H     H_    0.367300 0.628993 0.190644 0.107036
H44   H     H_    0.339566 0.662056 0.277114 0.165827
O1    O     O_R   0.296680 0.802170 0.437540 -0.523526
O2    O     O_R   0.637200 0.461990 0.052510 -0.499468
O3    O     O_R   0.664790 0.681920 0.057970 -0.506107
O4    O     O_R   0.525380 0.838530 0.443500 -0.493614
O5    O     O_R   0.815840 0.852920 0.961840 -0.512854
O6    O     O_R   0.012100 0.822630 0.963670 -0.501831
O7    O     O_R   0.037010 0.668460 0.953040 -0.513017
O8    O     O_R   0.813390 0.478970 0.949660 -0.501129
O9    O     O_R   0.632250 0.456930 0.945520 -0.521201
O10   O     O_R   0.660200 0.677230 0.958780 -0.501093
O11   O     O_3   0.830870 0.661990 0.006950 -0.249465
O12   O     O_R   0.662610 0.183990 0.557860 -0.501118
O13   O     O_R   0.702130 0.995190 0.446810 -0.505584
O14   O     O_R   0.661770 0.181390 0.458760 -0.511857
O15   O     O_R   0.499820 0.198480 0.455280 -0.512045
O16   O     O_R   0.311660 0.976250 0.449080 -0.504155
O17   O     O_R   0.297580 0.804960 0.544440 -0.501207
O18   O     O_R   0.526220 0.841130 0.542590 -0.493810
O19   O     O_R   0.703030 0.997990 0.553710 -0.502564
O20   O     O_2   0.998354 0.997617 0.138132 -0.282518
O21   O     O_2   0.958533 0.942737 0.221285 -0.333922
O22   O     O_3   0.895256 0.778128 0.151963 -0.528841
O23   O     O_R   0.500730 0.201280 0.562180 -0.515888
O24   O     O_2   0.463055 0.994815 0.199113 -0.329323
O25   O     O_2   0.441781 0.124066 0.146424 -0.310772
O26   O     O_3   0.619533 0.088080 0.134835 -0.557045
O27   O     O_2   0.976345 0.491443 0.345432 -0.310055
O28   O     O_2   0.974093 0.393120 0.266383 -0.323625
O29   O     O_3   0.166798 0.484905 0.321973 -0.564642
O30   O     O_R   0.312500 0.978850 0.548170 -0.491651
O31   O     O_3   0.499990 0.999990 0.500010 -0.275821
O32   O     O_R   0.820790 0.857990 0.068830 -0.439774
O33   O     O_R   0.016700 0.827330 0.062850 -0.431276
O34   O     O_R   0.041970 0.673520 0.060040 -0.536797
O35   O     O_R   0.817980 0.483660 0.048840 -0.498236
S1    S     S_3+6 0.911834 0.909761 0.169154 -0.019339
S2    S     S_3+6 0.528759 0.103506 0.174114 -0.035861
S3    S     S_3+6 0.048911 0.494563 0.302808 -0.059973

loop_
_geom_bond_atom_site_label_1
_geom_bond_atom_site_label_2
_ccdc_geom_bond_type
C47   H6    S    
C66   C68   A    
O21   S1    D    
C101  C102  A    
C12   C22   A    
C18   C21   A    
C85   C93   S    
C95   C96   A    
C51   C61   A    
C80   C84   S    
Cr5   O8    S    
O24   S2    D    
C89   O6    A    
C96   H28   S    
C77   C78   A    
C91   S2    S    
Cr5   O34   S    
C29   C30   A    
C32   H2    S    
C98   H30   S    
Cr1   O31   S    
C94   C99   A    
C38   C39   A    
C78   C80   A    
C88   O32   A    
C11   C86   S    
C64   H13   S    
C55   C62   S    
Cr5   O35   S    
C51   H10   S    
C56   C57   A    
C21   H25   S    
C69   C71   S    
C16   H23   S    
C42   H4    S    
C17   H12   S    
O22   S1    S    
Cr2   O13   S    
C63   C68   A    
C101  H33   S    
C44   C53   A    
Cr1   O1    S    
C35   C36   A    
C15   H11   S    
C16   C17   A    
C48   C91   A    
C50   C90   S    
C8    H24   S    
Cr1   O18   S    
H32   O26   S    
C32   C41   A    
C5    H38   S    
C1    O13   A    
Cr3   O30   S    
C24   C28   A    
C75   C80   A    
C79   C91   A    
C44   C47   A    
C97   C98   A    
C49   H3    S    
C43   O12   A    
H39   O29   S    
C28   H41   S    
C37   C70   S    
C76   H17   S    
C99   H31   S    
C42   C44   A    
C15   C48   A    
C78   H19   S    
C97   H29   S    
C52   C54   A    
C89   O7    A    
C25   C29   A    
C93   O5    A    
Cr6   O11   S    
C54   C56   A    
C45   C58   A    
O25   S2    D    
C79   H1    S    
C90   O9    A    
C62   C72   T    
C34   C39   A    
C88   O3    A    
C14   C20   A    
C30   C40   A    
C19   C22   S    
C33   C34   A    
C19   O16   A    
C76   C82   A    
C71   C73   T    
O26   S2    S    
C8    C9    A    
C57   C60   A    
C87   O35   A    
Cr6   O3    S    
C45   C46   A    
Cr6   O10   S    
C11   C21   A    
C24   C34   A    
C31   C74   S    
C51   C52   A    
C43   O23   A    
C1    O4    A    
C92   H22   S    
C75   C76   A    
Cr2   O12   S    
C63   C100  S    
C37   C79   A    
O29   S3    S    
Cr5   O7    S    
C5    C100  A    
C45   C49   A    
C68   C72   S    
C60   H7    S    
C96   C97   A    
C95   H27   S    
C17   C18   A    
C56   H8    S    
C87   O2    A    
C40   H42   S    
C36   H43   S    
C26   H20   S    
Cr4   O11   S    
Cr3   O31   S    
C2    C92   A    
C42   C61   A    
Cr4   O32   S    
C81   C87   S    
Cr2   O19   S    
C3    C102  A    
C1    C41   S    
C83   C85   T    
C7    O14   A    
Cr5   O11   S    
C98   C99   A    
C19   O1    A    
C13   C16   A    
C35   H44   S    
C30   C88   S    
C3    C4    A    
C52   C53   A    
C43   C61   S    
C48   C59   S    
C23   H40   S    
C7    O15   A    
C46   C47   A    
C65   H14   S    
H26   O22   S    
C46   H5    S    
C64   C69   A    
C3    H36   S    
C59   C81   T    
Cr4   O33   S    
C74   C84   T    
C4    C5    A    
C15   C26   A    
C6    C10   A    
C6    C8    A    
C53   C58   A    
C29   S1    S    
C26   C37   A    
C86   O34   A    
C31   O18   A    
C25   C27   A    
Cr4   O5    S    
C6    C20   A    
Cr6   O9    S    
C23   C41   A    
Cr3   O16   S    
C67   C70   T    
C50   C60   A    
C32   C33   A    
C36   C38   A    
C102  H35   S    
C10   H21   S    
C73   C89   S    
Cr4   O6    S    
C25   C39   A    
C38   C40   A    
C57   C58   A    
O27   S3    D    
C31   O19   A    
C77   C82   A    
O20   S1    D    
C65   C69   A    
C4    H37   S    
C100  C101  A    
C33   C35   A    
C55   O30   A    
C12   H34   S    
C18   C20   A    
C65   C66   A    
C90   O8    A    
C94   C95   A    
C2    C14   A    
C93   O10   A    
C10   C11   A    
C23   C24   A    
C7    C67   S    
C63   C64   A    
Cr3   O15   S    
Cr1   O4    S    
Cr2   O31   S    
Cr6   O2    S    
C12   C13   A    
C86   O33   A    
C49   C50   A    
Cr3   O23   S    
C54   H9    S    
C75   H16   S    
C27   C28   A    
Cr1   O17   S    
C22   C92   A    
C66   H15   S    
C27   C94   S    
O28   S3    D    
C82   C83   S    
C13   C14   A    
C2    C9    A    
Cr2   O14   S    
C55   O17   A    
C77   H18   S    
C9    S3    S    
