data_mof_unit_30876.cif
_audit_creation_date              2012-12-10T16:32:41-0500
_audit_creation_method            fapswitch 2.2
_symmetry_space_group_name_H-M    P1
_symmetry_Int_Tables_number       1
_space_group_crystal_system       triclinic
_cell_length_a                    16.956705
_cell_length_b                    16.944328
_cell_length_c                    16.968748
_cell_angle_alpha                 65.512787
_cell_angle_beta                  65.49323
_cell_angle_gamma                 65.530093
_cell_volume                      3860.54168513

loop_
_atom_site_label
_atom_site_type_symbol
_atom_type_description
_atom_site_fract_x
_atom_site_fract_y
_atom_site_fract_z
_atom_type_partial_charge
C1    C     C_R   0.590054 0.034292 0.590880 0.070563
C2    C     C_R   0.821768 0.564444 0.032744 0.902418
C3    C     C_R   0.435496 0.967368 0.178195 0.902115
C4    C     C_R   0.564504 0.032632 0.821805 0.902114
C5    C     C_R   0.564568 0.821745 0.032406 0.902226
C6    C     C_R   0.435432 0.178255 0.967593 0.902225
C7    C     C_R   0.032675 0.564485 0.821785 0.902315
C8    C     C_R   0.967325 0.435515 0.178215 0.902314
C9    C     C_R   0.821780 0.032320 0.564617 0.901925
C10   C     C_R   0.178220 0.967680 0.435383 0.901925
C11   C     C_R   0.543225 0.017393 0.544442 0.116349
C12   C     C_R   0.409946 0.965708 0.409120 0.070563
C13   C     C_R   0.456774 0.982607 0.455558 0.116349
C14   C     C_R   0.017542 0.543084 0.544461 0.118404
C15   C     C_R   0.982458 0.456916 0.455539 0.118404
C16   C     C_R   0.544389 0.543130 0.017565 0.117976
C17   C     C_R   0.455611 0.456870 0.982434 0.117977
C18   C     C_R   0.552456 0.060131 0.451570 -0.180814
C19   C     C_R   0.447544 0.939869 0.548430 -0.180814
C20   C     C_R   0.956914 0.490330 0.592276 -0.178052
C21   C     C_R   0.043086 0.509670 0.407724 -0.178052
C22   C     C_R   0.451498 0.552169 0.060325 -0.183817
C23   C     C_R   0.034495 0.589888 0.590874 0.070635
C24   C     C_R   0.548503 0.447831 0.939674 -0.183820
C25   C     C_R   0.509683 0.043110 0.407737 -0.176740
C26   C     C_R   0.490317 0.956889 0.592263 -0.176740
C27   C     C_R   0.407704 0.509472 0.043132 -0.179969
C28   C     C_R   0.592297 0.490528 0.956868 -0.179970
C29   C     C_R   0.939740 0.447694 0.548417 -0.182055
C30   C     C_R   0.060260 0.552306 0.451583 -0.182055
C31   C     C_R   0.549009 0.038711 0.680115 -0.200953
C32   C     C_R   0.450991 0.961289 0.319885 -0.200953
C33   C     C_R   0.038424 0.679433 0.549519 -0.202362
C34   C     C_R   0.965505 0.410111 0.409126 0.070635
C35   C     C_R   0.961576 0.320567 0.450481 -0.202362
C36   C     C_R   0.679990 0.548834 0.039049 -0.203387
C37   C     C_R   0.320010 0.451166 0.960951 -0.203387
C38   C     C_R   0.320429 0.961787 0.450454 -0.201358
C39   C     C_R   0.679571 0.038213 0.549546 -0.201358
C40   C     C_R   0.450590 0.320554 0.961519 -0.203959
C41   C     C_R   0.549411 0.679446 0.038480 -0.203958
C42   C     C_R   0.961143 0.451136 0.319891 -0.202256
C43   C     C_R   0.038856 0.548864 0.680108 -0.202256
C44   C     C_R   0.597317 0.046834 0.725762 -0.054353
C45   C     C_R   0.590756 0.589904 0.034601 0.070938
C46   C     C_R   0.402683 0.953166 0.274238 -0.054353
C47   C     C_R   0.046763 0.725511 0.597381 -0.055139
C48   C     C_R   0.953237 0.274489 0.402619 -0.055139
C49   C     C_R   0.725678 0.597196 0.047095 -0.054578
C50   C     C_R   0.274322 0.402804 0.952905 -0.054578
C51   C     C_R   0.274422 0.953389 0.402571 -0.054905
C52   C     C_R   0.725578 0.046611 0.597429 -0.054906
C53   C     C_R   0.402674 0.274504 0.953168 -0.055018
C54   C     C_R   0.597326 0.725496 0.046831 -0.055018
C55   C     C_R   0.953059 0.402751 0.274260 -0.054400
C56   C     C_R   0.409244 0.410096 0.965399 0.070938
C57   C     C_R   0.046940 0.597249 0.725740 -0.054400
C58   C     C_R   0.682285 0.056914 0.682286 -0.265020
C59   C     C_R   0.317715 0.943086 0.317714 -0.265020
C60   C     C_R   0.057037 0.682252 0.682239 -0.264058
C61   C     C_R   0.942963 0.317748 0.317761 -0.264058
C62   C     C_R   0.682206 0.682205 0.057155 -0.263102
C63   C     C_R   0.317794 0.317795 0.942844 -0.263102
C64   C     C_R   0.967622 0.178237 0.435420 0.902029
C65   C     C_R   0.032378 0.821763 0.564580 0.902029
C66   C     C_R   0.178232 0.435556 0.967256 0.902418
H1    H     H_    0.483258 0.921242 0.663404 0.133053
H2    H     H_    0.412878 0.591322 0.108131 0.129950
H3    H     H_    0.078712 0.516700 0.336577 0.130244
H4    H     H_    0.921288 0.483300 0.663423 0.130244
H5    H     H_    0.480963 0.032676 0.714896 0.150391
H6    H     H_    0.519037 0.967324 0.285104 0.150391
H7    H     H_    0.029335 0.714733 0.482703 0.151853
H8    H     H_    0.970665 0.285267 0.517297 0.151853
H9    H     H_    0.714760 0.480761 0.033017 0.149589
H10   H     H_    0.285240 0.519238 0.966985 0.149589
H11   H     H_    0.285112 0.970888 0.517281 0.152046
H12   H     H_    0.516742 0.078758 0.336596 0.133053
H13   H     H_    0.714887 0.029112 0.482719 0.152046
H14   H     H_    0.517420 0.285241 0.970662 0.151098
H15   H     H_    0.482582 0.714759 0.029336 0.151098
H16   H     H_    0.967216 0.519204 0.285099 0.149999
H17   H     H_    0.032784 0.480796 0.714901 0.149999
H18   H     H_    0.718270 0.063652 0.718099 0.178757
H19   H     H_    0.281730 0.936348 0.281901 0.178757
H20   H     H_    0.063734 0.718299 0.718047 0.179035
H21   H     H_    0.936266 0.281701 0.281953 0.179035
H22   H     H_    0.718063 0.718241 0.063837 0.179332
H23   H     H_    0.108027 0.591565 0.413009 0.129636
H24   H     H_    0.281937 0.281759 0.936164 0.179332
H25   H     H_    0.891972 0.408435 0.586991 0.129636
H26   H     H_    0.663463 0.483660 0.921216 0.130586
H27   H     H_    0.336537 0.516338 0.078786 0.130584
H28   H     H_    0.408186 0.892184 0.587018 0.131534
H29   H     H_    0.591814 0.107816 0.412981 0.131534
H30   H     H_    0.587122 0.408677 0.891869 0.129950
O1    O     O_R   0.982940 0.138950 0.510160 -0.637199
O2    O     O_R   0.982940 0.510160 0.138950 -0.639020
O3    O     O_R   0.861050 0.017060 0.489840 -0.636960
O4    O     O_R   0.138950 0.982940 0.510160 -0.636960
O5    O     O_R   0.867700 0.025880 0.612340 -0.631094
O6    O     O_R   0.132300 0.974120 0.387660 -0.631094
O7    O     O_R   0.025880 0.612340 0.867700 -0.630419
O8    O     O_R   0.974120 0.387660 0.132300 -0.630419
O9    O     O_R   0.612340 0.867700 0.025880 -0.630224
O10   O     O_R   0.387660 0.132300 0.974120 -0.630225
O11   O     O_R   0.387660 0.974120 0.132300 -0.630984
O12   O     O_R   0.017060 0.861050 0.489840 -0.637199
O13   O     O_R   0.612340 0.025880 0.867700 -0.630984
O14   O     O_R   0.132300 0.387660 0.974120 -0.630127
O15   O     O_R   0.867700 0.612340 0.025880 -0.630127
O16   O     O_R   0.974120 0.132300 0.387660 -0.630844
O17   O     O_R   0.025880 0.867700 0.612340 -0.630844
O18   O     O_R   0.138950 0.510160 0.982940 -0.639305
O19   O     O_R   0.861050 0.489840 0.017060 -0.639305
O20   O     O_R   0.510160 0.982940 0.138950 -0.638025
O21   O     O_R   0.489840 0.017060 0.861050 -0.638026
O22   O     O_R   0.489840 0.861050 0.017060 -0.638296
O23   O     O_R   0.510160 0.138950 0.982940 -0.638295
O24   O     O_R   0.017060 0.489840 0.861050 -0.639019
Zn1   Zn    Zn3+2 0.004880 0.004880 0.583590 0.942453
Zn2   Zn    Zn3+2 0.995120 0.995120 0.416410 0.942453
Zn3   Zn    Zn3+2 0.004880 0.583590 0.004880 0.940128
Zn4   Zn    Zn3+2 0.995120 0.416410 0.995120 0.940128
Zn5   Zn    Zn3+2 0.583590 0.004880 0.004880 0.941219
Zn6   Zn    Zn3+2 0.416410 0.995120 0.995120 0.941219

loop_
_geom_bond_atom_site_label_1
_geom_bond_atom_site_label_2
_ccdc_geom_bond_type
C16   C28   A    
C4    O13   A    
C11   C18   A    
C50   C63   A    
C46   C59   A    
C43   H17   S    
C34   C42   A    
O7    Zn3   S    
C35   H8    S    
C5    O9    A    
C18   C25   A    
C26   H1    S    
C2    C49   S    
C34   C35   A    
C3    O20   A    
C24   H30   S    
C48   C64   S    
C35   C48   A    
C1    C31   A    
C23   C43   A    
O4    Zn1   S    
C19   C26   A    
C8    O2    A    
O1    Zn1   S    
C61   H21   S    
O14   Zn4   S    
C47   C60   A    
C37   C56   A    
C44   C58   A    
C23   C33   A    
C42   H16   S    
C40   H14   S    
C49   C62   A    
O21   Zn6   S    
C15   C34   S    
C31   H5    S    
C39   C52   A    
C9    O3    A    
C7    O7    A    
C12   C32   A    
C18   H29   S    
C20   H4    S    
C9    C52   S    
C32   C46   A    
C14   C30   A    
C30   H23   S    
C10   C51   S    
C8    C55   S    
C15   C29   A    
C20   C29   A    
O2    Zn3   S    
C2    O15   A    
C17   C24   A    
C31   C44   A    
C13   C19   A    
O15   Zn3   S    
C25   H12   S    
C17   C27   A    
C14   C20   A    
C5    C54   S    
C10   O6    A    
C32   H6    S    
C60   H20   S    
C57   C60   A    
C38   C51   A    
C4    C44   S    
C11   C26   A    
C3    O11   A    
C62   H22   S    
O5    Zn1   S    
C21   H3    S    
C39   H13   S    
C14   C23   S    
C59   H19   S    
O16   Zn2   S    
C36   H9    S    
C58   H18   S    
C42   C55   A    
C8    O8    A    
C2    O19   A    
C1    C39   A    
C41   H15   S    
C6    O10   A    
C36   C45   A    
C28   H26   S    
C40   C56   A    
C66   O14   A    
C10   O4    A    
C50   C66   S    
C17   C56   S    
C22   H2    S    
C19   H28   S    
C52   C58   A    
O3    Zn2   S    
O18   Zn3   S    
O23   Zn5   S    
C33   H7    S    
C64   O1    A    
C37   H10   S    
O20   Zn5   S    
C33   C47   A    
C4    O21   A    
C27   H27   S    
C51   C59   A    
C6    C53   S    
C6    O23   A    
C29   H25   S    
O13   Zn5   S    
C16   C22   A    
O19   Zn4   S    
C66   O18   A    
C65   O17   A    
C7    O24   A    
C24   C28   A    
O11   Zn6   S    
O12   Zn2   S    
C13   C25   A    
C16   C45   S    
O8    Zn4   S    
C38   H11   S    
C54   C62   A    
C21   C30   A    
O10   Zn6   S    
C3    C46   S    
O9    Zn5   S    
C5    O22   A    
C22   C27   A    
C65   O12   A    
C37   C50   A    
C53   C63   A    
C48   C61   A    
C55   C61   A    
C63   H24   S    
C7    C57   S    
C12   C38   A    
C41   C54   A    
C64   O16   A    
C43   C57   A    
C15   C21   A    
O17   Zn1   S    
C12   C13   S    
C9    O5    A    
C40   C53   A    
C41   C45   A    
C1    C11   S    
O22   Zn6   S    
O6    Zn2   S    
C47   C65   S    
C36   C49   A    
O24   Zn4   S    
