data_mof_unit_11289.cif
_audit_creation_date              2012-10-26T19:35:34-0400
_audit_creation_method            fapswitch 2.2
_symmetry_space_group_name_H-M    P1
_symmetry_Int_Tables_number       1
_space_group_crystal_system       triclinic
_cell_length_a                    15.828938
_cell_length_b                    10.814008
_cell_length_c                    9.608531
_cell_angle_alpha                 89.983058
_cell_angle_beta                  89.114095
_cell_angle_gamma                 91.588996
_cell_volume                      1643.90378

loop_
_atom_site_label
_atom_site_type_symbol
_atom_type_description
_atom_site_fract_x
_atom_site_fract_y
_atom_site_fract_z
_atom_type_partial_charge
C1    C     C_R   0.498451 0.262854 0.500081 0.547512
C2    C     C_R   0.491811 0.129937 0.502105 -0.008880
C3    C     C_R   0.440771 0.065281 0.407405 -0.128140
C4    C     C_R   0.339924 0.498771 0.500813 0.605211
C5    C     C_R   0.437134 0.935407 0.407958 0.185478
C6    C     C_R   0.489377 0.871078 0.501244 -0.002239
C7    C     C_R   0.531599 0.938364 0.604460 -0.016993
C8    C     C_3   0.622537 0.937237 0.644474 -0.246165
C9    C     C_3   0.621905 0.077086 0.647338 -0.273427
C10   C     C_R   0.569220 0.540787 0.071771 0.106876
C11   C     C_R   0.436349 0.445754 0.078996 0.059605
C12   C     C_3   0.082538 0.494904 0.501624 0.039948
C13   C     C_R   0.435395 0.442513 0.931535 0.343512
C14   C     C_R   0.570186 0.539881 0.925048 0.159179
C15   C     C_3   0.614138 0.664926 0.922118 0.130903
C16   C     C_R   0.496951 0.737464 0.499898 0.578459
C17   C     C_3   0.611647 0.664247 0.080756 -0.222565
C18   C     C_R   0.659980 0.497848 0.498958 0.564616
C19   C     C_3   0.969810 0.377553 0.518289 -0.094521
C20   C     C_3   0.028669 0.421759 0.396884 -0.094264
C21   C     C_1   0.250038 0.497327 0.502359 0.073483
C22   C     C_1   0.749745 0.494439 0.496602 0.040807
C23   C     C_3   0.970974 0.566155 0.602901 -0.087773
C24   C     C_3   0.025257 0.450728 0.623060 -0.088286
C25   C     C_3   0.917128 0.492996 0.498115 0.036853
C26   C     C_3   0.029818 0.610346 0.481525 -0.092013
C27   C     C_3   0.974427 0.537203 0.376756 -0.099799
C28   C     C_1   0.174335 0.496166 0.502574 -0.008858
C29   C     C_1   0.825386 0.492964 0.496521 -0.021443
C30   C     C_R   0.531805 0.065624 0.605781 0.038170
Cu1   Cu    Cu3+1 0.500000 0.499980 0.640670 1.110995
Cu2   Cu    Cu3+1 0.500000 0.500020 0.359330 1.021551
H1    H     H_    0.053788 0.362522 0.312362 0.142904
H2    H     H_    0.055869 0.705875 0.466538 0.152147
H3    H     H_    0.047568 0.415361 0.724155 0.132577
H4    H     H_    0.404327 0.116154 0.333226 0.173843
H5    H     H_    0.631540 0.897964 0.749468 0.193866
H6    H     H_    0.217999 0.422433 0.812138 0.355480
H7    H     H_    0.785073 0.727324 0.668795 0.355055
H8    H     H_    0.575034 0.737465 0.875937 0.107838
H9    H     H_    0.945743 0.625316 0.687423 0.155621
H10   H     H_    0.440639 0.869442 0.108131 0.331067
H11   H     H_    0.663902 0.900329 0.560545 0.167316
H12   H     H_    0.628709 0.116491 0.753561 0.164575
H13   H     H_    0.663211 0.121460 0.565835 0.133076
H14   H     H_    0.384698 0.405580 0.139965 0.178091
H15   H     H_    0.673964 0.658373 0.131708 0.180716
H16   H     H_    0.570338 0.735546 0.125784 0.143370
H17   H     H_    0.943740 0.282038 0.533285 0.128704
H18   H     H_    0.952146 0.572605 0.275655 0.145612
N1    N     N_R   0.500530 0.500930 0.147930 -0.265326
N2    N     N_R   0.500530 0.500890 0.852020 -0.280193
O1    O     O_R   0.500000 0.319640 0.618810 -0.461203
O2    O     O_2   0.305561 0.280364 0.977833 -0.302102
O3    O     O_3   0.270691 0.470736 0.830874 -0.509011
O4    O     O_2   0.775626 0.749520 0.939564 -0.302223
O5    O     O_2   0.754573 0.533798 0.866481 -0.274426
O6    O     O_3   0.724595 0.708051 0.689146 -0.560765
O7    O     O_2   0.317453 0.758485 0.374647 -0.249203
O8    O     O_2   0.301322 0.949245 0.243194 -0.249747
O9    O     O_3   0.415416 0.797730 0.159541 -0.493063
O10   O     O_R   0.500010 0.319680 0.381230 -0.529405
O11   O     O_R   0.379070 0.499970 0.618770 -0.419793
O12   O     O_R   0.379080 0.500010 0.381190 -0.487473
O13   O     O_R   0.499990 0.680320 0.618770 -0.501698
O14   O     O_R   0.500000 0.680360 0.381190 -0.455228
O15   O     O_R   0.620920 0.499990 0.618810 -0.444054
O16   O     O_R   0.620930 0.500030 0.381230 -0.524196
O17   O     O_2   0.359391 0.286406 0.741197 -0.258869
S1    S     S_3+6 0.342908 0.364536 0.866916 0.040138
S2    S     S_3+6 0.721029 0.662135 0.855979 -0.019852
S3    S     S_3+6 0.364307 0.859610 0.296105 0.048045

loop_
_geom_bond_atom_site_label_1
_geom_bond_atom_site_label_2
_ccdc_geom_bond_type
C9    H13   S    
C22   C29   T    
C19   C20   S    
C8    H11   S    
Cu1   N2    S    
C1    O10   A    
C7    C8    S    
Cu1   O15   S    
C4    O11   A    
C26   C27   S    
C12   C28   S    
C5    S3    S    
C5    C6    A    
O6    S2    S    
C13   S1    S    
O8    S3    D    
C10   C17   S    
C18   O16   A    
Cu1   O13   S    
C1    C2    S    
C23   C26   S    
C1    O1    A    
C26   H2    S    
C14   N2    A    
H6    O3    S    
C8    C9    S    
C23   C24   S    
C17   H16   S    
C27   H18   S    
O7    S3    D    
Cu2   O16   S    
C7    C30   A    
C10   N1    A    
C25   C29   S    
C24   H3    S    
Cu1   O11   S    
Cu2   O12   S    
C10   C14   A    
C18   O15   A    
H7    O6    S    
Cu1   O1    S    
C12   C26   S    
Cu2   N1    S    
C13   N2    A    
C19   H17   S    
Cu1   Cu2   S    
O2    S1    D    
O4    S2    D    
C12   C20   S    
O5    S2    D    
H10   O9    S    
C9    C30   S    
C20   H1    S    
O9    S3    S    
C21   C28   T    
C16   O14   A    
C8    H5    S    
Cu2   O14   S    
C15   C17   S    
C4    O12   A    
C9    H12   S    
C18   C22   S    
C17   H15   S    
C3    C5    A    
C6    C7    A    
C20   C27   S    
C25   C27   S    
C15   S2    S    
C12   C24   S    
C23   H9    S    
C2    C30   A    
C2    C3    A    
Cu2   O10   S    
C4    C21   S    
C11   C13   A    
C3    H4    S    
C19   C24   S    
C23   C25   S    
O17   S1    D    
C19   C25   S    
C15   H8    S    
O3    S1    S    
C11   N1    A    
C6    C16   S    
C14   C15   S    
C11   H14   S    
C16   O13   A    
