data_mof_unit_52828.cif
_audit_creation_date              2013-03-05T16:41:35-0500
_audit_creation_method            fapswitch 2.2
_symmetry_space_group_name_H-M    P1
_symmetry_Int_Tables_number       1
_space_group_crystal_system       triclinic
_cell_length_a                    12.847959
_cell_length_b                    10.652434
_cell_length_c                    9.854979
_cell_angle_alpha                 90.045477
_cell_angle_beta                  97.346135
_cell_angle_gamma                 90.018306
_cell_volume                      1337.70095774

loop_
_atom_site_label
_atom_site_type_symbol
_atom_site_description
_atom_site_fract_x
_atom_site_fract_y
_atom_site_fract_z
_atom_type_partial_charge
O1    O     O_R   0.500010 0.316790 0.614690 -0.625137
O2    O     O_R   0.500000 0.316760 0.385350 -0.613161
C1    C     C_R   0.497138 0.259870 0.499599 0.931411
O3    O     O_R   0.346360 0.499990 0.595720 -0.634161
O4    O     O_R   0.346350 0.499960 0.366370 -0.602962
C2    C     C_R   0.298351 0.499340 0.472943 0.890870
Zn1   Zn    Zn3+2 0.500010 0.500020 0.653130 0.954456
Zn2   Zn    Zn3+2 0.499990 0.499980 0.346870 1.010738
O5    O     O_R   0.500000 0.683240 0.614650 -0.624480
O6    O     O_R   0.499990 0.683210 0.385310 -0.581332
O7    O     O_R   0.653650 0.500040 0.633630 -0.623695
O8    O     O_R   0.653640 0.500010 0.404280 -0.608711
C3    C     C_R   0.492544 0.739777 0.498787 0.921115
C4    C     C_R   0.701673 0.495323 0.526934 0.901011
C5    C     C_R   0.814073 0.489005 0.543876 -0.121602
C6    C     C_R   0.186820 0.489797 0.455998 -0.025401
C7    C     C_R   0.028978 0.394149 0.346492 -0.167891
C8    C     C_R   0.135231 0.416960 0.350454 -0.200716
C9    C     C_R   0.133499 0.542819 0.555617 -0.254293
C10   C     C_R   0.027520 0.521671 0.552490 0.172319
C11   C     C_R   0.973410 0.446752 0.446822 0.095446
C12   C     C_R   0.865762 0.426766 0.445246 -0.094729
C13   C     C_R   0.869165 0.557896 0.650444 -0.203256
C14   C     C_R   0.975901 0.573640 0.655177 -0.195351
H1    H     H_    0.828806 0.604726 0.726292 0.166621
H2    H     H_    0.992058 0.334205 0.265798 0.179239
H3    H     H_    0.017557 0.629606 0.736665 0.154348
H4    H     H_    0.177854 0.373368 0.274887 0.151719
H5    H     H_    0.175237 0.598996 0.637133 0.153333
C15   C     C_R   0.492846 0.063573 0.621369 0.125169
C16   C     C_R   0.479564 0.128577 0.498454 -0.153185
C17   C     C_R   0.439957 0.066794 0.377188 -0.279748
H6    H     H_    0.417553 0.119049 0.283730 0.193535
C18   C     C_R   0.432513 0.936303 0.376024 0.303241
C19   C     C_R   0.470488 0.870901 0.497463 -0.237555
C20   C     C_R   0.489126 0.936003 0.620857 0.118638
C21   C     C_3   0.576868 0.925780 0.735869 -0.454389
C22   C     C_3   0.580823 0.068023 0.736130 -0.442053
H7    H     H_    0.550119 0.886323 0.829911 0.222888
H8    H     H_    0.648383 0.881344 0.704391 0.196583
H9    H     H_    0.556313 0.110540 0.830128 0.212692
H10   H     H_    0.654479 0.106600 0.704443 0.213532
C23   C     C_R   0.452573 0.404938 0.063351 0.216912
N1    N     N_R   0.499290 0.499140 0.142710 -0.108196
C24   C     C_R   0.555285 0.587043 0.081329 -0.033148
H11   H     H_    0.598216 0.658763 0.142942 0.156127
C25   C     C_R   0.555430 0.586920 0.937290 -0.111717
H12   H     H_    0.598747 0.658244 0.890156 0.141488
N2    N     N_R   0.499290 0.499180 0.857070 -0.112515
C26   C     C_R   0.452516 0.404985 0.920754 0.208557
C27   C     C_3   0.339359 0.369706 0.896271 -0.475518
C28   C     C_3   0.339465 0.369756 0.050402 -0.510643
H13   H     H_    0.289345 0.444763 0.843739 0.224160
H14   H     H_    0.327567 0.274832 0.849773 0.210224
H15   H     H_    0.289838 0.445061 0.086708 0.231373
H16   H     H_    0.327551 0.274955 0.092859 0.205580
C29   C     C_2   0.806939 0.341752 0.342623 0.913848
O9    O     O_2   0.760735 0.250644 0.381149 -0.633560
O10   O     O_R   0.801095 0.369040 0.203051 -0.808342
H17   H     H_    0.757013 0.305855 0.143928 0.341421
N3    N     N_R   0.389400 0.873121 0.252542 0.219314
O11   O     O_R   0.321485 0.783122 0.257654 -0.384073
O12   O     O_R   0.404226 0.918348 0.133873 -0.416388

loop_
_geom_bond_atom_site_label_1
_geom_bond_atom_site_label_2
_geom_bond_distance
_ccdc_geom_bond_type
O4    Zn2   2.007601 S    
C1    C16   1.416441 S    
C13   C14   1.376357 A    
C28   H15   1.111869 S    
C23   C26   1.405201 A    
C3    C19   1.425078 S    
C21   C22   1.516062 S    
C18   C19   1.417014 A    
C9    C10   1.376505 A    
C14   H3    1.084384 S    
C15   C20   1.359729 A    
Zn2   O8    1.982803 S    
C27   H14   1.111638 S    
C17   H6    1.083567 S    
C12   C29   1.488878 S    
C5    C13   1.396731 A    
C7    C8    1.382139 A    
O10   H17   1.013912 S    
C25   N2    1.367986 A    
N3    O12   1.301487 A    
C24   H11   1.081646 S    
C10   C11   1.420507 A    
Zn1   O7    2.007600 S    
Zn1   N2    2.011054 S    
C29   O9    1.223237 D    
C15   C16   1.387245 A    
O3    Zn1   1.982803 S    
O4    C2    1.284156 A    
C7    H2    1.080595 S    
Zn2   O6    1.987972 S    
C20   C21   1.496968 S    
C5    C12   1.410571 A    
O8    C4    1.285990 A    
C22   H10   1.112403 S    
C21   H8    1.112417 S    
O2    C1    1.283731 A    
C24   C25   1.419742 A    
C23   N1    1.362798 A    
C6    C9    1.386906 A    
N3    O11   1.301471 A    
C21   H7    1.111604 S    
O7    C4    1.286344 A    
O2    Zn2   1.988531 S    
C23   C28   1.490202 S    
C29   O10   1.398687 S    
O3    C2    1.285946 A    
C27   H13   1.111801 S    
C2    C6    1.424872 S    
C27   C28   1.518790 S    
C9    H5    1.086222 S    
C25   H12   1.081277 S    
C28   H16   1.111424 S    
C13   H1    1.084042 S    
C8    H4    1.083521 S    
N1    C24   1.368227 A    
C15   C22   1.493974 S    
C22   H9    1.111949 S    
C6    C8    1.394734 A    
N2    C26   1.363420 A    
C18   N3    1.437623 S    
Zn1   O5    1.988531 S    
C10   C14   1.393335 A    
C4    C5    1.433970 S    
O1    Zn1   1.987974 S    
O5    C3    1.284063 A    
C26   C27   1.490939 S    
C11   C12   1.397394 A    
O6    C3    1.284210 A    
C16   C17   1.401192 A    
C7    C11   1.407562 A    
C19   C20   1.393243 A    
O1    C1    1.282047 A    
Zn2   N1    2.010876 S    
C17   C18   1.393235 A    
