data_mof_unit_21012.cif
_audit_creation_date              2012-10-26T20:09:44-0400
_audit_creation_method            fapswitch 2.2
_symmetry_space_group_name_H-M    P1
_symmetry_Int_Tables_number       1
_space_group_crystal_system       triclinic
_cell_length_a                    10.74398
_cell_length_b                    9.426702
_cell_length_c                    15.883759
_cell_angle_alpha                 90.665941
_cell_angle_beta                  90.252317
_cell_angle_gamma                 90.351415
_cell_volume                      1608.55681546

loop_
_atom_site_label
_atom_site_type_symbol
_atom_type_description
_atom_site_fract_x
_atom_site_fract_y
_atom_site_fract_z
_atom_type_partial_charge
C1    C     C_R   0.259746 0.499336 0.502606 0.606972
C2    C     C_3   0.925975 0.348188 0.520225 -0.199021
C3    C     C_3   0.072273 0.546180 0.417907 -0.337861
C4    C     C_3   0.121513 0.497525 0.504977 0.090166
C5    C     C_3   0.877962 0.499977 0.503057 -0.015333
C6    C     C_R   0.499724 0.499140 0.340289 0.555506
C7    C     C_3   0.928877 0.549888 0.417396 -0.275463
C8    C     C_3   0.598266 0.085401 0.558291 -0.108115
C9    C     C_3   0.598505 0.917811 0.558058 -0.107677
C10   C     C_3   0.379936 0.083590 0.530788 -0.104559
C11   C     C_3   0.379892 0.916378 0.531231 -0.113201
C12   C     C_3   0.626741 0.461197 0.950513 -0.208323
C13   C     C_3   0.523352 0.082243 0.416651 -0.098826
C14   C     C_3   0.522814 0.915175 0.416581 -0.092154
C15   C     C_R   0.740032 0.500264 0.501316 0.546736
C16   C     C_R   0.499455 0.500895 0.659811 0.576084
C17   C     C_3   0.457953 0.648611 0.051164 -0.032464
C18   C     C_3   0.400853 0.388938 0.046209 -0.044009
C19   C     C_3   0.398330 0.396931 0.948299 -0.213757
C20   C     C_3   0.465232 0.653673 0.953179 -0.219078
C21   C     C_1   0.498359 0.503525 0.749413 -0.026783
C22   C     C_3   0.497674 0.498595 0.082785 0.011962
C23   C     C_3   0.629089 0.463822 0.047942 -0.206583
C24   C     C_3   0.496843 0.504726 0.917047 0.022238
C25   C     C_2   0.423769 0.238543 0.074730 0.568231
C26   C     C_2   0.530712 0.768821 0.092790 0.547208
C27   C     C_3   0.131555 0.687110 0.706426 -0.126524
C28   C     C_3   0.090063 0.146696 0.609128 -0.134498
C29   C     C_1   0.497485 0.505533 0.824928 -0.075020
C30   C     C_1   0.498417 0.495948 0.175206 -0.035457
C31   C     C_1   0.499084 0.496850 0.250710 0.002523
C32   C     C_3   0.072629 0.603175 0.573597 0.191226
C33   C     C_3   0.069483 0.344465 0.521717 0.194309
C34   C     C_3   0.928183 0.599600 0.574033 -0.198950
Cu1   Cu    Cu3+1 0.499860 0.642410 0.500040 0.888982
Cu2   Cu    Cu3+1 0.499860 0.357590 0.500040 0.905810
H1    H     H_    0.374250 0.689455 0.927474 0.096546
H2    H     H_    0.585351 0.879682 0.623410 0.118838
H3    H     H_    0.691562 0.123768 0.538584 0.108451
H4    H     H_    0.691666 0.880226 0.537829 0.109631
H5    H     H_    0.359084 0.125083 0.594932 0.142947
H6    H     H_    0.359424 0.878387 0.595719 0.108873
H7    H     H_    0.450747 0.119028 0.371932 0.144626
H8    H     H_    0.449305 0.876790 0.372194 0.150951
H9    H     H_    0.614135 0.121583 0.392488 0.121128
H10   H     H_    0.613058 0.875571 0.391836 0.125618
H11   H     H_    0.303903 0.119119 0.488552 0.124382
H12   H     H_    0.304098 0.430402 0.927218 0.103356
H13   H     H_    0.302615 0.877898 0.490015 0.112516
H14   H     H_    0.358495 0.663947 0.068718 0.106286
H15   H     H_    0.306931 0.419777 0.069479 0.097367
H16   H     H_    0.414984 0.291301 0.918446 0.161319
H17   H     H_    0.536421 0.731515 0.931914 0.166086
H18   H     H_    0.698535 0.543122 0.070730 0.165434
H19   H     H_    0.662589 0.360638 0.071881 0.162510
H20   H     H_    0.699416 0.534849 0.926512 0.129815
H21   H     H_    0.650007 0.352775 0.927240 0.153280
H22   H     H_    0.103387 0.712052 0.555024 0.075197
H23   H     H_    0.892917 0.709243 0.565292 0.073836
H24   H     H_    0.101552 0.274755 0.468859 0.086341
H25   H     H_    0.893267 0.562742 0.635996 0.144573
H26   H     H_    0.887134 0.312718 0.581293 0.140343
H27   H     H_    0.527032 0.061748 0.064113 0.371840
H28   H     H_    0.691347 0.880204 0.101894 0.336095
H29   H     H_    0.041599 0.744221 0.712110 0.090757
H30   H     H_    0.205332 0.759599 0.683102 0.099788
H31   H     H_    0.159427 0.652655 0.770300 0.146773
H32   H     H_    0.153530 0.104588 0.657948 0.126964
H33   H     H_    0.105256 0.083896 0.550416 0.060420
H34   H     H_    0.891835 0.272835 0.470640 0.084760
H35   H     H_    0.993829 0.128765 0.631850 0.105590
H36   H     H_    0.109161 0.653599 0.403024 0.124640
H37   H     H_    0.105080 0.472549 0.367504 0.119412
H38   H     H_    0.897051 0.659750 0.404612 0.135344
H39   H     H_    0.892477 0.480175 0.365748 0.130426
H40   H     H_    0.584569 0.125088 0.623750 0.120484
N1    N     N_3   0.500250 0.143650 0.501830 -0.236371
N2    N     N_3   0.500250 0.856350 0.501830 -0.230716
O1    O     O_R   0.317570 0.620260 0.500050 -0.525814
O2    O     O_R   0.521582 0.160335 0.040260 -0.726234
O3    O     O_2   0.482531 0.838040 0.149383 -0.525275
O4    O     O_R   0.652555 0.799553 0.067912 -0.730095
O5    O     O_3   0.120454 0.566026 0.653816 -0.509990
O6    O     O_3   0.114825 0.293516 0.599984 -0.498485
O7    O     O_R   0.317570 0.379740 0.500050 -0.487433
O8    O     O_R   0.499890 0.620310 0.379470 -0.501724
O9    O     O_R   0.499890 0.379690 0.379470 -0.508336
O10   O     O_R   0.682190 0.620260 0.500020 -0.513988
O11   O     O_R   0.682190 0.379740 0.500020 -0.519853
O12   O     O_R   0.499870 0.620210 0.620600 -0.504416
O13   O     O_R   0.499870 0.379790 0.620600 -0.495585
O14   O     O_2   0.355180 0.184895 0.126885 -0.503523

loop_
_geom_bond_atom_site_label_1
_geom_bond_atom_site_label_2
_ccdc_geom_bond_type
Cu2   O11   S    
C16   O12   A    
C16   C21   S    
C28   O6    S    
C25   O2    S    
C28   H33   S    
C32   H22   S    
C14   H10   S    
C12   C23   S    
C27   H29   S    
C17   C26   S    
C28   H32   S    
C3    C7    S    
Cu2   N1    S    
C30   C31   T    
Cu1   O8    S    
C8    H40   S    
C17   C20   S    
C11   H6    S    
C18   C19   S    
C24   C29   S    
C19   H16   S    
C20   C24   S    
C8    C9    S    
C8    H3    S    
C6    C31   S    
C26   O4    S    
C13   C14   S    
C10   H5    S    
C18   C25   S    
C10   N1    S    
C18   H15   S    
C7    H38   S    
H27   O2    S    
Cu2   O9    S    
C1    O7    A    
C13   N1    S    
C5    C7    S    
C19   H12   S    
C7    H39   S    
C21   C29   T    
C9    H4    S    
C6    O9    A    
Cu1   Cu2   S    
C32   C34   S    
C11   H13   S    
C11   N2    S    
C15   O11   A    
Cu1   O10   S    
C5    C34   S    
C4    C32   S    
H28   O4    S    
C12   H20   S    
C12   H21   S    
Cu2   O13   S    
C33   H24   S    
C8    N1    S    
C1    O1    A    
C28   H35   S    
C3    C4    S    
C13   H7    S    
C2    C33   S    
C23   H18   S    
C14   H8    S    
C32   O5    S    
C4    C33   S    
C25   O14   D    
C22   C30   S    
C18   C22   S    
C20   H17   S    
C17   H14   S    
C23   H19   S    
Cu2   O7    S    
C26   O3    D    
C12   C24   S    
Cu1   N2    S    
C17   C22   S    
C6    O8    A    
C1    C4    S    
C27   O5    S    
C3    H36   S    
C27   H30   S    
C13   H9    S    
C20   H1    S    
C34   H23   S    
Cu1   O1    S    
C9    H2    S    
C19   C24   S    
C9    N2    S    
C14   N2    S    
C3    H37   S    
C33   O6    S    
C5    C15   S    
C27   H31   S    
C10   C11   S    
C2    C5    S    
Cu1   O12   S    
C16   O13   A    
C34   H25   S    
C10   H11   S    
C22   C23   S    
C2    H34   S    
C2    H26   S    
C15   O10   A    
