data_mof_unit_62889.cif
_audit_creation_date              2012-12-11T17:27:12-0500
_audit_creation_method            fapswitch 2.2
_symmetry_space_group_name_H-M    P1
_symmetry_Int_Tables_number       1
_space_group_crystal_system       triclinic
_cell_length_a                    6.954734
_cell_length_b                    21.243901
_cell_length_c                    22.906068
_cell_angle_alpha                 92.960063
_cell_angle_beta                  89.08563
_cell_angle_gamma                 89.52415
_cell_volume                      3379.18560818

loop_
_atom_site_label
_atom_site_type_symbol
_atom_type_description
_atom_site_fract_x
_atom_site_fract_y
_atom_site_fract_z
_atom_type_partial_charge
O1    O     O_R   0.494570 0.443040 0.441850 -0.532256
O2    O     O_R   0.823720 0.437670 0.557760 -0.529472
O3    O     O_R   0.994070 0.556960 0.558150 -0.526337
C1    C     C_R   0.654372 0.422767 0.577122 0.727803
O4    O     O_R   0.824280 0.435690 0.442260 -0.530673
O5    O     O_R   0.994640 0.554970 0.441830 -0.532290
C2    C     C_R   0.657195 0.420347 0.422961 0.746888
O6    O     O_R   0.494000 0.445030 0.558170 -0.532687
O7    O     O_3   0.660820 0.539140 0.499990 -0.371535
V1    V     V_3+5 0.935650 0.492740 0.500000 1.469848
O8    O     O_R   0.324360 0.562330 0.442240 -0.538208
C3    C     C_R   0.156025 0.576961 0.422459 0.718580
O9    O     O_R   0.323800 0.564310 0.557740 -0.527492
C4    C     C_R   0.153205 0.582235 0.579990 0.691451
V2    V     V_3+5 0.435660 0.507260 0.500000 1.442884
O10   O     O_3   0.160620 0.460860 0.500010 -0.351964
C5    C     C_1   0.139815 0.633407 0.631273 -0.205172
C6    C     C_1   0.128931 0.675104 0.673580 0.013396
C7    C     C_1   0.115953 0.724879 0.724318 0.002823
C8    C     C_1   0.105114 0.766446 0.766738 0.005627
C9    C     C_1   0.092116 0.816212 0.817483 0.021679
C10   C     C_1   0.081178 0.857894 0.859802 -0.194352
H1    H     H_    0.397856 0.768022 0.185736 0.131563
C11   C     C_R   0.283371 0.716002 0.256445 -0.223772
H2    H     H_    0.419902 0.693184 0.264008 0.184918
C12   C     C_R   0.121549 0.702886 0.291091 0.024968
C13   C     C_R   0.945608 0.733514 0.280446 0.422288
C14   C     C_R   0.932976 0.775360 0.234672 -0.238662
H3    H     H_    0.796125 0.797586 0.226197 0.129516
C15   C     C_R   0.095387 0.788511 0.200283 0.080010
C16   C     C_R   0.270668 0.758603 0.211667 -0.149300
C17   C     C_1   0.136564 0.658483 0.337550 0.005885
C18   C     C_1   0.082568 0.832570 0.153545 -0.025682
C19   C     C_1   0.073258 0.869550 0.114714 -0.189879
C20   C     C_1   0.146881 0.621530 0.376347 -0.177851
H4    H     H_    0.354035 0.322363 0.736679 0.149260
C21   C     C_R   0.458712 0.243594 0.782281 -0.148898
H5    H     H_    0.333280 0.243420 0.810943 0.151572
C22   C     C_R   0.606780 0.199287 0.787808 0.047932
C23   C     C_R   0.769529 0.200372 0.750159 0.147910
C24   C     C_R   0.780892 0.245789 0.706917 0.153087
C25   C     C_R   0.630127 0.290080 0.701941 0.045836
C26   C     C_R   0.470507 0.288596 0.739915 -0.153246
C27   C     C_1   0.589797 0.153210 0.832480 0.038032
C28   C     C_1   0.636891 0.337328 0.658112 0.034375
C29   C     C_1   0.643980 0.376472 0.621341 -0.144487
C30   C     C_1   0.577557 0.114688 0.869706 -0.145116
H6    H     H_    0.360336 0.327506 0.263082 0.142031
C31   C     C_R   0.453074 0.247116 0.209594 -0.134185
H7    H     H_    0.329354 0.248679 0.181505 0.128741
C32   C     C_R   0.595496 0.200994 0.200175 0.102226
C33   C     C_R   0.755224 0.198574 0.236184 -0.172856
H8    H     H_    0.864959 0.162470 0.228302 0.144122
C34   C     C_R   0.773317 0.242816 0.282510 0.170105
C35   C     C_R   0.629977 0.289188 0.291883 0.090797
C36   C     C_R   0.470716 0.291529 0.255619 -0.156449
C37   C     C_1   0.578777 0.155910 0.153308 -0.043823
C38   C     C_1   0.643278 0.334822 0.338490 0.008308
C39   C     C_1   0.651310 0.373760 0.377410 -0.146550
C40   C     C_1   0.568789 0.117362 0.114114 -0.187017
O11   O     O_R   0.726340 0.046440 0.933120 -0.529103
O12   O     O_R   0.395690 0.055650 0.048950 -0.538042
O13   O     O_R   0.225700 0.936320 0.049330 -0.533550
C41   C     C_R   0.562702 0.071040 0.068313 0.736339
O14   O     O_R   0.396600 0.053690 0.933450 -0.532312
O15   O     O_R   0.226620 0.934340 0.933010 -0.522455
C42   C     C_R   0.566028 0.068681 0.914159 0.728068
O16   O     O_R   0.725420 0.048420 0.049440 -0.534509
O17   O     O_3   0.559650 0.952270 0.991250 -0.367130
V3    V     V_3+5 0.284670 0.998570 0.991180 1.445428
O18   O     O_R   0.896930 0.926880 0.933340 -0.524870
C43   C     C_R   0.067605 0.909036 0.911108 0.708944
O19   O     O_R   0.896010 0.928840 0.048840 -0.536928
C44   C     C_R   0.064332 0.914225 0.068641 0.723221
V4    V     V_3+5 0.784710 0.983880 0.991060 1.441804
O20   O     O_3   0.059600 0.030370 0.991120 -0.359970
I1    I     I_    0.017424 0.237405 0.336540 -0.392240
O21   O     O_3   0.782566 0.719817 0.312457 -0.559280
C45   C     C_3   0.760438 0.765826 0.358809 0.084573
H9    H     H_    0.732542 0.813151 0.341727 0.125921
H10   H     H_    0.890641 0.767909 0.386617 0.120697
C46   C     C_3   0.589881 0.748831 0.397121 -0.689339
H11   H     H_    0.611462 0.701135 0.413789 0.226631
H12   H     H_    0.575055 0.783617 0.434834 0.180852
H13   H     H_    0.455691 0.749401 0.371594 0.219776
I2    I     I_    0.996413 0.133361 0.759623 -0.358352
I3    I     I_    0.023393 0.248260 0.648624 -0.328427

loop_
_geom_bond_atom_site_label_1
_geom_bond_atom_site_label_2
_ccdc_geom_bond_type
C35   C36   A    
C12   C17   S    
C24   C25   A    
C7    C8    T    
C1    O6    A    
C13   O21   S    
C1    C29   S    
C28   C29   T    
O11   V4    S    
O16   V4    S    
C12   C13   A    
C41   O16   A    
C14   H3    S    
C11   C12   A    
C10   C43   S    
O5    C3    A    
C15   C16   A    
C23   I2    S    
V2    O10   S    
O12   V3    S    
C6    C7    S    
O19   C44   A    
C2    C39   S    
O12   C41   A    
O8    V2    S    
O15   C43   A    
O14   C42   A    
C32   C37   S    
O7    V1    S    
C27   C30   T    
C34   I1    S    
O9    C4    A    
O19   V4    S    
C4    C5    S    
C30   C42   S    
C33   C34   A    
C5    C6    T    
C24   I3    S    
C32   C33   A    
C17   C20   T    
C11   H2    S    
C22   C23   A    
O4    C2    A    
O21   C45   S    
C37   C40   T    
C31   C32   A    
C38   C39   T    
C25   C28   S    
H1    C16   S    
C21   C26   A    
O2    C1    A    
V4    O20   S    
C21   H5    S    
O11   C42   A    
O13   V3    S    
C18   C19   T    
C3    C20   S    
O3    C4    A    
C19   C44   S    
O1    V2    S    
C23   C24   A    
C31   H7    S    
O6    V2    S    
C46   H12   S    
O9    V2    S    
V3    O20   S    
C25   C26   A    
C31   C36   A    
C33   H8    S    
C45   H10   S    
H6    C36   S    
C34   C35   A    
C15   C18   S    
O1    C2    A    
O5    V1    S    
C45   C46   S    
O8    C3    A    
C22   C27   S    
O13   C44   A    
C46   H13   S    
C40   C41   S    
C14   C15   A    
O7    V2    S    
C11   C16   A    
O4    V1    S    
C21   C22   A    
O3    V1    S    
V1    O10   S    
O18   V4    S    
O15   V3    S    
O17   V4    S    
O17   V3    S    
C45   H9    S    
O18   C43   A    
C8    C9    S    
C46   H11   S    
C35   C38   S    
C13   C14   A    
H4    C26   S    
C9    C10   T    
O14   V3    S    
O2    V1    S    
