data_mof_unit_17396.cif
_audit_creation_date              2012-12-11T14:33:09-0500
_audit_creation_method            fapswitch 2.2
_symmetry_space_group_name_H-M    P1
_symmetry_Int_Tables_number       1
_space_group_crystal_system       triclinic
_cell_length_a                    6.934854
_cell_length_b                    13.992898
_cell_length_c                    17.807087
_cell_angle_alpha                 113.24363
_cell_angle_beta                  95.645839
_cell_angle_gamma                 90.267212
_cell_volume                      1578.23553515

loop_
_atom_site_label
_atom_site_type_symbol
_atom_type_description
_atom_site_fract_x
_atom_site_fract_y
_atom_site_fract_z
_atom_type_partial_charge
O1    O     O_R   0.484560 0.544530 0.414330 -0.537069
O2    O     O_R   0.197040 0.638810 0.585080 -0.537076
O3    O     O_R   0.026800 0.455470 0.585670 -0.541053
C1    C     C_R   0.374242 0.680863 0.609086 0.694022
O4    O     O_R   0.155000 0.556150 0.414940 -0.542345
O5    O     O_R   0.984450 0.372220 0.414320 -0.527856
C2    C     C_R   0.317667 0.564926 0.386496 0.757112
O6    O     O_R   0.526900 0.627780 0.585680 -0.537252
O7    O     O_3   0.339170 0.439750 0.499990 -0.375174
V1    V     V_3+5 0.064350 0.511180 0.500000 1.377156
O8    O     O_R   0.654880 0.361190 0.414920 -0.545480
C3    C     C_R   0.818608 0.322589 0.388769 0.765104
O9    O     O_R   0.696930 0.443850 0.585060 -0.541653
C4    C     C_R   0.873607 0.431357 0.611355 0.679049
V2    V     V_3+5 0.564340 0.488820 0.500000 1.368701
O10   O     O_3   0.839390 0.560250 0.500010 -0.372679
C5    C     C_R   0.040819 0.865879 0.824812 -0.069478
C6    C     C_R   0.908513 0.396613 0.680029 -0.051919
C7    C     C_R   0.912573 0.830579 0.685211 -0.134020
C8    C     C_R   0.966244 0.795771 0.746869 -0.141325
C9    C     C_R   0.060820 0.972756 0.840498 -0.177526
C10   C     C_R   0.992440 0.012745 0.780377 0.092470
C11   C     C_R   0.924536 0.937061 0.700936 0.128955
C12   C     C_R   0.993130 0.122583 0.793664 -0.013803
C13   C     C_R   0.941495 0.149982 0.723870 0.058611
C14   C     C_R   0.881951 0.069699 0.646816 -0.162854
C15   C     C_R   0.870842 0.966560 0.636227 -0.212319
C16   C     C_R   0.041670 0.206990 0.872114 -0.002665
C17   C     C_R   0.059797 0.309166 0.877861 -0.262310
C18   C     C_R   0.014571 0.334870 0.810566 0.090163
C19   C     C_R   0.949380 0.256973 0.732722 0.100191
C20   C     C_R   0.030191 0.439877 0.822031 -0.114429
C21   C     C_R   0.978873 0.470232 0.757526 -0.141343
C22   C     C_R   0.895904 0.290408 0.667249 -0.203633
H1    H     H_    0.820900 0.908463 0.575644 0.115004
H2    H     H_    0.845818 0.236828 0.605705 0.089212
H3    H     H_    0.995082 0.551741 0.768114 0.090219
H4    H     H_    0.101720 0.371454 0.937571 0.143151
H5    H     H_    0.858605 0.773683 0.624758 0.132839
H6    H     H_    0.950278 0.713474 0.733563 0.096276
H7    H     H_    0.137241 0.020223 0.898876 0.126500
H8    H     H_    0.840412 0.083740 0.592419 0.120283
H9    H     H_    0.082646 0.499169 0.881590 0.141379
H10   H     H_    0.835732 0.029285 0.198364 0.136675
C23   C     C_2   0.137736 0.032377 0.189421 -0.341911
C24   C     C_2   0.976143 0.068565 0.226330 -0.127423
H11   H     H_    0.686029 0.190656 0.279406 0.101738
C25   C     C_2   0.818804 0.218439 0.320946 -0.345336
C26   C     C_2   0.980400 0.161823 0.304484 0.178012
H12   H     H_    0.277490 0.073610 0.214857 0.134020
C27   C     C_R   0.410221 0.789802 0.676765 -0.063599
C28   C     C_R   0.536411 0.469522 0.823999 -0.052269
C29   C     C_R   0.524266 0.899734 0.819758 -0.118045
C30   C     C_R   0.482627 0.801852 0.756911 0.142830
C31   C     C_R   0.393215 0.882247 0.661501 -0.248640
C32   C     C_R   0.441965 0.984249 0.725951 0.098625
C33   C     C_R   0.501993 0.989627 0.805680 0.047789
C34   C     C_R   0.435030 0.081251 0.715458 0.078318
C35   C     C_R   0.486218 0.179301 0.784721 0.027222
C36   C     C_R   0.532739 0.177614 0.862542 -0.140307
C37   C     C_R   0.539093 0.084752 0.872546 -0.148608
C38   C     C_R   0.380309 0.083652 0.638259 -0.174078
C39   C     C_R   0.375054 0.177019 0.628389 -0.221231
C40   C     C_R   0.426916 0.271677 0.694552 0.125495
C41   C     C_R   0.486477 0.276000 0.774144 0.097512
C42   C     C_R   0.417940 0.362543 0.680802 -0.131707
C43   C     C_R   0.469879 0.458352 0.743898 -0.152700
C44   C     C_R   0.542787 0.376927 0.838866 -0.202451
H13   H     H_    0.574485 0.087364 0.934006 0.170875
H14   H     H_    0.590631 0.386222 0.900863 0.100208
H15   H     H_    0.454805 0.522079 0.726935 0.118325
H16   H     H_    0.329999 0.175066 0.567708 0.115475
H17   H     H_    0.575031 0.906152 0.881254 0.138624
H18   H     H_    0.344279 0.872238 0.599402 0.099794
H19   H     H_    0.564584 0.247251 0.917499 0.158062
H20   H     H_    0.339674 0.014164 0.584027 0.121230
H21   H     H_    0.368836 0.359773 0.620260 0.140584
H22   H     H_    0.333733 0.667046 0.194582 0.153615
H23   H     H_    0.615282 0.590692 0.307803 0.154534
C45   C     C_2   0.314167 0.602081 0.318881 -0.345108
C46   C     C_2   0.476595 0.610762 0.285211 -0.123948
H24   H     H_    0.773311 0.636150 0.206662 0.127476
C47   C     C_2   0.634899 0.655910 0.183591 -0.343068
C48   C     C_2   0.472465 0.647038 0.217190 -0.122316
H25   H     H_    0.175815 0.621903 0.295808 0.126655
O11   O     O_R   0.421600 0.630430 0.917010 -0.538549
O12   O     O_R   0.793840 0.702190 0.087630 -0.542886
O13   O     O_R   0.964010 0.886170 0.088190 -0.533601
C49   C     C_R   0.631250 0.693239 0.116067 0.759001
O14   O     O_R   0.751460 0.619510 0.917500 -0.539836
O15   O     O_R   0.921330 0.802900 0.916840 -0.541588
C50   C     C_R   0.573791 0.577926 0.892059 0.673091
O16   O     O_R   0.464290 0.713700 0.088350 -0.537388
O17   O     O_3   0.609200 0.818520 0.002630 -0.375881
V3    V     V_3+5 0.884140 0.747190 0.002530 1.378963
O18   O     O_R   0.251150 0.814630 0.917340 -0.542637
C51   C     C_R   0.074781 0.827395 0.891351 0.706014
O19   O     O_R   0.293530 0.897310 0.087470 -0.543045
C52   C     C_R   0.131743 0.933213 0.116777 0.768690
V4    V     V_3+5 0.384070 0.769710 0.002370 1.372742
O20   O     O_3   0.109180 0.698190 0.002460 -0.374914
C53   C     C_3   0.161563 0.187102 0.365423 -0.678652
H26   H     H_    0.248443 0.117352 0.354501 0.175736
H27   H     H_    0.253580 0.248457 0.359659 0.217661
H28   H     H_    0.122855 0.212430 0.429314 0.181464
C54   C     C_3   0.511856 0.711063 0.778246 -0.752927
H29   H     H_    0.612776 0.659163 0.737734 0.181797
H30   H     H_    0.578948 0.733830 0.842009 0.240214
H31   H     H_    0.365914 0.674608 0.772687 0.182233
C55   C     C_2   0.060210 0.198589 0.952657 0.711276
O21   O     O_2   0.927862 0.158815 0.972525 -0.579488
O22   O     O_R   0.226126 0.241344 0.007854 -0.672542
H32   H     H_    0.221767 0.231801 0.061228 0.292969

loop_
_geom_bond_atom_site_label_1
_geom_bond_atom_site_label_2
_ccdc_geom_bond_type
C34   C38   A    
C31   C32   A    
C13   C19   A    
C4    C6    S    
O2    C1    A    
C7    C8    A    
C1    O6    A    
O14   V3    S    
C23   C24   D    
C24   C26   S    
C14   C15   A    
C17   C18   A    
C16   C17   A    
O5    C3    A    
C18   C19   A    
C8    H6    S    
C54   H29   S    
V2    O10   S    
C5    C8    A    
C32   C33   A    
C53   H28   S    
C55   O21   D    
C31   H18   S    
O8    V2    S    
H11   C25   S    
O12   V3    S    
C17   H4    S    
O1    V2    S    
C11   C15   A    
O11   V4    S    
O7    V1    S    
C43   H15   S    
C28   C44   A    
C3    C25   S    
C42   C43   A    
O13   V3    S    
C35   C36   A    
O9    C4    A    
C49   O16   A    
C38   H20   S    
O17   V3    S    
O22   H32   S    
H10   C24   S    
C47   C49   S    
C30   C54   S    
C1    C27   S    
C12   C13   A    
C23   C52   S    
C26   C53   S    
O4    C2    A    
C29   C33   A    
C27   C31   A    
C15   H1    S    
C34   C35   A    
C29   C30   A    
C21   H3    S    
C36   C37   A    
C40   C42   A    
C7    C11   A    
C45   H25   S    
O14   C50   A    
C47   C48   D    
O17   V4    S    
C41   C44   A    
O18   C51   A    
C38   C39   A    
C19   C22   A    
O15   C51   A    
C53   H27   S    
C6    C22   A    
O16   V4    S    
C28   C43   A    
C7    H5    S    
C9    H7    S    
C25   C26   D    
O19   C52   A    
O6    V2    S    
O19   V4    S    
O12   C49   A    
C10   C12   A    
C28   C50   S    
O2    V1    S    
C46   C48   S    
C14   H8    S    
H23   C46   S    
C37   H13   S    
C42   H21   S    
O1    C2    A    
C29   H17   S    
C12   C16   A    
C45   C46   D    
O5    V1    S    
O8    C3    A    
C33   C37   A    
O3    C4    A    
C36   H19   S    
C27   C30   A    
C16   C55   S    
C20   C21   A    
O9    V2    S    
C13   C14   A    
O4    V1    S    
O3    V1    S    
O11   C50   A    
C35   C41   A    
C18   C20   A    
C54   H30   S    
C23   H12   S    
O18   V4    S    
C40   C41   A    
V4    O20   S    
C20   H9    S    
C32   C34   A    
C22   H2    S    
O7    V2    S    
C53   H26   S    
C6    C21   A    
C55   O22   S    
O13   C52   A    
O15   V3    S    
C39   C40   A    
H22   C48   S    
C39   H16   S    
C44   H14   S    
H24   C47   S    
C10   C11   A    
V1    O10   S    
C9    C10   A    
C5    C51   S    
V3    O20   S    
C2    C45   S    
C54   H31   S    
C5    C9    A    
