data_mof_unit_16681.cif
_audit_creation_date              2013-03-05T15:56:46-0500
_audit_creation_method            fapswitch 2.2
_symmetry_space_group_name_H-M    P1
_symmetry_Int_Tables_number       1
_space_group_crystal_system       triclinic
_cell_length_a                    21.313425
_cell_length_b                    21.300075
_cell_length_c                    13.729397
_cell_angle_alpha                 90.540327
_cell_angle_beta                  89.927259
_cell_angle_gamma                 90.218194
_cell_volume                      6232.51093645

loop_
_atom_site_label
_atom_site_type_symbol
_atom_site_description
_atom_site_fract_x
_atom_site_fract_y
_atom_site_fract_z
_atom_type_partial_charge
O1    O     O_R   0.064880 0.435140 0.582280 -0.577286
O2    O     O_R   0.935120 0.564860 0.417720 -0.593792
O3    O     O_R   0.935120 0.564860 0.582280 -0.567002
O4    O     O_R   0.064880 0.435140 0.417720 -0.576870
O5    O     O_R   0.935120 0.435140 0.417720 -0.584546
O6    O     O_R   0.064880 0.564860 0.582280 -0.606987
O7    O     O_R   0.064880 0.564860 0.417720 -0.577605
O8    O     O_R   0.935120 0.435140 0.582280 -0.570755
O9    O     O_R   0.564880 0.935140 0.582280 -0.577304
O10   O     O_R   0.435120 0.064860 0.417720 -0.595024
O11   O     O_R   0.435120 0.064860 0.582280 -0.567376
O12   O     O_R   0.564880 0.935140 0.417720 -0.578194
O13   O     O_R   0.435120 0.935140 0.417720 -0.583825
O14   O     O_R   0.564880 0.064860 0.582280 -0.607361
O15   O     O_R   0.564880 0.064860 0.417720 -0.577673
O16   O     O_R   0.435120 0.935140 0.582280 -0.570971
C1    C     C_R   0.087316 0.416199 0.499518 0.769354
C2    C     C_R   0.912928 0.584071 0.500431 0.827345
C3    C     C_R   0.913284 0.415692 0.499850 0.813603
C4    C     C_R   0.086318 0.584630 0.500299 0.765168
C5    C     C_R   0.587301 0.916189 0.499556 0.770196
C6    C     C_R   0.412964 0.084101 0.500431 0.828170
C7    C     C_R   0.413290 0.915683 0.499852 0.814017
C8    C     C_R   0.586310 0.084638 0.500301 0.766329
Cu1   Cu    Cu3+1 0.000000 0.500000 0.597420 0.962309
Cu2   Cu    Cu3+1 0.000000 0.500000 0.402580 0.972976
Cu3   Cu    Cu3+1 0.500000 1.000000 0.597420 0.962272
Cu4   Cu    Cu3+1 0.500000 0.000000 0.402580 0.971707
C9    C     C_R   0.121160 0.690555 0.464881 -0.168582
C10   C     C_R   0.874262 0.313465 0.547388 -0.195985
C11   C     C_R   0.866417 0.678686 0.434207 -0.220616
C12   C     C_R   0.135200 0.322831 0.567291 -0.181445
C13   C     C_R   0.621219 0.190499 0.464594 -0.168537
C14   C     C_R   0.374285 0.813435 0.547369 -0.193978
C15   C     C_R   0.366427 0.178590 0.433982 -0.222659
C16   C     C_R   0.634907 0.822691 0.567417 -0.178737
C17   C     C_R   0.135524 0.631775 0.501628 -0.123747
C18   C     C_R   0.862758 0.369727 0.500297 -0.116539
C19   C     C_R   0.862481 0.630305 0.501362 -0.104451
C20   C     C_R   0.137932 0.370119 0.498342 -0.142331
C21   C     C_R   0.635517 0.131784 0.501633 -0.125816
C22   C     C_R   0.362767 0.869711 0.500312 -0.116749
C23   C     C_R   0.362528 0.130329 0.501292 -0.106247
C24   C     C_R   0.637972 0.870199 0.498725 -0.137736
C25   C     C_R   0.195513 0.618586 0.539252 -0.074072
C26   C     C_R   0.804414 0.381516 0.455448 -0.038521
C27   C     C_R   0.812883 0.628210 0.570023 -0.089936
C28   C     C_R   0.186385 0.371310 0.427743 -0.044321
C29   C     C_R   0.695444 0.118652 0.539529 -0.067522
C30   C     C_R   0.304402 0.881514 0.455541 -0.037436
C31   C     C_R   0.312838 0.128202 0.569716 -0.090078
C32   C     C_R   0.687092 0.871895 0.429269 -0.056868
C33   C     C_R   0.240404 0.667941 0.546281 0.006549
C34   C     C_R   0.755989 0.335463 0.462288 -0.004147
C35   C     C_R   0.766407 0.675963 0.569311 -0.047631
C36   C     C_R   0.233660 0.324217 0.429153 0.009297
C37   C     C_R   0.740368 0.167986 0.546418 0.005990
C38   C     C_R   0.255959 0.835490 0.462498 -0.003525
C39   C     C_R   0.266242 0.175834 0.568602 -0.047834
C40   C     C_R   0.734723 0.825288 0.432174 -0.007307
C41   C     C_R   0.225581 0.727377 0.505451 -0.018897
C42   C     C_R   0.770379 0.276359 0.504723 -0.016884
C43   C     C_R   0.772742 0.726084 0.501773 0.009635
C44   C     C_R   0.228062 0.274748 0.498131 -0.016410
C45   C     C_R   0.725594 0.227370 0.505364 -0.020418
C46   C     C_R   0.270370 0.776361 0.504824 -0.017305
C47   C     C_R   0.272205 0.225556 0.500184 0.009443
C48   C     C_R   0.728585 0.775321 0.500001 -0.013516
C49   C     C_R   0.165750 0.738155 0.465682 0.064778
C50   C     C_R   0.829360 0.266275 0.547807 0.067881
C51   C     C_R   0.823037 0.726969 0.435240 0.063983
C52   C     C_R   0.178569 0.274632 0.566176 0.059884
C53   C     C_R   0.665808 0.238097 0.465395 0.063530
C54   C     C_R   0.329379 0.766245 0.547797 0.066841
C55   C     C_R   0.322544 0.226439 0.433922 0.077027
C56   C     C_R   0.678512 0.774668 0.566894 0.060286
C57   C     C_R   0.298467 0.661291 0.595784 0.515694
C58   C     C_R   0.693180 0.346413 0.432127 0.523118
C59   C     C_R   0.713047 0.675185 0.631800 0.456424
C60   C     C_R   0.286354 0.324890 0.365253 0.496619
C61   C     C_R   0.798418 0.161371 0.595981 0.512039
C62   C     C_R   0.193117 0.846496 0.432554 0.525490
C63   C     C_R   0.213213 0.175391 0.631724 0.455750
C64   C     C_R   0.789050 0.827156 0.371986 0.502768
C65   C     C_R   0.842665 0.209642 0.593343 -0.294511
C66   C     C_R   0.149891 0.797242 0.430814 -0.279493
C67   C     C_R   0.171756 0.225722 0.631972 -0.256843
C68   C     C_R   0.830813 0.776994 0.371616 -0.284841
C69   C     C_R   0.342704 0.709577 0.593229 -0.289000
C70   C     C_R   0.649983 0.297138 0.430324 -0.277593
C71   C     C_R   0.671423 0.725416 0.632015 -0.253088
C72   C     C_R   0.330040 0.275999 0.369412 -0.305315
H1    H     H_    0.074590 0.699215 0.436088 0.133388
H2    H     H_    0.919481 0.305860 0.581599 0.136203
H3    H     H_    0.905286 0.680014 0.383059 0.151869
H4    H     H_    0.097137 0.322151 0.619917 0.152523
H5    H     H_    0.574691 0.199118 0.435611 0.134828
H6    H     H_    0.419520 0.805815 0.581519 0.136740
H7    H     H_    0.405406 0.179915 0.383042 0.150817
H8    H     H_    0.596403 0.821674 0.619248 0.152258
H9    H     H_    0.887425 0.202950 0.629211 0.163169
H10   H     H_    0.102822 0.806117 0.404482 0.164326
H11   H     H_    0.132948 0.225600 0.683181 0.162653
H12   H     H_    0.870685 0.778245 0.322486 0.167138
H13   H     H_    0.387475 0.702863 0.629051 0.164253
H14   H     H_    0.602947 0.305971 0.403817 0.167645
H15   H     H_    0.632220 0.724877 0.682466 0.164211
H16   H     H_    0.371371 0.277464 0.323503 0.153060
C73   C     C_R   0.054013 0.512879 0.792946 0.058456
C74   C     C_R   0.946586 0.485362 0.206686 0.066365
C75   C     C_R   0.946375 0.485952 0.792960 0.035233
C76   C     C_R   0.054087 0.512643 0.207250 0.095476
C77   C     C_R   0.553960 0.013084 0.792956 0.058202
C78   C     C_R   0.446601 0.985293 0.206690 0.065017
C79   C     C_R   0.446396 0.985861 0.792956 0.035321
C80   C     C_R   0.554042 0.012819 0.207243 0.091054
N1    N     N_R   0.000000 0.500000 0.743810 -0.216700
N2    N     N_R   0.000000 0.500000 0.256190 -0.221989
N3    N     N_R   0.500000 0.000000 0.743810 -0.216503
N4    N     N_R   0.500000 1.000000 0.256190 -0.221701
C81   C     C_R   0.944645 0.484944 0.896227 -0.020398
C82   C     C_R   0.055965 0.514149 0.103887 -0.017128
C83   C     C_R   0.056498 0.511738 0.896246 -0.016669
C84   C     C_R   0.945707 0.481971 0.103458 -0.011433
C85   C     C_R   0.444647 0.984916 0.896224 -0.020497
C86   C     C_R   0.555867 0.014477 0.103890 -0.016200
C87   C     C_R   0.556419 0.012048 0.896259 -0.017187
C88   C     C_R   0.445710 0.981947 0.103458 -0.011975
C89   C     C_R   0.000609 0.498506 0.948186 0.034573
C90   C     C_R   0.000723 0.498450 0.051690 0.029313
C91   C     C_R   0.500568 0.998643 0.948189 0.034653
C92   C     C_R   0.500678 0.998588 0.051692 0.029412
C93   C     C_R   0.889510 0.468033 0.948291 -0.062390
C94   C     C_R   0.111856 0.528548 0.051907 -0.063171
C95   C     C_R   0.112746 0.524758 0.948453 -0.046301
C96   C     C_R   0.891136 0.463526 0.051288 -0.089725
C97   C     C_R   0.389531 0.967937 0.948284 -0.062655
C98   C     C_R   0.611664 0.029238 0.051918 -0.060504
C99   C     C_R   0.612591 0.025388 0.948471 -0.046078
C100  C     C_R   0.391162 0.963427 0.051284 -0.090757
H17   H     H_    0.094840 0.524589 0.750372 0.170343
H18   H     H_    0.904609 0.476740 0.248614 0.176155
H19   H     H_    0.905331 0.474758 0.750428 0.202995
H20   H     H_    0.095749 0.520696 0.250034 0.182554
H21   H     H_    0.594760 0.024890 0.750390 0.169345
H22   H     H_    0.404648 0.976580 0.248624 0.175869
H23   H     H_    0.405383 0.974552 0.750422 0.202903
H24   H     H_    0.595715 0.020889 0.250000 0.181021
C101  C     C_2   0.210951 0.552289 0.562044 0.425591
H25   H     H_    0.178926 0.523999 0.604779 0.075693
O17   O     O_2   0.258004 0.527754 0.528368 -0.484133
C102  C     C_2   0.796749 0.441258 0.401430 0.488528
H26   H     H_    0.815494 0.484753 0.431184 0.060158
O18   O     O_2   0.773015 0.441854 0.320646 -0.473228
C103  C     C_2   0.811087 0.577080 0.642597 0.468055
H27   H     H_    0.809068 0.588470 0.719682 0.157036
O19   O     O_2   0.811176 0.522118 0.616605 -0.579054
C104  C     C_2   0.185483 0.421431 0.353467 0.523087
H28   H     H_    0.186515 0.470382 0.376018 0.070528
O20   O     O_2   0.179150 0.408218 0.267317 -0.551011
C105  C     C_2   0.710796 0.052410 0.562740 0.420349
H29   H     H_    0.678744 0.024251 0.605625 0.080465
O21   O     O_2   0.757830 0.027764 0.529241 -0.525949
C106  C     C_2   0.296737 0.941217 0.401417 0.488223
H30   H     H_    0.315570 0.984718 0.431012 0.059455
O22   O     O_2   0.272890 0.941763 0.320708 -0.475044
C107  C     C_2   0.311088 0.077134 0.642389 0.469008
H31   H     H_    0.309534 0.088573 0.719487 0.155248
O23   O     O_2   0.310790 0.022158 0.616441 -0.579149
C108  C     C_2   0.686597 0.921855 0.354591 0.505681
H32   H     H_    0.683292 0.970768 0.376777 0.056115
O24   O     O_2   0.685826 0.908368 0.267958 -0.500734
O25   O     O_3   0.312814 0.608369 0.648585 -0.530368
C109  C     C_3   0.294409 0.618665 0.746115 -0.274294
H33   H     H_    0.243115 0.627808 0.751796 0.142476
H34   H     H_    0.321463 0.657947 0.780019 0.148139
H35   H     H_    0.304486 0.575667 0.788171 0.222472
O26   O     O_3   0.672142 0.405118 0.405993 -0.528583
C110  C     C_3   0.648944 0.435759 0.490042 -0.316328
H36   H     H_    0.686502 0.442688 0.545463 0.167066
H37   H     H_    0.608595 0.409758 0.522053 0.159967
H38   H     H_    0.631793 0.482803 0.469002 0.198345
O27   O     O_3   0.701147 0.626465 0.695039 -0.584130
C111  C     C_3   0.657075 0.585504 0.651253 -0.274422
H39   H     H_    0.673643 0.568369 0.578825 0.155786
H40   H     H_    0.610475 0.608366 0.644249 0.159441
H41   H     H_    0.651114 0.543918 0.698453 0.207011
O28   O     O_3   0.299253 0.377033 0.308482 -0.558093
C112  C     C_3   0.309232 0.359392 0.210148 -0.200524
H42   H     H_    0.276545 0.321555 0.185234 0.161179
H43   H     H_    0.358751 0.345272 0.198200 0.143429
H44   H     H_    0.300522 0.400874 0.163874 0.201921
O29   O     O_3   0.812749 0.108494 0.648896 -0.534752
C113  C     C_3   0.794509 0.118948 0.746460 -0.274306
H45   H     H_    0.743252 0.128262 0.752283 0.143417
H46   H     H_    0.821732 0.158178 0.780176 0.147929
H47   H     H_    0.804510 0.075963 0.788590 0.222638
O30   O     O_3   0.172079 0.905233 0.406580 -0.529415
C114  C     C_3   0.149131 0.935891 0.490784 -0.327500
H48   H     H_    0.186827 0.942741 0.546003 0.171003
H49   H     H_    0.108811 0.909947 0.522993 0.156411
H50   H     H_    0.132020 0.982976 0.469883 0.195910
O31   O     O_3   0.201785 0.127163 0.696071 -0.585570
C115  C     C_3   0.156883 0.086223 0.654320 -0.279933
H51   H     H_    0.172310 0.068634 0.581528 0.155464
H52   H     H_    0.110307 0.109292 0.648729 0.157578
H53   H     H_    0.151412 0.044913 0.702223 0.207523
O32   O     O_3   0.802284 0.877376 0.312320 -0.544222
C116  C     C_3   0.844635 0.917724 0.361264 -0.267130
H54   H     H_    0.891021 0.894872 0.371168 0.151317
H55   H     H_    0.825604 0.933656 0.432877 0.190948
H56   H     H_    0.852073 0.960066 0.316207 0.210687
C117  C     C_2   0.830244 0.451833 0.896571 0.306445
H57   H     H_    0.804959 0.409192 0.914728 0.086410
O33   O     O_2   0.807515 0.487540 0.837415 -0.531344
C118  C     C_2   0.170554 0.546273 0.104243 0.345910
H58   H     H_    0.214861 0.525217 0.083031 0.093452
O34   O     O_2   0.170377 0.586738 0.167832 -0.533511
C119  C     C_2   0.173079 0.535661 0.896431 0.267718
H59   H     H_    0.203353 0.574362 0.918255 0.070055
O35   O     O_2   0.190952 0.499618 0.832612 -0.546365
C120  C     C_2   0.835674 0.437667 0.103034 0.359203
H60   H     H_    0.788892 0.454076 0.085732 0.104503
O36   O     O_2   0.841802 0.395193 0.161308 -0.493236
C121  C     C_2   0.330274 0.951708 0.896555 0.304584
H61   H     H_    0.304986 0.909076 0.914748 0.087641
O37   O     O_2   0.307557 0.987384 0.837340 -0.533173
C122  C     C_2   0.670198 0.047533 0.104253 0.345137
H62   H     H_    0.714732 0.027029 0.082897 0.106767
O38   O     O_2   0.669607 0.087879 0.168016 -0.538505
C123  C     C_2   0.672862 0.036601 0.896448 0.275739
H63   H     H_    0.702868 0.075547 0.918116 0.066510
O39   O     O_2   0.690988 0.000561 0.832801 -0.542857
C124  C     C_2   0.335717 0.937526 0.103029 0.358564
H64   H     H_    0.288921 0.953883 0.085695 0.102163
O40   O     O_2   0.341873 0.895080 0.161347 -0.491023

loop_
_geom_bond_atom_site_label_1
_geom_bond_atom_site_label_2
_geom_bond_distance
_ccdc_geom_bond_type
C68   H12   1.084695 S    
C113  H46   1.113045 S    
O31   C115  1.410842 S    
C8    C21   1.449262 S    
C116  H54   1.112682 S    
O5    Cu2   1.963194 S    
C103  O19   1.220646 D    
C31   C107  1.483285 S    
C14   C22   1.389875 A    
C2    C19   1.460752 S    
C23   C31   1.415650 A    
C74   N2    1.360323 A    
C122  O38   1.221039 D    
C105  H29   1.084248 S    
C45   C53   1.408332 A    
C107  O23   1.220761 D    
C41   C49   1.408323 A    
O25   C109  1.410228 S    
O10   C6    1.292992 A    
C10   C18   1.389788 A    
C35   C59   1.423860 A    
C105  O21   1.220786 D    
C7    C22   1.452749 S    
C87   C99   1.422567 A    
O12   Cu4   1.970961 S    
C54   C69   1.394242 A    
C27   C35   1.422594 A    
C106  H30   1.084080 S    
C118  O34   1.221021 D    
C53   C70   1.393627 A    
C62   O30   1.380794 S    
C38   C62   1.422509 A    
C99   C123  1.488598 S    
C113  H47   1.109103 S    
C75   C81   1.418586 A    
C26   C102  1.488525 S    
O14   C8    1.288048 A    
C46   C54   1.408077 A    
C114  H50   1.108913 S    
C79   H23   1.077123 S    
C116  H56   1.109222 S    
C94   C118  1.489154 S    
C111  H39   1.113540 S    
O13   C7    1.290642 A    
O3    C2    1.290528 A    
C20   C28   1.415746 A    
O6    Cu1   1.963191 S    
C77   H21   1.077394 S    
C112  H43   1.110110 S    
C64   O32   1.381487 S    
C109  H33   1.113699 S    
C82   C94   1.421820 A    
C97   C121  1.487709 S    
C16   C56   1.384624 A    
C39   C47   1.427452 A    
C77   N3    1.360733 A    
C33   C41   1.426052 A    
C41   C46   1.411568 A    
C74   H18   1.079327 S    
C11   C19   1.391467 A    
O32   C116  1.410549 S    
C35   C43   1.426543 A    
C93   C96   1.418716 A    
C36   C44   1.427928 A    
O13   Cu4   1.963194 S    
O30   C114  1.410271 S    
O11   Cu3   1.970961 S    
O14   Cu3   1.963191 S    
C15   C23   1.390944 A    
C59   C71   1.392458 A    
C75   H19   1.077118 S    
C110  H38   1.108904 S    
C74   C84   1.418569 A    
C24   C32   1.415792 A    
O16   Cu3   1.960806 S    
C12   C20   1.389751 A    
C113  H45   1.113700 S    
C110  H37   1.113305 S    
C25   C33   1.421470 A    
C114  H48   1.113607 S    
C80   C86   1.420224 A    
C83   C89   1.416306 A    
C104  O20   1.220764 D    
O8    Cu1   1.960806 S    
C42   C50   1.408065 A    
C120  H60   1.085182 S    
C124  O40   1.220850 D    
C15   H7    1.085732 S    
C88   C92   1.415190 A    
C21   C29   1.409788 A    
C122  H62   1.085208 S    
C10   C50   1.385278 A    
C38   C46   1.426693 A    
C61   C65   1.393218 A    
O26   C110  1.410244 S    
C9    C49   1.386979 A    
C117  O33   1.219927 D    
C121  O37   1.219960 D    
C97   C100  1.418760 A    
O8    C3    1.288407 A    
C77   C87   1.419692 A    
C84   C96   1.418983 A    
C30   C106  1.488527 S    
C30   C38   1.424764 A    
C44   C47   1.411370 A    
C71   H15   1.084754 S    
O3    Cu1   1.970961 S    
C118  H58   1.085266 S    
C78   H22   1.079303 S    
C25   C101  1.487440 S    
C63   O31   1.381922 S    
Cu4   N4    2.009846 S    
C32   C108  1.484740 S    
C107  H31   1.084446 S    
C80   H24   1.077648 S    
C9    H1    1.085928 S    
C73   C83   1.419735 A    
C34   C42   1.426751 A    
C85   C97   1.421672 A    
Cu1   Cu2   2.675034 S    
C117  H57   1.085210 S    
C28   C104  1.483482 S    
O12   C5    1.290376 A    
C58   C70   1.393579 A    
C110  H36   1.113592 S    
C83   C95   1.422604 A    
O28   C112  1.413996 S    
C1    C20   1.461225 S    
C64   C68   1.393224 A    
C60   C72   1.401191 A    
C112  H44   1.109467 S    
C120  O36   1.220846 D    
O27   C111  1.410749 S    
C76   C82   1.420278 A    
C39   C63   1.423436 A    
C3    C18   1.452704 S    
C119  O35   1.221018 D    
C5    C24   1.460771 S    
C78   C88   1.418580 A    
C85   C91   1.417957 A    
C111  H40   1.112494 S    
C6    C23   1.460496 S    
C115  H53   1.109201 S    
C86   C92   1.416434 A    
C36   C60   1.424366 A    
C95   C119  1.488671 S    
C26   C34   1.424806 A    
Cu3   Cu4   2.675034 S    
C121  H61   1.085207 S    
C60   O28   1.389274 S    
C84   C90   1.415174 A    
O2    Cu2   1.967840 S    
C76   H20   1.077598 S    
C115  H51   1.113688 S    
C98   C122  1.489233 S    
O7    Cu2   1.960803 S    
C109  H35   1.109108 S    
C70   H14   1.084657 S    
C43   C51   1.407668 A    
C55   C72   1.392944 A    
C22   C30   1.412705 A    
C67   H11   1.084888 S    
O4    C1    1.289962 A    
C13   C53   1.386938 A    
O15   C8    1.289344 A    
C12   H4    1.085826 S    
C96   C120  1.485165 S    
C115  H52   1.112392 S    
O29   C113  1.410203 S    
O16   C7    1.288401 A    
C79   N3    1.360327 A    
C123  O39   1.221020 D    
C104  H28   1.085015 S    
C9    C17   1.389624 A    
C37   C61   1.420891 A    
C15   C55   1.385936 A    
C31   C39   1.422628 A    
C124  H64   1.085178 S    
C17   C25   1.409826 A    
C91   C92   1.421040 A    
C66   H10   1.084670 S    
C123  H63   1.085095 S    
C52   C67   1.392369 A    
C65   H9    1.084646 S    
O9    Cu3   1.967840 S    
C19   C27   1.416329 A    
C89   C90   1.421066 A    
C102  O18   1.219809 D    
O10   Cu4   1.967840 S    
C28   C36   1.424752 A    
C43   C48   1.412183 A    
C86   C98   1.421788 A    
C57   O25   1.381409 S    
C42   C45   1.411590 A    
C73   H17   1.077440 S    
C58   O26   1.380752 S    
C57   C69   1.393267 A    
C29   C105  1.487171 S    
C100  C124  1.485216 S    
Cu2   N2    2.009846 S    
C81   C89   1.417987 A    
O2    C2    1.293070 A    
Cu1   N1    2.009846 S    
C63   C67   1.391824 A    
C29   C37   1.421490 A    
O4    Cu2   1.970961 S    
C73   N1    1.360771 A    
O1    Cu1   1.967840 S    
C94   C95   1.421994 A    
O5    C3    1.290607 A    
Cu3   N3    2.009846 S    
C48   C56   1.407208 A    
O6    C4    1.288069 A    
O11   C6    1.290443 A    
O1    C1    1.293830 A    
C79   C85   1.418585 A    
C111  H41   1.109260 S    
C75   N1    1.360312 A    
C93   C117  1.487672 S    
C14   H6    1.086031 S    
C87   C91   1.416311 A    
C119  H59   1.085102 S    
C16   H8    1.085814 S    
C88   C100  1.419038 A    
C13   C21   1.389538 A    
C10   H2    1.086039 S    
C62   C66   1.393623 A    
C101  H25   1.084303 S    
C76   N2    1.360879 A    
C4    C17   1.449248 S    
C40   C64   1.422315 A    
O9    C5    1.293320 A    
O15   Cu4   1.960803 S    
C27   C103  1.483372 S    
C11   H3    1.085791 S    
C37   C45   1.426068 A    
C106  O22   1.219852 D    
C116  H55   1.113612 S    
C34   C58   1.422504 A    
C59   O27   1.381843 S    
C50   C65   1.394164 A    
C13   H5    1.085931 S    
C44   C52   1.408202 A    
C112  H42   1.114917 S    
C109  H34   1.113059 S    
C18   C26   1.412697 A    
C16   C24   1.391065 A    
C98   C99   1.421969 A    
C56   C71   1.392444 A    
C61   O29   1.381394 S    
C51   C68   1.393461 A    
C101  O17   1.221021 D    
C80   N4    1.360863 A    
C47   C55   1.405972 A    
C102  H26   1.084084 S    
C40   C48   1.426311 A    
C32   C40   1.423467 A    
O7    C4    1.289331 A    
C108  H32   1.085212 S    
C69   H13   1.084642 S    
C103  H27   1.084390 S    
C114  H49   1.113302 S    
C14   C54   1.385346 A    
C108  O24   1.221103 D    
C81   C93   1.421668 A    
C33   C57   1.420815 A    
C72   H16   1.083049 S    
C82   C90   1.416440 A    
C78   N4    1.360346 A    
C49   C66   1.393707 A    
C11   C51   1.385514 A    
C12   C52   1.384026 A    
