data_mof_unit_6958.cif
_audit_creation_date              2012-10-26T19:59:15-0400
_audit_creation_method            fapswitch 2.2
_symmetry_space_group_name_H-M    P1
_symmetry_Int_Tables_number       1
_space_group_crystal_system       triclinic
_cell_length_a                    7.70161
_cell_length_b                    8.812925
_cell_length_c                    15.966771
_cell_angle_alpha                 105.487125
_cell_angle_beta                  77.368115
_cell_angle_gamma                 104.327939
_cell_volume                      998.282888823

loop_
_atom_site_label
_atom_site_type_symbol
_atom_type_description
_atom_site_fract_x
_atom_site_fract_y
_atom_site_fract_z
_atom_type_partial_charge
C1    C     C_R   0.546619 0.800489 0.502639 0.520408
C2    C     C_R   0.610178 0.512060 0.335554 0.520742
C3    C     C_R   0.327884 0.469148 0.755361 0.006347
C4    C     C_R   0.672145 0.530450 0.244565 0.006305
C5    C     C_R   0.093268 0.371060 0.867065 -0.146993
C6    C     C_R   0.907156 0.627212 0.132593 -0.147016
C7    C     C_R   0.146334 0.402761 0.783527 -0.127139
C8    C     C_R   0.853897 0.596063 0.216249 -0.127198
C9    C     C_R   0.453907 0.509419 0.812671 -0.141934
C10   C     C_R   0.546084 0.490372 0.187283 -0.142091
C11   C     C_R   0.403517 0.480432 0.898127 0.028497
C12   C     C_R   0.453381 0.199510 0.497361 0.520409
C13   C     C_R   0.596789 0.518382 0.101623 0.028475
C14   C     C_R   0.220285 0.407286 0.923972 0.041848
C15   C     C_R   0.780169 0.591006 0.075675 0.041946
C16   C     C_R   0.529875 0.518778 0.957707 0.028391
C17   C     C_R   0.470556 0.479700 0.041960 0.028344
C18   C     C_R   0.981335 0.676561 0.605059 0.196306
C19   C     C_R   0.840459 0.761145 0.654909 -0.073520
C20   C     C_R   0.851695 0.877550 0.733782 -0.175415
C21   C     C_R   0.008899 0.924482 0.769107 -0.111901
C22   C     C_R   0.155283 0.857931 0.723715 -0.161555
C23   C     C_R   0.287388 0.402734 0.063536 -0.147770
C24   C     C_R   0.142412 0.741501 0.644650 -0.075851
C25   C     C_R   0.018614 0.323330 0.394990 0.196261
C26   C     C_R   0.159466 0.238685 0.345171 -0.073519
C27   C     C_R   0.148045 0.121894 0.266450 -0.175352
C28   C     C_R   0.990716 0.074687 0.231223 -0.111896
C29   C     C_R   0.844449 0.141491 0.276519 -0.161599
C30   C     C_R   0.857502 0.258323 0.355427 -0.075912
C31   C     C_R   0.713247 0.595146 0.936001 -0.147724
C32   C     C_R   0.165271 0.368558 0.005803 -0.141698
C33   C     C_R   0.835369 0.629207 0.993721 -0.141704
C34   C     C_2   0.570170 0.969895 0.503679 -0.145010
C35   C     C_2   0.429829 0.030105 0.496321 -0.145041
C36   C     C_R   0.389823 0.487912 0.664440 0.520705
Cu1   Cu    Cu3+1 0.322120 0.483240 0.490330 0.901169
Cu2   Cu    Cu3+1 0.677880 0.516760 0.509670 0.901223
H1    H     H_    0.026090 0.310446 0.025438 0.118644
H2    H     H_    0.768777 0.631607 0.874860 0.115643
H3    H     H_    0.703553 0.045250 0.510394 0.143970
H4    H     H_    0.296447 0.954750 0.489606 0.143937
H5    H     H_    0.712011 0.746949 0.639497 0.180647
H6    H     H_    0.736207 0.932020 0.767538 0.102609
H7    H     H_    0.018405 0.013878 0.830252 0.125104
H8    H     H_    0.281972 0.897774 0.749732 0.102055
H9    H     H_    0.270209 0.717514 0.623636 0.183219
H10   H     H_    0.288027 0.253086 0.360498 0.180686
H11   H     H_    0.263491 0.067336 0.232735 0.102627
H12   H     H_    0.974702 0.686839 0.973981 0.118809
H13   H     H_    0.981055 0.984951 0.170207 0.125231
H14   H     H_    0.717713 0.101546 0.250544 0.102060
H15   H     H_    0.729791 0.282523 0.376356 0.183255
H16   H     H_    0.408615 0.440442 0.212367 0.123980
H17   H     H_    0.591059 0.560472 0.787774 0.123787
H18   H     H_    0.953867 0.628118 0.259620 0.147169
H19   H     H_    0.046401 0.370560 0.740128 0.147186
H20   H     H_    0.952959 0.316083 0.886837 0.114671
H21   H     H_    0.047600 0.681723 0.112729 0.114738
H22   H     H_    0.232168 0.365574 0.124512 0.115538
N1    N     N_2   0.945180 0.542040 0.524240 -0.149344
N2    N     N_2   0.054820 0.457960 0.475760 -0.149350
O1    O     O_R   0.384450 0.714270 0.493720 -0.520872
O2    O     O_R   0.615550 0.285730 0.506280 -0.520838
O3    O     O_R   0.684880 0.742590 0.510050 -0.523193
O4    O     O_R   0.315120 0.257410 0.489950 -0.523201
O5    O     O_R   0.265540 0.477900 0.617090 -0.525196
O6    O     O_R   0.734460 0.522100 0.382910 -0.525216
O7    O     O_R   0.565970 0.506210 0.633420 -0.533894
O8    O     O_R   0.434030 0.493790 0.366580 -0.534000

loop_
_geom_bond_atom_site_label_1
_geom_bond_atom_site_label_2
_ccdc_geom_bond_type
C10   C13   A    
C2    C4    S    
C31   C33   A    
C18   N1    S    
Cu1   Cu2   S    
C3    C9    A    
C13   C17   A    
C5    C14   A    
C11   C16   A    
C1    O3    A    
C19   C20   A    
Cu2   O3    S    
C26   H10   S    
C4    C8    A    
Cu2   N1    S    
Cu1   O8    S    
C23   C32   A    
C8    H18   S    
N1    N2    D    
Cu1   N2    S    
C6    C15   A    
C36   O5    A    
C30   H15   S    
C11   C14   A    
C17   C23   A    
C21   C22   A    
C36   O7    A    
C12   C35   S    
C9    C11   A    
C26   C27   A    
C29   C30   A    
C34   H3    S    
C2    O8    A    
C3    C36   S    
C9    H17   S    
C18   C24   A    
C5    H20   S    
C27   C28   A    
C28   C29   A    
C22   H8    S    
C19   H5    S    
C1    C34   S    
C18   C19   A    
C3    C7    A    
C21   H7    S    
C25   N2    S    
C13   C15   A    
Cu1   O4    S    
C23   H22   S    
C12   O2    A    
C28   H13   S    
C22   C24   A    
Cu2   O7    S    
C15   C33   A    
C10   H16   S    
C4    C10   A    
Cu1   O5    S    
C24   H9    S    
C20   C21   A    
C34   C35   D    
C32   H1    S    
C14   C32   A    
C25   C30   A    
C5    C7    A    
Cu2   O2    S    
C35   H4    S    
C1    O1    A    
C6    C8    A    
C33   H12   S    
C31   H2    S    
C20   H6    S    
C25   C26   A    
Cu1   O1    S    
C2    O6    A    
C12   O4    A    
C6    H21   S    
C7    H19   S    
C27   H11   S    
Cu2   O6    S    
C16   C17   A    
C16   C31   A    
C29   H14   S    
