data_mof_unit_35844.cif
_audit_creation_date              2012-12-10T16:51:12-0500
_audit_creation_method            fapswitch 2.2
_symmetry_space_group_name_H-M    P1
_symmetry_Int_Tables_number       1
_space_group_crystal_system       triclinic
_cell_length_a                    27.751536
_cell_length_b                    8.699806
_cell_length_c                    7.427635
_cell_angle_alpha                 102.36781
_cell_angle_beta                  94.395781
_cell_angle_gamma                 92.085223
_cell_volume                      1743.93764256

loop_
_atom_site_label
_atom_site_type_symbol
_atom_type_description
_atom_site_fract_x
_atom_site_fract_y
_atom_site_fract_z
_atom_type_partial_charge
C1    C     C_R   0.497247 0.200579 0.455627 0.882135
C2    C     C_R   0.502856 0.799436 0.544360 0.873333
C3    C     C_R   0.103475 0.470842 0.558368 -0.078545
C4    C     C_R   0.898869 0.481290 0.544789 -0.096990
C5    C     C_R   0.126018 0.332954 0.474065 -0.159692
C6    C     C_R   0.876144 0.624533 0.602466 -0.151164
C7    C     C_R   0.097073 0.191105 0.409133 0.351390
C8    C     C_R   0.905042 0.760929 0.692303 0.431090
C9    C     C_R   0.132289 0.608707 0.640259 -0.001630
C10   C     C_R   0.870071 0.340456 0.481071 -0.024541
C11   C     C_R   0.354841 0.495522 0.508719 -0.073038
C12   C     C_R   0.645304 0.498892 0.494976 -0.089145
C13   C     C_R   0.972166 0.333200 0.488413 0.070147
C14   C     C_R   0.030350 0.613284 0.640922 0.078834
C15   C     C_R   0.978978 0.617374 0.630673 -0.017948
C16   C     C_R   0.023417 0.332019 0.485826 -0.012082
C17   C     C_R   0.950196 0.477470 0.554408 0.084686
C18   C     C_R   0.052242 0.471832 0.561800 0.088347
C19   C     C_R   0.941779 0.194534 0.427164 -0.184894
C20   C     C_R   0.060921 0.746181 0.728548 -0.141021
C21   C     C_R   0.891904 0.198674 0.423385 -0.046222
C22   C     C_R   0.110704 0.743232 0.728318 -0.022700
C23   C     C_R   0.407557 0.499066 0.502294 0.883655
C24   C     C_R   0.592473 0.500240 0.497918 0.868780
C25   C     C_R   0.046873 0.194494 0.410528 -0.247405
C26   C     C_R   0.955326 0.756811 0.697760 -0.255642
C27   C     C_2   0.487451 0.036681 0.441416 0.092720
C28   C     C_2   0.512810 0.963383 0.558482 0.094708
C29   C     C_R   0.176499 0.345135 0.457050 0.633257
C30   C     C_R   0.825328 0.623924 0.566335 0.628149
C31   C     C_R   0.182426 0.609789 0.632162 0.690505
C32   C     C_R   0.819708 0.343964 0.479872 0.676337
C33   C     C_R   0.274463 0.530164 0.372031 0.396857
C34   C     C_R   0.717103 0.433697 0.330163 0.431960
C35   C     C_R   0.324741 0.531550 0.364329 -0.242830
C36   C     C_R   0.666644 0.439509 0.330781 -0.267194
C37   C     C_R   0.334296 0.454657 0.659734 -0.173794
C38   C     C_R   0.674743 0.555358 0.659165 -0.094717
C39   C     C_R   0.284388 0.448719 0.665851 -0.081869
C40   C     C_R   0.724626 0.549110 0.660793 -0.034000
C41   C     C_R   0.254319 0.487449 0.524253 0.217029
C42   C     C_R   0.746364 0.487564 0.498617 0.185077
Cu1   Cu    Cu3+1 0.505380 0.517380 0.684380 1.078045
Cu2   Cu    Cu3+1 0.494620 0.482620 0.315620 1.072035
H1    H     H_    0.356754 0.424599 0.771680 0.174344
H2    H     H_    0.659221 0.603828 0.787322 0.201136
H3    H     H_    0.462448 0.378290 0.948460 0.242573
H4    H     H_    0.537548 0.621714 0.051541 0.240460
H5    H     H_    0.268892 0.413378 0.780876 0.220369
H6    H     H_    0.746735 0.592348 0.789613 0.223906
H7    H     H_    0.643849 0.397197 0.203598 0.176634
H8    H     H_    0.340495 0.562361 0.246982 0.209288
H9    H     H_    0.870363 0.089367 0.372420 0.231299
H10   H     H_    0.132306 0.848893 0.795448 0.203899
H11   H     H_    0.954956 0.079001 0.382850 0.169086
H12   H     H_    0.047981 0.855394 0.800828 0.154648
H13   H     H_    0.026878 0.085658 0.349449 0.190106
H14   H     H_    0.975104 0.866326 0.757642 0.193503
N1    N     N_R   0.203083 0.481072 0.536911 -0.467294
N2    N     N_R   0.798286 0.484761 0.509469 -0.465715
N3    N     N_2   0.486510 0.456430 0.038510 -0.178995
N4    N     N_2   0.513490 0.543570 0.961490 -0.183566
O1    O     O_R   0.503500 0.286120 0.619780 -0.566111
O2    O     O_R   0.496500 0.713880 0.380220 -0.567350
O3    O     O_R   0.494410 0.256780 0.308360 -0.530586
O4    O     O_R   0.505590 0.743220 0.691640 -0.530793
O5    O     O_R   0.434810 0.514700 0.655690 -0.602422
O6    O     O_R   0.565190 0.485300 0.344310 -0.617468
O7    O     O_R   0.425720 0.485350 0.344280 -0.553639
O8    O     O_R   0.574280 0.514650 0.655720 -0.562073
O9    O     O_2   0.199110 0.225541 0.357616 -0.407436
O10   O     O_2   0.802871 0.760229 0.582585 -0.410044
O11   O     O_2   0.792415 0.208062 0.452213 -0.422578
O12   O     O_2   0.210393 0.739694 0.714970 -0.447758
S1    S     S_3+6 0.121028 0.002165 0.339692 0.071974
O13   O     O_2   0.083049 0.872323 0.330577 -0.302120
O14   O     O_2   0.138941 0.987750 0.151343 -0.199423
O15   O     O_3   0.167283 0.980389 0.490786 -0.413030
H15   H     H_    0.158207 0.035934 0.613286 0.328940
S2    S     S_3+6 0.881320 0.931429 0.827341 0.053233
O16   O     O_2   0.857894 0.027374 0.702787 -0.227400
O17   O     O_2   0.844321 0.882199 0.944555 -0.209591
O18   O     O_3   0.925708 0.043862 0.967025 -0.572645
H16   H     H_    0.911288 0.145944 0.012601 0.381900
S3    S     S_3+6 0.741940 0.367771 0.116011 0.044769
O19   O     O_2   0.782889 0.479853 0.098063 -0.264626
O20   O     O_2   0.760842 0.206512 0.103483 -0.196108
O21   O     O_3   0.699273 0.358515 0.940165 -0.543328
H17   H     H_    0.682062 0.254006 0.923651 0.386342
S4    S     S_3+6 0.237794 0.578792 0.188877 0.043603
O22   O     O_2   0.215195 0.429610 0.065967 -0.269172
O23   O     O_2   0.198175 0.681250 0.262259 -0.190270
O24   O     O_3   0.271326 0.674253 0.063629 -0.508651
H18   H     H_    0.281640 0.776752 0.147511 0.380439
S5    S     S_3+6 0.434329 0.953364 0.296969 0.013171
O25   O     O_2   0.448789 0.854756 0.119292 -0.247362
O26   O     O_2   0.404681 0.852711 0.393183 -0.325358
O27   O     O_3   0.400426 0.097961 0.247743 -0.535623
H19   H     H_    0.371895 0.042860 0.168810 0.384897
S6    S     S_3+6 0.565779 0.047631 0.703777 0.013830
O28   O     O_2   0.596234 0.919518 0.749899 -0.287827
O29   O     O_2   0.595426 0.148404 0.607643 -0.311323
O30   O     O_3   0.549044 0.158298 0.901368 -0.492300
H20   H     H_    0.579509 0.210725 0.968454 0.363624

loop_
_geom_bond_atom_site_label_1
_geom_bond_atom_site_label_2
_ccdc_geom_bond_type
C38   C40   A    
O24   H18   S    
C8    C26   A    
C14   C18   A    
C27   S5    S    
S5    O25   D    
C34   C42   A    
C20   H12   S    
S5    O27   S    
Cu1   O1    S    
C39   C41   A    
S3    O19   D    
Cu2   O2    S    
C19   C21   A    
C9    C22   A    
C23   O5    A    
C3    C18   A    
C31   N1    A    
C11   C37   A    
C23   O7    A    
C15   C26   A    
H4    N4    S    
C29   N1    A    
C30   N2    A    
C1    O3    A    
C12   C36   A    
C28   S6    S    
C40   C42   A    
C22   H10   S    
Cu2   O3    S    
C25   H13   S    
S2    O18   S    
C1    O1    A    
C2    O2    A    
C5    C29   A    
S3    O20   D    
C10   C21   A    
C13   C19   A    
C24   O8    A    
C14   C20   A    
C41   N1    S    
S2    O17   D    
C42   N2    S    
C32   O11   S    
C5    C7    A    
C9    C31   A    
O15   H15   S    
S2    O16   D    
C31   O12   S    
C6    C8    A    
C3    C5    A    
S6    O30   S    
C34   S3    S    
S1    O13   D    
C3    C9    A    
S1    O14   D    
S4    O23   D    
O18   H16   S    
S6    O29   D    
Cu2   O7    S    
C16   C18   A    
C26   H14   S    
C36   H7    S    
C4    C17   A    
C4    C6    A    
C39   H5    S    
C20   C22   A    
Cu1   O8    S    
Cu1   Cu2   S    
Cu2   O6    S    
C32   N2    A    
C37   H1    S    
C35   H8    S    
S4    O24   S    
C8    S2    S    
S3    O21   S    
C19   H11   S    
C16   C25   A    
C15   C17   A    
C6    C30   A    
C30   O10   S    
C2    O4    A    
H3    N3    S    
C7    S1    S    
S5    O26   D    
Cu2   N3    S    
C12   C24   S    
C7    C25   A    
C13   C17   A    
C33   C41   A    
C11   C35   A    
C37   C39   A    
C33   S4    S    
C21   H9    S    
S4    O22   D    
Cu1   O4    S    
C40   H6    S    
C11   C23   S    
S6    O28   D    
C33   C35   A    
C34   C36   A    
C12   C38   A    
N3    N4    D    
S1    O15   S    
C38   H2    S    
C24   O6    A    
C10   C32   A    
O21   H17   S    
Cu1   O5    S    
O27   H19   S    
C13   C16   A    
O30   H20   S    
C1    C27   S    
C14   C15   A    
C2    C28   S    
C29   O9    S    
C4    C10   A    
Cu1   N4    S    
C27   C28   D    
