data_mof_unit_38696.cif
_audit_creation_date              2013-03-05T16:35:51-0500
_audit_creation_method            fapswitch 2.2
_symmetry_space_group_name_H-M    P1
_symmetry_Int_Tables_number       1
_space_group_crystal_system       triclinic
_cell_length_a                    23.654047
_cell_length_b                    9.095226
_cell_length_c                    7.763019
_cell_angle_alpha                 89.920037
_cell_angle_beta                  89.91757
_cell_angle_gamma                 90.017547
_cell_volume                      1670.12395955

loop_
_atom_site_label
_atom_site_type_symbol
_atom_site_description
_atom_site_fract_x
_atom_site_fract_y
_atom_site_fract_z
_atom_type_partial_charge
O1    O     O_R   0.500000 0.288390 0.642760 -0.557191
O2    O     O_R   0.500000 0.711610 0.357240 -0.563633
O3    O     O_R   0.500000 0.711610 0.642760 -0.561953
O4    O     O_R   0.500000 0.288390 0.357240 -0.589841
H1    H     H_    0.947988 0.129058 0.556023 0.188956
H2    H     H_    0.051705 0.868260 0.474825 0.188083
H3    H     H_    0.948931 0.868338 0.462604 0.188051
H4    H     H_    0.050745 0.127364 0.540657 0.187314
C1    C     C_R   0.500005 0.219932 0.500074 0.857441
C2    C     C_R   0.499988 0.780067 0.499927 0.899356
O5    O     O_R   0.417880 0.500000 0.642820 -0.580012
O6    O     O_R   0.582120 0.500000 0.357180 -0.601966
O7    O     O_R   0.582120 0.500000 0.642820 -0.558861
O8    O     O_R   0.417880 0.500000 0.357180 -0.577674
C3    C     C_R   0.207976 0.496567 0.503164 0.197718
C4    C     C_R   0.791739 0.499783 0.506335 0.174323
C5    C     C_R   0.390471 0.499445 0.500146 0.871582
C6    C     C_R   0.609475 0.500837 0.499854 0.807871
Cu1   Cu    Cu3+1 0.500000 0.500000 0.669080 1.078022
Cu2   Cu    Cu3+1 0.500000 0.500000 0.330920 1.054732
C7    C     C_R   0.296766 0.560379 0.360787 -0.095367
C8    C     C_R   0.703139 0.432755 0.365369 -0.102140
C9    C     C_R   0.297426 0.433859 0.641375 -0.095555
C10   C     C_R   0.702141 0.574579 0.635505 -0.050871
C11   C     C_R   0.327397 0.497889 0.500714 -0.149342
C12   C     C_R   0.672460 0.503005 0.499911 -0.174266
C13   C     C_R   0.881231 0.629053 0.485122 0.527806
C14   C     C_R   0.118316 0.365791 0.506815 0.526724
C15   C     C_R   0.880869 0.369330 0.533285 0.519800
C16   C     C_R   0.118684 0.628624 0.504921 0.527401
N1    N     N_R   0.852687 0.499345 0.508688 -0.494899
N2    N     N_R   0.146946 0.496966 0.505018 -0.494306
C17   C     C_R   0.940089 0.365572 0.528146 -0.016039
C18   C     C_R   0.059479 0.631594 0.499098 -0.018331
C19   C     C_R   0.940438 0.631917 0.490348 -0.017795
C20   C     C_R   0.059127 0.363863 0.515706 -0.018325
C21   C     C_R   0.969977 0.498498 0.508950 -0.019428
C22   C     C_R   0.029582 0.497987 0.508022 -0.019526
C23   C     C_R   0.970006 0.232650 0.541097 -0.150136
C24   C     C_R   0.029607 0.764384 0.484089 -0.149190
C25   C     C_R   0.970685 0.764369 0.476976 -0.150715
C26   C     C_R   0.028918 0.231620 0.532127 -0.150128
C27   C     C_1   0.499998 0.065347 0.500106 -0.115941
C28   C     C_1   0.499993 0.934649 0.499904 -0.102756
C29   C     C_R   0.237117 0.550263 0.357220 -0.001524
C30   C     C_R   0.762940 0.435254 0.366595 0.010354
C31   C     C_R   0.237787 0.442814 0.647465 -0.002315
C32   C     C_R   0.761779 0.566367 0.642656 -0.010789
N3    N     N_1   0.500000 0.500000 0.076820 -0.036741
N4    N     N_1   0.500000 0.500000 0.923180 -0.032300
O9    O     O_2   0.852299 0.754697 0.457182 -0.475093
O10   O     O_2   0.147124 0.237840 0.500694 -0.470425
O11   O     O_2   0.851571 0.244220 0.561448 -0.477226
O12   O     O_2   0.147881 0.756070 0.509525 -0.470066
C33   C     C_2   0.203384 0.595617 0.203523 0.404927
H5    H     H_    0.163590 0.540965 0.176215 0.075049
O13   O     O_2   0.218018 0.696869 0.110083 -0.512495
C34   C     C_2   0.797079 0.368799 0.225256 0.506639
H6    H     H_    0.836125 0.421117 0.184456 0.038668
O14   O     O_2   0.783741 0.251969 0.159569 -0.461046
C35   C     C_2   0.204793 0.396291 0.802382 0.405834
H7    H     H_    0.165543 0.452025 0.833691 0.075888
O15   O     O_2   0.219330 0.292645 0.891993 -0.510217
C36   C     C_2   0.794658 0.626747 0.790578 0.424738
H8    H     H_    0.833887 0.574283 0.828952 0.071326
O16   O     O_2   0.780015 0.738065 0.866085 -0.499771
C37   C     C_2   0.326510 0.638280 0.218887 0.528645
H9    H     H_    0.318696 0.608200 0.085827 0.060216
O17   O     O_2   0.358522 0.740284 0.250061 -0.507556
C38   C     C_2   0.672491 0.355124 0.225194 0.513245
H10   H     H_    0.638692 0.278888 0.256627 0.069009
O18   O     O_2   0.683386 0.379515 0.074051 -0.542653
C39   C     C_2   0.327814 0.355551 0.781516 0.525721
H11   H     H_    0.319583 0.382591 0.915202 0.061987
O19   O     O_2   0.360874 0.256453 0.748145 -0.507932
C40   C     C_2   0.671372 0.660237 0.768957 0.533366
H12   H     H_    0.680556 0.643628 0.904428 0.124622
O20   O     O_2   0.636915 0.753818 0.727760 -0.531078

loop_
_geom_bond_atom_site_label_1
_geom_bond_atom_site_label_2
_geom_bond_distance
_ccdc_geom_bond_type
C33   H5    1.085648 S    
C39   H11   1.084243 S    
C20   C26   1.404391 A    
Cu1   Cu2   2.625143 S    
C6    C12   1.489968 S    
C2    C28   1.405962 S    
C3    C31   1.411407 A    
C4    C32   1.410242 A    
C3    N2    1.443661 S    
C4    N1    1.441813 S    
C16   O12   1.349647 S    
O5    Cu1   1.953432 S    
C17   C23   1.404584 A    
O7    C6    1.283905 A    
C18   C24   1.404242 A    
C40   O20   1.221242 D    
C19   C21   1.407807 A    
C21   C22   1.409919 A    
H4    C26   1.081811 S    
C32   C36   1.493033 S    
C34   O14   1.220834 D    
C15   C17   1.401737 A    
C35   O15   1.220600 D    
O3    Cu1   1.935172 S    
C38   H10   1.085406 S    
C9    C11   1.424734 A    
C7    C37   1.485181 S    
C39   O19   1.221285 D    
O8    C5    1.284535 A    
C9    C39   1.485904 S    
C13   O9    1.349627 S    
C23   C26   1.395179 A    
C7    C29   1.414243 A    
C1    C27   1.405984 S    
C9    C31   1.413802 A    
C16   C18   1.401502 A    
C13   N1    1.370996 A    
C37   H9    1.085038 S    
C10   C32   1.413852 A    
O8    Cu2   1.952849 S    
C14   N2    1.371731 A    
O1    C1    1.271434 A    
C40   H12   1.084549 S    
C4    C30   1.410301 A    
O7    Cu1   1.952846 S    
C10   C40   1.486731 S    
C13   C19   1.401369 A    
C34   H6    1.085469 S    
O1    Cu1   1.935741 S    
O2    Cu2   1.935740 S    
C17   C21   1.407960 A    
C37   O17   1.222032 D    
C36   O16   1.220623 D    
C27   C28   1.188733 T    
Cu2   N3    1.972582 S    
O6    Cu2   1.953430 S    
C29   C33   1.493987 S    
C24   C25   1.394919 A    
C8    C30   1.414764 A    
H1    C23   1.082411 S    
H2    C24   1.081843 S    
C3    C29   1.411830 A    
O2    C2    1.271435 A    
C7    C11   1.424346 A    
O5    C5    1.284204 A    
C18   C22   1.407366 A    
C10   C12   1.424239 A    
C31   C35   1.493355 S    
C5    C11   1.492006 S    
C36   H8    1.085415 S    
C33   O13   1.221173 D    
C15   N1    1.370908 A    
O3    C2    1.270912 A    
C16   N2    1.371604 A    
C14   O10   1.349603 S    
Cu1   N4    1.972582 S    
C15   O11   1.349544 S    
C20   C22   1.407310 A    
H3    C25   1.082400 S    
C35   H7    1.085346 S    
C19   C25   1.404580 A    
O4    Cu2   1.935173 S    
C14   C20   1.401778 A    
N3    N4    1.192711 T    
C8    C12   1.423269 A    
O6    C6    1.283574 A    
C38   O18   1.220935 D    
O4    C1    1.270920 A    
C8    C38   1.487387 S    
C30   C34   1.490273 S    
