data_mof_unit_34920.cif
_audit_creation_date              2012-12-11T15:11:48-0500
_audit_creation_method            fapswitch 2.2
_symmetry_space_group_name_H-M    P1
_symmetry_Int_Tables_number       1
_space_group_crystal_system       monoclinic
_cell_length_a                    19.980839
_cell_length_b                    7.252618
_cell_length_c                    14.32913
_cell_angle_alpha                 90.0
_cell_angle_beta                  103.322102
_cell_angle_gamma                 90.0
_cell_volume                      2020.60480844

loop_
_atom_site_label
_atom_site_type_symbol
_atom_type_description
_atom_site_fract_x
_atom_site_fract_y
_atom_site_fract_z
_atom_type_partial_charge
O1    O     O_R   0.449830 0.506740 0.599960 -0.556227
O2    O     O_R   0.550170 0.006740 0.400040 -0.556227
O3    O     O_R   0.588980 0.179860 0.596720 -0.526692
O4    O     O_R   0.411020 0.679860 0.403280 -0.526692
C1    C     C_R   0.614397 0.344603 0.621583 0.767717
C2    C     C_R   0.385603 0.844603 0.378417 0.767717
O5    O     O_R   0.452740 0.177340 0.612040 -0.540379
O6    O     O_R   0.547260 0.677340 0.387960 -0.540379
O7    O     O_R   0.412960 0.002070 0.415460 -0.530142
O8    O     O_R   0.587040 0.502070 0.584540 -0.530142
C3    C     C_R   0.435510 0.345543 0.634323 0.717190
C4    C     C_R   0.564490 0.845543 0.365677 0.717190
O9    O     O_3   0.487110 0.337570 0.435490 -0.391269
O10   O     O_3   0.512890 0.837570 0.564510 -0.391269
V1    V     V_3+5 0.502390 0.064650 0.511970 1.455013
V2    V     V_3+5 0.497610 0.564650 0.488030 1.455013
C5    C     C_R   0.604936 0.860604 0.125378 -0.212980
C6    C     C_R   0.395064 0.360604 0.874622 -0.212980
H1    H     H_    0.576108 0.855580 0.051489 0.152251
H2    H     H_    0.423892 0.355580 0.948511 0.152251
C7    C     C_R   0.602611 0.855166 0.291213 -0.036253
C8    C     C_R   0.397389 0.355166 0.708787 -0.036253
C9    C     C_R   0.932473 0.858785 0.308773 0.046583
C10   C     C_R   0.067527 0.358785 0.691226 0.046583
C11   C     C_R   0.899507 0.898827 0.383667 0.362291
C12   C     C_R   0.100492 0.398827 0.616332 0.362291
C13   C     C_R   0.827675 0.929498 0.363199 0.374444
C14   C     C_R   0.172324 0.429498 0.636801 0.374444
C15   C     C_R   0.787664 0.897646 0.269239 -0.065671
C16   C     C_R   0.212336 0.397646 0.730761 -0.065671
C17   C     C_R   0.822788 0.882644 0.193437 -0.086535
C18   C     C_R   0.177212 0.382644 0.806563 -0.086535
C19   C     C_R   0.713681 0.887449 0.246900 0.088993
C20   C     C_R   0.286319 0.387449 0.753100 0.088993
C21   C     C_R   0.677211 0.876329 0.149826 0.100761
C22   C     C_R   0.322789 0.376329 0.850174 0.100761
C23   C     C_R   0.712773 0.871563 0.077212 0.184814
C24   C     C_R   0.287227 0.371563 0.922788 0.184814
C25   C     C_R   0.784389 0.885324 0.098939 -0.181742
C26   C     C_R   0.215611 0.385324 0.901060 -0.181742
C27   C     C_R   0.674374 0.872033 0.316954 -0.232953
C28   C     C_R   0.325626 0.372033 0.683045 -0.232953
C29   C     C_R   0.567900 0.845136 0.195320 0.168187
C30   C     C_R   0.432100 0.345137 0.804680 0.168187
C31   C     C_R   0.895574 0.865016 0.213083 -0.111771
C32   C     C_R   0.104426 0.365016 0.786917 -0.111771
H3    H     H_    0.697718 0.860406 0.391830 0.153613
H4    H     H_    0.302281 0.360406 0.608170 0.153613
H5    H     H_    0.810473 0.896110 0.041583 0.118942
H6    H     H_    0.189527 0.396111 0.958417 0.118942
C33   C     C_3   0.227564 0.672934 0.173112 0.541341
C34   C     C_3   0.772436 0.172934 0.826888 0.541342
C35   C     C_3   0.294707 0.657583 0.258468 -0.050979
C36   C     C_3   0.705293 0.157583 0.741532 -0.050980
H7    H     H_    0.283451 0.566888 0.315146 0.160346
H8    H     H_    0.716549 0.066888 0.684854 0.160346
H9    H     H_    0.170650 0.736322 0.329284 0.151771
H10   H     H_    0.829350 0.236323 0.670716 0.151771
H11   H     H_    0.268643 0.817584 0.430964 0.160482
H12   H     H_    0.731357 0.317584 0.569036 0.160482
C37   C     C_3   0.186536 0.867060 0.302793 -0.056923
C38   C     C_3   0.813464 0.367060 0.697207 -0.056924
C39   C     C_3   0.231950 0.023100 0.173857 0.012098
C40   C     C_3   0.768050 0.523100 0.826142 0.012098
C41   C     C_3   0.186563 0.853888 0.192271 -0.043297
C42   C     C_3   0.813437 0.353888 0.807729 -0.043297
H13   H     H_    0.216719 0.147475 0.207890 0.185792
H14   H     H_    0.783281 0.647475 0.792110 0.185792
C43   C     C_3   0.315334 0.850103 0.306814 -0.073718
C44   C     C_3   0.684666 0.350103 0.693186 -0.073718
C45   C     C_3   0.260796 0.901186 0.364087 -0.483195
C46   C     C_3   0.739204 0.401186 0.635913 -0.483195
C47   C     C_3   0.310585 0.990929 0.222174 0.277784
C48   C     C_3   0.689415 0.490929 0.777825 0.277784
H15   H     H_    0.334280 0.928755 0.166644 0.092483
H16   H     H_    0.665720 0.428755 0.833356 0.092483
H17   H     H_    0.268251 0.047767 0.387183 0.194665
H18   H     H_    0.731749 0.547767 0.612817 0.194665
O11   O     O_R   0.912980 0.203550 0.915410 -0.533032
O12   O     O_R   0.087020 0.703550 0.084590 -0.533032
O13   O     O_R   0.047270 0.535570 0.887960 -0.544609
O14   O     O_R   0.952730 0.035570 0.112040 -0.544609
C49   C     C_R   0.065368 0.368710 0.864514 0.772580
C50   C     C_R   0.934632 0.868710 0.135486 0.772581
O15   O     O_R   0.911030 0.532970 0.903270 -0.540480
O16   O     O_R   0.088970 0.032970 0.096730 -0.540480
O17   O     O_R   0.949820 0.708150 0.099970 -0.542061
O18   O     O_R   0.050180 0.208150 0.900030 -0.542061
C51   C     C_R   0.886000 0.363543 0.877343 0.796364
C52   C     C_R   0.114000 0.863543 0.122657 0.796363
O19   O     O_3   0.012900 0.375230 0.064480 -0.393634
O20   O     O_3   0.987100 0.875230 0.935520 -0.393634
V3    V     V_3+5 0.997610 0.648190 0.988040 1.461788
V4    V     V_3+5 0.002390 0.148190 0.011960 1.461788
N1    N     N_3   0.495417 0.810813 0.168582 -0.718598
H19   H     H_    0.487886 0.684310 0.132664 0.236365
H20   H     H_    0.472769 0.912284 0.119596 0.209955
N2    N     N_3   0.504583 0.310813 0.831418 -0.718598
H21   H     H_    0.512114 0.184310 0.867336 0.236366
H22   H     H_    0.527231 0.412284 0.880404 0.209955
N3    N     N_3   0.246330 0.706079 0.080897 -0.688796
H23   H     H_    0.283747 0.620301 0.066840 0.252815
H24   H     H_    0.202977 0.692886 0.024312 0.255471
N4    N     N_3   0.753669 0.206078 0.919103 -0.688796
H25   H     H_    0.716252 0.120301 0.933160 0.252815
H26   H     H_    0.797023 0.192886 0.975688 0.255471
N5    N     N_3   0.353211 0.572500 0.229828 -0.639169
H27   H     H_    0.335320 0.455915 0.191476 0.294569
H28   H     H_    0.375144 0.657671 0.186536 0.231364
N6    N     N_3   0.646789 0.072500 0.770172 -0.639169
H29   H     H_    0.664680 0.955915 0.808524 0.294569
H30   H     H_    0.624856 0.157671 0.813464 0.231364
N7    N     N_3   0.218259 0.056474 0.070376 -0.685438
H31   H     H_    0.193427 0.182024 0.054576 0.258427
H32   H     H_    0.260547 0.038950 0.040488 0.252829
N8    N     N_3   0.781741 0.556474 0.929624 -0.685439
H33   H     H_    0.806573 0.682024 0.945424 0.258427
H34   H     H_    0.739453 0.538950 0.959511 0.252829
O21   O     O_3   0.343639 0.159386 0.255122 -0.555498
C53   C     C_3   0.410115 0.167637 0.235176 -0.174979
H35   H     H_    0.407442 0.174942 0.157890 0.103740
H36   H     H_    0.442345 0.047897 0.263857 0.153627
H37   H     H_    0.437021 0.293411 0.267099 0.204593
O22   O     O_3   0.656361 0.659386 0.744877 -0.555498
C54   C     C_3   0.589885 0.667637 0.764824 -0.174979
H38   H     H_    0.592558 0.674942 0.842110 0.103740
H39   H     H_    0.557655 0.547897 0.736143 0.153627
H40   H     H_    0.562979 0.793411 0.732901 0.204593
N9    N     N_3   0.138917 0.005527 0.323713 -0.666361
H41   H     H_    0.159446 0.135884 0.321179 0.213268
H42   H     H_    0.137922 0.989842 0.395948 0.232400
N10   N     N_3   0.861083 0.505527 0.676287 -0.666361
H43   H     H_    0.840554 0.635884 0.678821 0.213268
H44   H     H_    0.862078 0.489842 0.604051 0.232400
N11   N     N_3   0.675218 0.834872 0.981670 -0.726148
H45   H     H_    0.708750 0.825630 0.936608 0.251032
H46   H     H_    0.654044 0.703709 0.983600 0.213713
N12   N     N_3   0.324781 0.334872 0.018330 -0.726149
H47   H     H_    0.291250 0.325630 0.063391 0.251032
H48   H     H_    0.345956 0.203709 0.016400 0.213714
N13   N     N_3   0.004977 0.827158 0.328970 -0.654405
H49   H     H_    0.015079 0.700180 0.363790 0.251190
H50   H     H_    0.028211 0.929905 0.376069 0.261971
N14   N     N_3   0.995023 0.327158 0.671030 -0.654405
H51   H     H_    0.984920 0.200180 0.636210 0.251190
H52   H     H_    0.971789 0.429905 0.623931 0.261971
O23   O     O_3   0.798773 0.028913 0.426814 -0.544644
C55   C     C_3   0.807368 0.937717 0.515680 -0.255698
H53   H     H_    0.852457 0.995344 0.567287 0.186747
H54   H     H_    0.811562 0.784914 0.510535 0.114339
H55   H     H_    0.761376 0.966433 0.544228 0.126162
O24   O     O_3   0.201227 0.528913 0.573186 -0.544644
C56   C     C_3   0.192632 0.437717 0.484319 -0.255697
H56   H     H_    0.147543 0.495344 0.432712 0.186747
H57   H     H_    0.188438 0.284914 0.489465 0.114339
H58   H     H_    0.238624 0.466433 0.455772 0.126161
O25   O     O_3   0.938505 0.940443 0.474171 -0.572561
C57   C     C_3   0.963767 0.777928 0.524275 -0.300435
H59   H     H_    0.020224 0.771678 0.532216 0.209082
H60   H     H_    0.939540 0.647924 0.490787 0.146881
H61   H     H_    0.954529 0.785960 0.597601 0.160822
O26   O     O_3   0.061495 0.440443 0.525829 -0.572561
C58   C     C_3   0.036233 0.277928 0.475725 -0.300435
H62   H     H_    0.979775 0.271678 0.467784 0.209082
H63   H     H_    0.060460 0.147924 0.509213 0.146881
H64   H     H_    0.045470 0.285960 0.402399 0.160822
O27   O     O_3   0.190236 0.502660 0.159200 -0.560550
C59   C     C_3   0.152470 0.455246 0.227287 -0.264726
H65   H     H_    0.111484 0.553744 0.232766 0.149725
H66   H     H_    0.186994 0.424400 0.296832 0.078334
H67   H     H_    0.123296 0.328840 0.201511 0.194836
O28   O     O_3   0.809764 0.002660 0.840799 -0.560550
C60   C     C_3   0.847530 0.955246 0.772713 -0.264728
H68   H     H_    0.888516 0.053744 0.767234 0.149726
H69   H     H_    0.813006 0.924400 0.703168 0.078334
H70   H     H_    0.876704 0.828840 0.798489 0.194836

loop_
_geom_bond_atom_site_label_1
_geom_bond_atom_site_label_2
_ccdc_geom_bond_type
H10   C38   S    
C2    C43   S    
C48   O22   S    
C39   C41   S    
N3    H23   S    
C9    C31   A    
C13   C15   A    
C47   H15   S    
C35   H7    S    
C33   O27   S    
N1    H19   S    
O1    C3    A    
C50   O17   A    
O23   C55   S    
O2    C4    A    
C34   O28   S    
C2    O7    A    
N4    H26   S    
C34   C42   S    
N11   H45   S    
C8    C28   A    
C60   H68   S    
O28   C60   S    
O5    C3    A    
O25   C57   S    
C48   H16   S    
C40   N8    S    
C40   H14   S    
C21   C23   A    
C10   C12   A    
O26   C58   S    
N13   H50   S    
C47   O21   S    
H12   C46   S    
C15   C19   A    
N8    H33   S    
C36   N6    S    
C33   C41   S    
C43   C45   S    
N6    H29   S    
C46   H18   S    
O16   V4    S    
C57   H61   S    
C19   C21   A    
C7    C29   A    
O15   V3    S    
O12   V3    S    
C59   H67   S    
C8    C30   A    
C58   H62   S    
C53   H36   S    
N10   H43   S    
C20   C28   A    
C44   C48   S    
C54   H40   S    
C29   N1    S    
N5    H27   S    
C55   H55   S    
C43   C47   S    
C56   H57   S    
C20   C22   A    
C53   H37   S    
C37   N9    S    
C37   C45   S    
C59   H66   S    
C49   O18   A    
C35   C43   S    
O6    V2    S    
C24   C26   A    
C57   H60   S    
N5    H28   S    
C30   N2    S    
O20   V4    S    
N4    H25   S    
O13   C49   A    
C34   C36   S    
C42   C51   S    
C39   H13   S    
C60   H69   S    
C27   H3    S    
C41   C52   S    
C23   C25   A    
C39   N7    S    
C36   H8    S    
C38   C42   S    
C38   N10   S    
C58   H64   S    
C55   H53   S    
O11   V4    S    
N14   H52   S    
O16   C52   A    
O27   C59   S    
C16   C20   A    
O5    V1    S    
C39   C47   S    
C4    C7    S    
C12   O26   S    
C33   C35   S    
C40   C42   S    
O4    V2    S    
C5    C29   A    
C1    C44   S    
C6    C30   A    
O19   V3    S    
O13   V3    S    
C35   N5    S    
C36   C44   S    
O6    C4    A    
C23   N11   S    
C24   N12   S    
C38   C46   S    
O1    V2    S    
C28   H4    S    
C56   H58   S    
O2    V1    S    
N7    H31   S    
N12   H48   S    
C7    C27   A    
N10   H44   S    
C59   H65   S    
C25   H5    S    
C14   O24   S    
O14   C50   A    
C11   O25   S    
C54   H38   S    
O4    C2    A    
C33   N3    S    
O14   V4    S    
C45   H17   S    
O3    V1    S    
C53   H35   S    
N9    H41   S    
C60   H70   S    
N11   H46   S    
C34   N4    S    
O15   C51   A    
C58   H63   S    
C18   C32   A    
C55   H54   S    
N14   H51   S    
O3    C1    A    
O21   C53   S    
N1    H20   S    
H9    C37   S    
C11   C13   A    
C3    C8    S    
C12   C14   A    
C19   C27   A    
C14   C16   A    
O7    V1    S    
C10   C32   A    
C1    O8    A    
C15   C17   A    
C13   O23   S    
O8    V2    S    
N13   H49   S    
O19   V4    S    
C16   C18   A    
C57   H59   S    
C10   N14   S    
C17   C25   A    
C26   H6    S    
O17   V3    S    
C22   C24   A    
O20   V3    S    
C5    H1    S    
N8    H34   S    
C6    H2    S    
C18   C26   A    
O12   C52   A    
N2    H22   S    
N6    H30   S    
O11   C51   A    
N12   H47   S    
C32   C49   S    
C31   C50   S    
C37   C41   S    
C9    C11   A    
O24   C56   S    
N3    H24   S    
N2    H21   S    
C17   C31   A    
O9    V2    S    
C54   H39   S    
O18   V4    S    
C40   C48   S    
O10   V1    S    
C9    N13   S    
C44   C46   S    
C5    C21   A    
N9    H42   S    
C56   H56   S    
C6    C22   A    
H11   C45   S    
O22   C54   S    
N7    H32   S    
