data_mof_unit_50682.cif
_audit_creation_date              2012-12-10T19:07:00-0500
_audit_creation_method            fapswitch 2.2
_symmetry_space_group_name_H-M    P1
_symmetry_Int_Tables_number       1
_space_group_crystal_system       triclinic
_cell_length_a                    27.783488
_cell_length_b                    10.865882
_cell_length_c                    9.537742
_cell_angle_alpha                 90.66866
_cell_angle_beta                  89.713499
_cell_angle_gamma                 89.594862
_cell_volume                      2879.06372824

loop_
_atom_site_label
_atom_site_type_symbol
_atom_type_description
_atom_site_fract_x
_atom_site_fract_y
_atom_site_fract_z
_atom_type_partial_charge
C1    C     C_R   0.502722 0.262261 0.497899 0.869350
C2    C     C_R   0.279327 0.449215 0.390703 -0.082334
C3    C     C_R   0.253592 0.510530 0.497113 0.283598
C4    C     C_R   0.101761 0.514832 0.504406 -0.043241
C5    C     C_R   0.127418 0.407185 0.538885 -0.025724
C6    C     C_R   0.102265 0.302078 0.577691 -0.139720
C7    C     C_R   0.127393 0.620394 0.464990 -0.028091
C8    C     C_R   0.354573 0.507136 0.501273 -0.113000
C9    C     C_R   0.645083 0.504539 0.501435 -0.100046
C10   C     C_R   0.974442 0.415378 0.566438 0.041717
C11   C     C_R   0.974062 0.624448 0.467444 0.041484
C12   C     C_R   0.407510 0.502725 0.500475 0.836764
C13   C     C_R   0.948976 0.520584 0.518692 0.071111
C14   C     C_R   0.947792 0.317954 0.625129 -0.203484
C15   C     C_R   0.897838 0.321009 0.629761 -0.135959
C16   C     C_R   0.872415 0.421190 0.576359 -0.028096
C17   C     C_R   0.897796 0.521605 0.521559 -0.042930
C18   C     C_R   0.871871 0.622671 0.468879 -0.025183
C19   C     C_R   0.821319 0.620049 0.468603 0.549672
C20   C     C_R   0.821904 0.423132 0.576315 0.551736
C21   C     C_R   0.723589 0.425110 0.432618 -0.118266
C22   C     C_R   0.673524 0.417803 0.427193 0.335908
C23   C     C_R   0.497870 0.737691 0.500046 0.871054
C24   C     C_R   0.667462 0.596010 0.582636 -0.260355
C25   C     C_R   0.717535 0.602162 0.588586 -0.066370
C26   C     C_R   0.745821 0.516716 0.513451 0.271312
C27   C     C_R   0.025434 0.411108 0.554846 0.042503
C28   C     C_R   0.050605 0.516949 0.509552 0.070951
C29   C     C_R   0.025238 0.624856 0.469375 0.042361
C30   C     C_R   0.052338 0.303687 0.585439 -0.203696
C31   C     C_R   0.102202 0.727433 0.430725 -0.138266
C32   C     C_R   0.946835 0.724080 0.414451 -0.203223
C33   C     C_R   0.896828 0.722914 0.415207 -0.136817
C34   C     C_R   0.592394 0.499676 0.499952 0.859665
C35   C     C_R   0.052201 0.729918 0.432879 -0.203002
C36   C     C_R   0.514556 0.063223 0.614343 0.102250
C37   C     C_R   0.508521 0.128647 0.490445 -0.257600
C38   C     C_R   0.505914 0.060101 0.361749 0.328874
C39   C     C_R   0.494149 0.934708 0.368486 0.282996
C40   C     C_R   0.498934 0.871294 0.496798 -0.225163
C41   C     C_R   0.512172 0.936853 0.616649 0.029764
C42   C     C_3   0.489141 0.938707 0.758902 -0.362749
C43   C     C_3   0.491874 0.078170 0.755610 -0.356747
C44   C     C_R   0.536563 0.554622 0.074068 0.219274
C45   C     C_R   0.177927 0.407216 0.533758 0.547897
C46   C     C_R   0.461643 0.457832 0.074250 0.082660
C47   C     C_R   0.461669 0.457649 0.925567 0.023093
C48   C     C_R   0.537163 0.551388 0.926613 0.156436
C49   C     C_3   0.588959 0.511922 0.923662 0.182330
C50   C     C_3   0.588613 0.521656 0.082113 -0.453805
C51   C     C_R   0.177922 0.616705 0.462073 0.551683
C52   C     C_R   0.278188 0.571054 0.604975 -0.129449
C53   C     C_R   0.328418 0.570019 0.608050 0.343760
C54   C     C_R   0.329497 0.448054 0.392329 -0.252487
Cu1   Cu    Cu3+1 0.500000 0.499980 0.640670 1.024694
Cu2   Cu    Cu3+1 0.500000 0.500020 0.359330 1.061628
H1    H     H_    0.348754 0.399506 0.309287 0.173808
H2    H     H_    0.258047 0.619238 0.686473 0.176540
H3    H     H_    0.121081 0.810411 0.402023 0.190542
H4    H     H_    0.962999 0.803721 0.368067 0.142151
H5    H     H_    0.646091 0.662993 0.641052 0.157825
H6    H     H_    0.877762 0.801267 0.372657 0.192132
H7    H     H_    0.734366 0.672709 0.652279 0.167400
H8    H     H_    0.035838 0.817006 0.407973 0.140159
H9    H     H_    0.451655 0.903412 0.757733 0.230244
H10   H     H_    0.260401 0.402524 0.306821 0.159104
H11   H     H_    0.512809 0.897088 0.839417 0.241492
H12   H     H_    0.455932 0.123683 0.751962 0.188900
H13   H     H_    0.517247 0.117413 0.833620 0.278401
H14   H     H_    0.431142 0.420158 0.129384 0.144196
H15   H     H_    0.431220 0.419776 0.870205 0.147640
H16   H     H_    0.612879 0.579858 0.872810 0.114309
H17   H     H_    0.595127 0.432876 0.135024 0.299545
H18   H     H_    0.610470 0.599422 0.122868 0.174102
H19   H     H_    0.121115 0.217533 0.602570 0.190454
H20   H     H_    0.745437 0.358130 0.375759 0.183297
H21   H     H_    0.879182 0.243593 0.674895 0.192212
H22   H     H_    0.964441 0.238384 0.671130 0.142368
H23   H     H_    0.035896 0.217783 0.612916 0.140452
N1    N     N_R   0.202014 0.511201 0.496441 -0.461579
N2    N     N_R   0.797416 0.520800 0.521000 -0.460041
N3    N     N_R   0.500300 0.500930 0.147930 -0.166429
N4    N     N_R   0.500310 0.500890 0.852020 -0.176399
O1    O     O_R   0.500000 0.319640 0.618810 -0.570935
O2    O     O_2   0.797403 0.328078 0.631112 -0.507840
O3    O     O_2   0.202816 0.717526 0.424888 -0.513198
O4    O     O_2   0.796286 0.714998 0.414379 -0.521817
O5    O     O_R   0.500010 0.319680 0.381230 -0.510036
O6    O     O_R   0.430260 0.500000 0.618780 -0.559369
O7    O     O_R   0.430270 0.500040 0.381190 -0.595307
O8    O     O_R   0.499990 0.680320 0.618770 -0.586480
O9    O     O_R   0.500000 0.680360 0.381190 -0.533213
O10   O     O_R   0.569730 0.499960 0.618810 -0.560586
O11   O     O_R   0.569740 0.500000 0.381220 -0.576377
O12   O     O_2   0.202820 0.304669 0.567289 -0.522513
S1    S     S_3+6 0.517605 0.122248 0.191982 0.079640
O13   O     O_2   0.555249 0.220368 0.198026 -0.178881
O14   O     O_2   0.535902 0.023186 0.093616 -0.260106
O15   O     O_3   0.466426 0.182071 0.127656 -0.557273
H24   H     H_    0.449127 0.111622 0.085251 0.373205
Cl1   Cl    Cl    0.465288 0.865402 0.221532 -0.548164
Cl2   Cl    Cl    0.597744 0.355700 0.865824 -0.475604
Cl3   Cl    Cl    0.648239 0.292836 0.336287 -0.523183
Cl4   Cl    Cl    0.356593 0.654077 0.743542 -0.595505

loop_
_geom_bond_atom_site_label_1
_geom_bond_atom_site_label_2
_ccdc_geom_bond_type
C10   C27   A    
C21   C26   A    
C24   H5    S    
C41   C42   S    
C34   O10   A    
Cu1   O10   S    
C6    H19   S    
C15   H21   S    
C1    O1    A    
Cu2   O11   S    
C21   H20   S    
C12   O7    A    
C28   C29   A    
C44   N3    A    
C50   H18   S    
C5    C6    A    
C9    C22   A    
Cu2   O5    S    
C53   Cl4   S    
C23   C40   S    
S1    O15   S    
C18   C19   A    
C25   H7    S    
C31   H3    S    
C51   N1    A    
Cu1   O8    S    
C46   N3    A    
C33   H6    S    
C49   H16   S    
S1    O14   D    
C42   H9    S    
C35   H8    S    
C47   N4    A    
C16   C20   A    
C1    O5    A    
Cu2   O7    S    
C43   H13   S    
C21   C22   A    
S1    O13   D    
C27   C30   A    
C36   C41   A    
C4    C7    A    
C3    N1    S    
C51   O3    S    
C4    C28   A    
C39   Cl1   S    
C7    C31   A    
C12   O6    A    
C24   C25   A    
C10   C14   A    
C50   H17   S    
C8    C54   A    
C49   Cl2   S    
C16   C17   A    
C25   C26   A    
C5    C45   A    
C22   Cl3   S    
C37   C38   A    
O15   H24   S    
C8    C12   S    
C20   O2    S    
Cu1   Cu2   S    
C17   C18   A    
C47   H15   S    
C52   H2    S    
C30   H23   S    
C48   C49   S    
C6    C30   A    
C11   C32   A    
C26   N2    S    
C2    C54   A    
C42   H11   S    
C31   C35   A    
C42   C43   S    
C32   H4    S    
Cu1   N4    S    
C45   O12   S    
C39   C40   A    
C52   C53   A    
C44   C50   S    
C46   C47   A    
C40   C41   A    
C14   C15   A    
C34   O11   A    
C4    C5    A    
C2    H10   S    
C10   C13   A    
C8    C53   A    
C3    C52   A    
C9    C24   A    
Cu2   N3    S    
C1    C37   S    
C29   C35   A    
C19   O4    S    
C48   N4    A    
C13   C17   A    
C32   C33   A    
C2    C3    A    
C7    C51   A    
Cu1   O6    S    
C19   N2    A    
C11   C13   A    
C38   C39   A    
C9    C34   S    
C45   N1    A    
C23   O8    A    
C14   H22   S    
C18   C33   A    
C46   H14   S    
C44   C48   A    
Cu2   O9    S    
C11   C29   A    
C36   C37   A    
C49   C50   S    
C38   S1    S    
C27   C28   A    
C23   O9    A    
C36   C43   S    
Cu1   O1    S    
C20   N2    A    
C54   H1    S    
C15   C16   A    
C43   H12   S    
