data_mof_unit_14138.cif
_audit_creation_date              2013-03-05T16:34:04-0500
_audit_creation_method            fapswitch 2.2
_symmetry_space_group_name_H-M    P1
_symmetry_Int_Tables_number       1
_space_group_crystal_system       triclinic
_cell_length_a                    9.637715
_cell_length_b                    10.914833
_cell_length_c                    17.080751
_cell_angle_alpha                 89.015224
_cell_angle_beta                  94.881802
_cell_angle_gamma                 90.393392
_cell_volume                      1789.98452067

loop_
_atom_site_label
_atom_site_type_symbol
_atom_site_description
_atom_site_fract_x
_atom_site_fract_y
_atom_site_fract_z
_atom_type_partial_charge
O1    O     O_R   0.618810 0.319640 0.500000 -0.533636
O2    O     O_R   0.381230 0.319680 0.499990 -0.556729
C1    C     C_R   0.500172 0.262472 0.502714 0.841146
O3    O     O_R   0.631790 0.498830 0.613930 -0.544014
O4    O     O_R   0.394210 0.498870 0.613920 -0.526830
C2    C     C_R   0.518035 0.502855 0.650589 0.879917
Cu1   Cu    Cu3+1 0.640670 0.499980 0.500000 1.078350
Cu2   Cu    Cu3+1 0.359330 0.500020 0.500000 1.077933
O5    O     O_R   0.618770 0.680320 0.500010 -0.600977
O6    O     O_R   0.381190 0.680360 0.500000 -0.582774
O7    O     O_R   0.605790 0.501130 0.386080 -0.541892
O8    O     O_R   0.368210 0.501170 0.386070 -0.566797
C3    C     C_R   0.500073 0.737491 0.501639 0.829053
C4    C     C_R   0.482390 0.499786 0.348863 0.861486
C5    C     C_R   0.528218 0.513051 0.736474 -0.146550
C6    C     C_R   0.437902 0.590291 0.774439 0.321092
C7    C     C_R   0.443334 0.588443 0.856672 -0.164320
C8    C     C_R   0.540380 0.514560 0.901080 0.311778
C9    C     C_R   0.632405 0.442741 0.863257 -0.086674
C10   C     C_R   0.624390 0.439819 0.781695 -0.175223
C11   C     C_R   0.547893 0.429635 0.137044 0.223604
C12   C     C_R   0.565408 0.431613 0.219614 0.208352
C13   C     C_R   0.444800 0.503707 0.095559 0.140164
N1    N     N_2   0.549633 0.511254 0.984009 -0.154446
N2    N     N_2   0.434492 0.514300 0.012124 -0.132194
C14   C     C_R   0.473097 0.499689 0.261761 -0.258254
H1    H     H_    0.707297 0.385344 0.897284 0.215937
C15   C     C_R   0.369810 0.569292 0.220020 -0.244985
C16   C     C_R   0.353107 0.571688 0.137725 0.291063
H2    H     H_    0.304196 0.624784 0.252184 0.262596
C17   C     C_R   0.623677 0.062936 0.529960 0.054974
C18   C     C_R   0.500034 0.129018 0.511970 -0.115028
C19   C     C_R   0.373287 0.063521 0.505480 -0.086454
H3    H     H_    0.274819 0.110715 0.495812 0.229266
C20   C     C_R   0.372602 0.935432 0.505356 -0.093442
C21   C     C_R   0.498727 0.870473 0.510516 -0.044053
C22   C     C_R   0.621745 0.935872 0.527525 0.053812
C23   C     C_3   0.754828 0.927782 0.490380 -0.546562
C24   C     C_3   0.761191 0.066136 0.493642 0.526805
C25   C     C_R   0.064002 0.544775 0.436543 0.158487
N3    N     N_R   0.147870 0.500930 0.499500 -0.299388
C26   C     C_R   0.082903 0.446307 0.559724 0.343797
C27   C     C_R   0.935559 0.450785 0.561180 0.343057
N4    N     N_R   0.851960 0.500890 0.499500 -0.271573
C28   C     C_R   0.916625 0.542893 0.436503 0.254032
C29   C     C_3   0.902084 0.669757 0.406159 -0.480639
C30   C     C_3   0.058698 0.675101 0.407142 0.104347
H4    H     H_    0.843447 0.675309 0.347282 0.258132
H5    H     H_    0.863213 0.727300 0.451092 0.170499
N5    N     N_R   0.675837 0.361867 0.259470 0.181055
O9    O     O_R   0.684263 0.245861 0.244701 -0.192327
O10   O     O_R   0.787587 0.419114 0.287325 -0.264907
H6    H     H_    0.273624 0.888339 0.496595 0.176103
H7    H     H_    0.836106 0.881455 0.530266 0.220478
H8    H     H_    0.739039 0.892393 0.429646 0.217795
N6    N     N_R   0.880043 0.106689 0.546721 0.149980
O11   O     O_R   0.997220 0.133727 0.517808 -0.309580
O12   O     O_R   0.883608 0.077669 0.621165 -0.264919
N7    N     N_R   0.752353 0.125529 0.415640 0.131250
O13   O     O_R   0.658419 0.089215 0.361581 -0.316416
O14   O     O_R   0.828253 0.221212 0.401787 -0.238822
N8    N     N_R   0.162126 0.381644 0.621795 0.174843
O15   O     O_R   0.173047 0.424731 0.692604 -0.267335
O16   O     O_R   0.201517 0.270019 0.611092 -0.284482
N9    N     N_R   0.877470 0.410120 0.631098 0.161846
O17   O     O_R   0.804615 0.309787 0.632019 -0.310621
O18   O     O_R   0.900442 0.472638 0.695117 -0.301488
N10   N     N_R   0.103021 0.691128 0.328130 0.148195
O19   O     O_R   0.171621 0.789781 0.311165 -0.313005
O20   O     O_R   0.054119 0.619983 0.271686 -0.275376
N11   N     N_R   0.633762 0.350488 0.095531 0.178498
O21   O     O_R   0.576830 0.267908 0.048823 -0.271045
O22   O     O_R   0.768651 0.362473 0.103016 -0.228891
H9    H     H_    0.108090 0.741238 0.449872 0.122447
H10   H     H_    0.690466 0.377059 0.754163 0.244823
H11   H     H_    0.375074 0.647324 0.886190 0.220522
N12   N     N_R   0.245335 0.646387 0.097876 0.178132
O23   O     O_R   0.196723 0.740066 0.132697 -0.224118
O24   O     O_R   0.188514 0.617131 0.028824 -0.263079
N13   N     N_R   0.344007 0.673460 0.731006 0.152758
O25   O     O_R   0.385844 0.738023 0.672695 -0.363403
O26   O     O_R   0.224678 0.699049 0.757019 -0.255159

loop_
_geom_bond_atom_site_label_1
_geom_bond_atom_site_label_2
_geom_bond_distance
_ccdc_geom_bond_type
C25   C30   1.500115 S    
C20   H6    1.080833 S    
N3    C26   1.374441 A    
C9    C10   1.389599 A    
Cu1   Cu2   2.711478 S    
N12   O23   1.301405 A    
Cu1   O7    1.946109 S    
C29   H5    1.092062 S    
N8    O15   1.300869 A    
C11   N11   1.436918 S    
C8    N1    1.411558 S    
C13   C16   1.409226 A    
C15   C16   1.400987 A    
O4    C2    1.300521 A    
O7    C4    1.300050 A    
C5    C6    1.419102 A    
N6    O11   1.300647 A    
C8    C9    1.393905 A    
O5    C3    1.309444 A    
N8    O16   1.299149 A    
C2    C5    1.468003 S    
C23   H8    1.111131 S    
C24   N6    1.469712 S    
N6    O12   1.302787 A    
C6    C7    1.400924 A    
N9    O18   1.301056 A    
C7    H11   1.083256 S    
N5    O10   1.300198 A    
C9    H1    1.083298 S    
C26   N8    1.431463 S    
C27   N9    1.424363 S    
C12   N5    1.430269 S    
N7    O13   1.301798 A    
C11   C12   1.406613 A    
C5    C10   1.400614 A    
O3    Cu1   1.954974 S    
N5    O9    1.299748 A    
N12   O24   1.301383 A    
C25   C28   1.420323 A    
C29   H4    1.111785 S    
N7    O14   1.300868 A    
C19   H3    1.081828 S    
N1    N2    1.246954 D    
C3    C21   1.462225 S    
O3    C2    1.309356 A    
N11   O22   1.301326 A    
N10   O19   1.301027 A    
C28   C29   1.473525 S    
C4    C14   1.482862 S    
C17   C22   1.388170 A    
C10   H10   1.078879 S    
O1    C1    1.302722 A    
C20   C21   1.406944 A    
C27   N4    1.378398 A    
C22   C23   1.482373 S    
C17   C18   1.405888 A    
C23   H7    1.111845 S    
Cu2   O8    1.954975 S    
C24   N7    1.467762 S    
C7    C8    1.403211 A    
Cu1   N4    2.037053 S    
Cu2   N3    2.037373 S    
N13   O26   1.301424 A    
C25   N3    1.370555 A    
O8    C4    1.317065 A    
C11   C13   1.419317 A    
C26   C27   1.423576 A    
C30   N10   1.457201 S    
N4    C28   1.360042 A    
Cu1   O5    1.981109 S    
C29   C30   1.508802 S    
C21   C22   1.391587 A    
O1    Cu1   1.978185 S    
O2    Cu2   1.981110 S    
C30   H9    1.111148 S    
N13   O25   1.300572 A    
O6    C3    1.299123 A    
O4    Cu2   1.946109 S    
C14   C15   1.395484 A    
C18   C19   1.408267 A    
C15   H2    1.069766 S    
O2    C1    1.306098 A    
N11   O21   1.301310 A    
C23   C24   1.512726 S    
C19   C20   1.398077 A    
C17   C24   1.510319 S    
C13   N2    1.422910 S    
C1    C18   1.462486 S    
C16   N12   1.441908 S    
Cu2   O6    1.978185 S    
N9    O17   1.297409 A    
C12   C14   1.413619 A    
N10   O20   1.303067 A    
C6    N13   1.437783 S    
