data_mof_unit_35040.cif
_audit_creation_date              2012-12-10T19:22:11-0500
_audit_creation_method            fapswitch 2.2
_symmetry_space_group_name_H-M    P1
_symmetry_Int_Tables_number       1
_space_group_crystal_system       triclinic
_cell_length_a                    15.857197
_cell_length_b                    15.039978
_cell_length_c                    23.537714
_cell_angle_alpha                 89.542666
_cell_angle_beta                  90.860953
_cell_angle_gamma                 91.670626
_cell_volume                      5610.37458907

loop_
_atom_site_label
_atom_site_type_symbol
_atom_type_description
_atom_site_fract_x
_atom_site_fract_y
_atom_site_fract_z
_atom_type_partial_charge
C1    C     C_R   0.338347 0.498852 0.500972 0.908558
C2    C     C_R   0.377338 0.411401 0.968188 0.373340
C3    C     C_R   0.370583 0.430231 0.026625 -0.184945
C4    C     C_R   0.442082 0.465212 0.056882 -0.101352
C5    C     C_R   0.520053 0.477131 0.029153 -0.043385
C6    C     C_R   0.594191 0.499431 0.060709 -0.179867
C7    C     C_R   0.670373 0.521418 0.032277 0.324675
C8    C     C_R   0.674410 0.508049 0.973116 0.323493
C9    C     C_R   0.439507 0.488545 0.114500 0.586631
C10   C     C_R   0.589296 0.494867 0.120247 0.639728
C11   C     C_R   0.556428 0.561277 0.237232 -0.120123
C12   C     C_R   0.499342 0.500520 0.388902 1.023823
C13   C     C_R   0.555775 0.561575 0.296485 0.373281
C14   C     C_R   0.499927 0.502204 0.326090 -0.318889
C15   C     C_R   0.445805 0.444105 0.293943 0.333461
C16   C     C_R   0.455115 0.438955 0.235513 -0.124358
C17   C     C_R   0.508354 0.498485 0.206702 0.115975
C18   C     C_R   0.473977 0.561764 0.765209 0.424767
C19   C     C_R   0.464881 0.561089 0.705667 -0.169491
C20   C     C_R   0.509789 0.499682 0.673364 -0.211028
C21   C     C_R   0.562120 0.437174 0.700815 -0.144968
C22   C     C_R   0.564138 0.431980 0.760498 -0.122055
C23   C     C_R   0.662044 0.501127 0.501432 0.946543
C24   C     C_R   0.520064 0.494076 0.792260 0.078633
C25   C     C_3   0.057456 0.600925 0.509179 -0.404764
C26   C     C_3   0.048990 0.434723 0.549667 -0.261899
C27   C     C_3   0.948407 0.432952 0.544471 -0.369332
C28   C     C_3   0.957988 0.595934 0.517261 -0.306144
C29   C     C_1   0.750627 0.503548 0.501914 0.020576
C30   C     C_3   0.083997 0.498169 0.496965 -0.162618
C31   C     C_3   0.917316 0.501655 0.497242 -0.040579
C32   C     C_3   0.945025 0.472855 0.433909 -0.366045
C33   C     C_3   0.047810 0.463747 0.433936 0.461270
C34   C     C_1   0.825631 0.504283 0.500815 0.118634
C35   C     C_1   0.175331 0.496145 0.497797 0.194353
C36   C     C_R   0.501379 0.499827 0.610957 0.902855
C37   C     C_1   0.250196 0.496395 0.499485 0.134393
C38   C     C_3   0.424370 0.052197 0.453582 0.369533
C39   C     C_3   0.414443 0.941973 0.462398 0.360686
C40   C     C_3   0.476690 0.049390 0.559446 0.157233
C41   C     C_3   0.487828 0.945208 0.561727 0.136099
C42   C     C_3   0.496081 0.090457 0.498445 -0.452824
C43   C     C_3   0.495991 0.908866 0.499233 -0.458186
C44   C     C_3   0.579457 0.951905 0.472735 0.157381
C45   C     C_3   0.584517 0.056376 0.479287 0.135746
C46   C     C_1   0.497940 0.808742 0.499137 0.548840
C47   C     C_1   0.497255 0.191062 0.498906 0.513729
C48   C     C_R   0.593721 0.507242 0.882230 0.663279
C49   C     C_R   0.450048 0.455038 0.879232 0.698262
C50   C     C_R   0.449085 0.445146 0.938668 -0.116363
C51   C     C_R   0.522485 0.472331 0.969736 -0.084096
C52   C     C_R   0.598284 0.494610 0.941397 -0.166234
H1    H     H_    0.950143 0.591859 0.563725 0.190712
H2    H     H_    0.925483 0.462669 0.583864 0.211271
H3    H     H_    0.408867 0.055943 0.563532 0.216860
H4    H     H_    0.427996 0.917011 0.578118 0.192524
H5    H     H_    0.594643 0.082826 0.436074 0.195525
H6    H     H_    0.570741 0.942668 0.427084 0.188913
H7    H     H_    0.595996 0.608788 0.214381 0.229811
H8    H     H_    0.417518 0.390419 0.211665 0.219093
N1    N     N_R   0.521116 0.486183 0.852936 -0.347292
N2    N     N_R   0.512578 0.495333 0.145841 -0.337762
N3    N     N_1   0.498630 0.731150 0.498860 -0.016857
N4    N     N_1   0.498630 0.268850 0.498860 -0.042691
O1    O     O_R   0.377210 0.574260 0.500060 -0.578412
O2    O     O_R   0.377210 0.425740 0.500060 -0.616156
O3    O     O_R   0.500050 0.574250 0.416220 -0.565143
O4    O     O_R   0.500050 0.425750 0.416220 -0.587633
O5    O     O_R   0.622930 0.574200 0.500060 -0.582357
O6    O     O_R   0.622930 0.425800 0.500060 -0.594512
O7    O     O_R   0.500100 0.574210 0.583900 -0.592318
O8    O     O_R   0.500100 0.425790 0.583900 -0.598120
O9    O     O_2   0.659088 0.544929 0.854024 -0.440068
O10   O     O_2   0.379686 0.439280 0.847661 -0.414849
O11   O     O_2   0.365429 0.505777 0.139018 -0.492455
O12   O     O_2   0.659734 0.485653 0.152284 -0.446580
Zn1   Zn    Zn3+2 0.500090 0.599130 0.500080 1.160003
Zn2   Zn    Zn3+2 0.500090 0.400870 0.500080 1.133583
S1    S     S_3+6 0.303270 0.334745 0.935252 0.133409
O13   O     O_2   0.346778 0.280344 0.891730 -0.205373
O14   O     O_2   0.264682 0.271827 0.978178 -0.246351
O15   O     O_3   0.226191 0.392415 0.903517 -0.434347
H9    H     H_    0.190351 0.347156 0.883577 0.408168
C53   C     C_2   0.402863 0.619578 0.677728 1.030955
O16   O     O_2   0.327912 0.598207 0.677941 -0.550459
O17   O     O_R   0.430087 0.699031 0.651813 -0.704557
H10   H     H_    0.381891 0.732946 0.634096 0.366178
C54   C     C_2   0.614385 0.377045 0.667138 1.058634
O18   O     O_2   0.611966 0.296990 0.676455 -0.504936
O19   O     O_R   0.665955 0.412319 0.624518 -0.788618
H11   H     H_    0.693320 0.364175 0.602044 0.396606
C55   C     C_2   0.613592 0.362959 0.790740 1.029007
O20   O     O_2   0.687623 0.352886 0.779170 -0.525459
O21   O     O_R   0.575588 0.310548 0.833066 -0.765943
H12   H     H_    0.615829 0.266996 0.851069 0.381700
C56   C     C_2   0.101228 0.641799 0.563199 0.970310
O22   O     O_2   0.060403 0.674248 0.601190 -0.537704
O23   O     O_R   0.189454 0.646901 0.567764 -0.736185
H13   H     H_    0.210341 0.677096 0.603884 0.389178
C57   C     C_2   0.079408 0.471170 0.608202 0.903561
O24   O     O_2   0.155230 0.476964 0.619049 -0.560899
O25   O     O_R   0.023109 0.493781 0.650694 -0.743530
H14   H     H_    0.052749 0.515486 0.686671 0.399750
C58   C     C_2   0.085158 0.340992 0.555716 1.052861
O26   O     O_2   0.154767 0.324892 0.537577 -0.561360
O27   O     O_R   0.047117 0.278824 0.592614 -0.747709
H15   H     H_    0.079120 0.221561 0.595862 0.379242
C59   C     C_2   0.090685 0.668739 0.464330 1.074803
O28   O     O_2   0.166520 0.673760 0.455610 -0.455649
O29   O     O_R   0.042031 0.733318 0.437487 -0.658444
H16   H     H_    0.984087 0.711929 0.425242 0.350286
C60   C     C_2   0.899303 0.343662 0.550703 1.091305
O30   O     O_2   0.845075 0.335817 0.587030 -0.568954
O31   O     O_R   0.916551 0.269644 0.518178 -0.685894
H17   H     H_    0.881176 0.215161 0.529119 0.382135
C61   C     C_2   0.910174 0.683152 0.513311 1.000727
O32   O     O_2   0.945550 0.752504 0.528642 -0.508144
O33   O     O_R   0.824573 0.684689 0.498841 -0.750915
H18   H     H_    0.801476 0.746508 0.501118 0.405313
S2    S     S_3+6 0.099216 0.523857 0.372363 0.116935
O34   O     O_2   0.192788 0.533309 0.382167 -0.239004
O35   O     O_2   0.086051 0.472280 0.318455 -0.098619
O36   O     O_3   0.063350 0.624780 0.355713 -0.558422
H19   H     H_    0.101806 0.648708 0.326150 0.427266
S3    S     S_3+6 0.081900 0.348081 0.418911 0.129232
O37   O     O_2   0.174981 0.342067 0.429737 -0.239009
O38   O     O_2   0.037445 0.277794 0.453231 -0.260611
O39   O     O_3   0.066802 0.316813 0.350923 -0.391279
H20   H     H_    0.095697 0.259593 0.347630 0.415201
C62   C     C_2   0.913008 0.540102 0.389051 0.976477
O40   O     O_2   0.921503 0.525675 0.338315 -0.444531
O41   O     O_R   0.866904 0.613356 0.404036 -0.808221
H21   H     H_    0.849681 0.651042 0.370108 0.389934
C63   C     C_2   0.896489 0.387267 0.413578 1.020987
O42   O     O_2   0.836858 0.355316 0.439745 -0.595253
O43   O     O_R   0.911967 0.352676 0.359879 -0.645761
H22   H     H_    0.874192 0.299190 0.350203 0.385992
S4    S     S_3+6 0.315329 0.903567 0.498414 0.102674
O44   O     O_2   0.242386 0.900836 0.456837 -0.103999
O45   O     O_2   0.325234 0.810166 0.520259 -0.290957
O46   O     O_3   0.286888 0.963957 0.554254 -0.544891
H23   H     H_    0.234731 0.934092 0.568418 0.414664
S5    S     S_3+6 0.324986 0.112967 0.461966 0.148565
O47   O     O_2   0.336157 0.204413 0.436591 -0.235026
O48   O     O_2   0.254065 0.067374 0.429600 -0.129980
O49   O     O_3   0.294629 0.129145 0.529114 -0.516626
H24   H     H_    0.239700 0.158581 0.525621 0.421639
C64   C     C_2   0.290710 0.407529 0.056204 1.123841
O50   O     O_2   0.224452 0.438359 0.038997 -0.500769
O51   O     O_R   0.291290 0.349685 0.103024 -0.734434
H25   H     H_    0.233069 0.339163 0.119430 0.387556
S6    S     S_3+6 0.507093 0.113650 0.621878 0.152471
O52   O     O_2   0.600795 0.124154 0.629589 -0.121675
O53   O     O_2   0.469959 0.204300 0.617388 -0.280372
O54   O     O_3   0.466485 0.063771 0.679857 -0.443243
H26   H     H_    0.484782 0.102239 0.711982 0.407380
S7    S     S_3+6 0.555430 0.898453 0.617176 0.159113
O55   O     O_2   0.581979 0.806475 0.602466 -0.247866
O56   O     O_2   0.632730 0.954758 0.629738 -0.123402
O57   O     O_3   0.498896 0.889278 0.676928 -0.445205
H27   H     H_    0.537279 0.862182 0.705328 0.418274
S8    S     S_3+6 0.679514 0.108227 0.510990 0.148381
O58   O     O_2   0.663990 0.199580 0.533143 -0.254700
O59   O     O_2   0.716669 0.053878 0.558189 -0.144231
O60   O     O_3   0.751166 0.120672 0.459206 -0.469231
H28   H     H_    0.805531 0.102777 0.476370 0.402812
S9    S     S_3+6 0.676994 0.891975 0.479395 0.113339
O61   O     O_2   0.744666 0.940287 0.446267 -0.239939
O62   O     O_2   0.707484 0.880896 0.539495 -0.143418
O63   O     O_3   0.662333 0.790425 0.451000 -0.552223
H29   H     H_    0.701360 0.788812 0.418596 0.403947
S10   S     S_3+6 0.453746 0.087613 0.380051 0.115509
O64   O     O_2   0.490446 0.180835 0.381235 -0.272755
O65   O     O_2   0.517732 0.031344 0.352434 -0.268771
O66   O     O_3   0.367714 0.089176 0.337303 -0.374110
H30   H     H_    0.389413 0.103687 0.298987 0.410057
S11   S     S_3+6 0.403602 0.877862 0.395345 0.145676
O67   O     O_2   0.340233 0.919585 0.356176 -0.146643
O68   O     O_2   0.484424 0.867088 0.364149 -0.235446
O69   O     O_3   0.366592 0.774097 0.409778 -0.472109
H31   H     H_    0.360580 0.744609 0.372393 0.400998
S12   S     S_3+6 0.753078 0.584010 0.067496 0.165604
O70   O     O_2   0.812145 0.521425 0.096795 -0.154953
O71   O     O_2   0.801727 0.641072 0.025976 -0.180380
O72   O     O_3   0.711837 0.651317 0.115964 -0.514271
H32   H     H_    0.760831 0.674659 0.138428 0.414475
S13   S     S_3+6 0.774077 0.488974 0.941639 0.159857
O73   O     O_2   0.808089 0.573732 0.915202 -0.156459
O74   O     O_2   0.836273 0.456591 0.985353 -0.186808
O75   O     O_3   0.762289 0.410739 0.891257 -0.507840
H33   H     H_    0.817837 0.409107 0.872661 0.416807
S14   S     S_3+6 0.627492 0.635959 0.331087 0.071971
O76   O     O_2   0.690497 0.675077 0.290100 -0.242842
O77   O     O_2   0.578726 0.709660 0.356315 -0.229070
O78   O     O_3   0.679245 0.581052 0.382465 -0.570772
H34   H     H_    0.703521 0.628178 0.407347 0.406091
S15   S     S_3+6 0.358677 0.383172 0.321394 0.131720
O79   O     O_2   0.284327 0.391848 0.281560 -0.168756
O80   O     O_2   0.380492 0.286918 0.324979 -0.213248
O81   O     O_3   0.331589 0.419941 0.385163 -0.524001
H35   H     H_    0.326832 0.365648 0.408832 0.425606
S16   S     S_3+6 0.426770 0.646814 0.805565 0.096834
O82   O     O_2   0.468040 0.657001 0.863135 -0.280286
O83   O     O_2   0.434444 0.734377 0.774573 -0.239652
O84   O     O_3   0.323967 0.619899 0.813573 -0.457634
H36   H     H_    0.301350 0.668889 0.836140 0.407803

loop_
_geom_bond_atom_site_label_1
_geom_bond_atom_site_label_2
_ccdc_geom_bond_type
S5    O49   S    
O75   H33   S    
C49   O10   S    
O6    Zn2   S    
C38   S5    S    
C23   O5    A    
C33   S2    S    
O5    Zn1   S    
C19   C20   A    
O3    Zn1   S    
O7    Zn1   S    
C43   C44   S    
O39   H20   S    
C58   O27   S    
O31   H17   S    
O19   H11   S    
C27   H2    S    
C7    C8    A    
S9    O62   D    
O84   H36   S    
C61   O32   D    
C25   C28   S    
C12   O4    A    
C45   H5    S    
C26   C27   S    
O60   H28   S    
C13   S14   S    
S16   O83   D    
C30   C35   S    
C18   C24   A    
C23   C29   S    
O43   H22   S    
C35   C37   T    
C64   O51   S    
C38   C42   S    
C5    C6    A    
C15   S15   S    
S13   O74   D    
O27   H15   S    
S15   O79   D    
S5    O47   D    
O23   H13   S    
C59   O28   D    
C40   S6    S    
C18   C19   A    
C16   H8    S    
S15   O80   D    
O33   H18   S    
C60   O30   D    
S13   O75   S    
O8    Zn2   S    
C2    S1    S    
C2    C50   A    
C53   O17   S    
C26   C58   S    
C33   S3    S    
S12   O70   D    
C10   O12   S    
S7    O55   D    
C31   C32   S    
C44   H6    S    
O81   H35   S    
S11   O68   D    
S16   O84   S    
C56   O23   S    
S3    O39   S    
C1    O1    A    
C28   C61   S    
C8    C52   A    
C7    S12   S    
C36   O7    A    
C1    C37   S    
S11   O69   S    
C40   C42   S    
C21   C54   S    
C3    C64   S    
S7    O56   D    
C21   C22   A    
C41   C43   S    
C23   O6    A    
C10   N2    A    
C11   H7    S    
C32   C62   S    
C58   O26   D    
C39   S11   S    
S10   O65   D    
C1    O2    A    
S9    O63   S    
S8    O59   D    
C8    S13   S    
O4    Zn2   S    
O2    Zn2   S    
C12   O3    A    
O1    Zn1   S    
S16   O82   D    
C27   C31   S    
C9    N2    A    
S14   O78   S    
O36   H19   S    
C49   N1    A    
C53   O16   D    
S9    O61   D    
S1    O14   D    
O17   H10   S    
C16   C17   A    
C63   O43   S    
C29   C34   T    
O29   H16   S    
C32   C33   S    
C42   C45   S    
S14   O77   D    
S15   O81   S    
C62   O41   S    
C45   S8    S    
C41   H4    S    
C17   N2    S    
S8    O60   S    
C62   O40   D    
O66   H30   S    
S6    O54   S    
C48   C52   A    
C40   H3    S    
C56   O22   D    
C55   O21   S    
C50   C51   A    
S2    O34   D    
C31   C34   S    
O21   H12   S    
C18   S16   S    
C20   C21   A    
C6    C7    A    
S4    O45   D    
C61   O33   S    
C24   N1    S    
C41   S7    S    
C60   O31   S    
C40   C41   S    
C57   O25   S    
S6    O53   D    
C27   C60   S    
C49   C50   A    
S7    O57   S    
S3    O37   D    
C22   C24   A    
S1    O13   D    
C19   C53   S    
C47   N4    T    
S10   O64   D    
S2    O35   D    
S10   O66   S    
O49   H24   S    
N3    Zn1   S    
C25   C30   S    
S5    O48   D    
C11   C17   A    
C54   O19   S    
C30   C33   S    
O51   H25   S    
N4    Zn2   S    
C48   O9    S    
C28   C31   S    
C44   C45   S    
C12   C14   S    
C4    C5    A    
S4    O46   S    
C6    C10   A    
S1    O15   S    
C39   C43   S    
C28   H1    S    
S2    O36   S    
C38   S10   S    
C63   O42   D    
S8    O58   D    
S12   O72   S    
O72   H32   S    
C46   N3    T    
O57   H27   S    
C2    C3    A    
C51   C52   A    
O46   H23   S    
S14   O76   D    
C32   C63   S    
C11   C13   A    
C48   N1    A    
C38   C39   S    
C15   C16   A    
C55   O20   D    
C59   O29   S    
O41   H21   S    
C42   C47   S    
O25   H14   S    
C43   C46   S    
S12   O71   D    
C39   S4    S    
S4    O44   D    
S11   O67   D    
O78   H34   S    
C20   C36   S    
C36   O8    A    
S13   O73   D    
C54   O18   D    
C25   C56   S    
O15   H9    S    
O63   H29   S    
O54   H26   S    
S3    O38   D    
C22   C55   S    
C14   C15   A    
C5    C51   A    
C57   O24   D    
S6    O52   D    
C9    O11   S    
C4    C9    A    
C13   C14   A    
C64   O50   D    
C44   S9    S    
O69   H31   S    
C3    C4    A    
C25   C59   S    
C26   C57   S    
C26   C30   S    
