data_mof_unit_14240.cif
_audit_creation_date              2012-12-10T18:45:32-0500
_audit_creation_method            fapswitch 2.2
_symmetry_space_group_name_H-M    P1
_symmetry_Int_Tables_number       1
_space_group_crystal_system       triclinic
_cell_length_a                    19.389431
_cell_length_b                    18.19921
_cell_length_c                    10.770755
_cell_angle_alpha                 89.884226
_cell_angle_beta                  91.091417
_cell_angle_gamma                 89.917388
_cell_volume                      3799.99991692

loop_
_atom_site_label
_atom_site_type_symbol
_atom_type_description
_atom_site_fract_x
_atom_site_fract_y
_atom_site_fract_z
_atom_type_partial_charge
C1    C     C_R   0.367600 0.500027 0.501809 0.802930
C2    C     C_R   0.632386 0.499973 0.500833 0.805933
C3    C     C_R   0.707885 0.500041 0.501861 -0.155586
C4    C     C_R   0.292127 0.500036 0.507846 -0.159754
C5    C     C_R   0.964706 0.510529 0.620556 -0.122623
C6    C     C_R   0.035618 0.491700 0.398947 -0.121183
C7    C     C_R   0.036518 0.511512 0.621771 -0.185461
C8    C     C_R   0.963862 0.491041 0.397637 -0.179115
C9    C     C_R   0.072148 0.501976 0.510974 0.188025
C10   C     C_R   0.928118 0.500069 0.508494 0.179268
C11   C     C_R   0.457656 0.721447 0.418858 0.578775
C12   C     C_R   0.541497 0.279382 0.583305 0.593248
C13   C     C_R   0.541965 0.720312 0.582794 0.591388
C14   C     C_R   0.459557 0.279470 0.415059 0.612761
C15   C     C_R   0.459773 0.799375 0.415854 -0.393655
C16   C     C_R   0.541323 0.201708 0.585923 -0.375702
C17   C     C_R   0.544908 0.798036 0.580419 -0.382810
C18   C     C_R   0.461877 0.201249 0.412152 -0.393606
C19   C     C_R   0.502821 0.838573 0.498143 0.008121
C20   C     C_R   0.502222 0.161532 0.498824 0.000137
C21   C     C_R   0.508489 0.960992 0.609847 -0.191500
C22   C     C_R   0.499638 0.038782 0.386306 -0.189048
C23   C     C_R   0.499763 0.961513 0.386058 -0.184867
C24   C     C_R   0.507974 0.038260 0.610180 -0.184477
C25   C     C_R   0.503376 0.078617 0.498416 0.172833
C26   C     C_R   0.504034 0.921297 0.497841 0.172271
C27   C     C_R   0.500270 0.499975 0.262804 0.801286
C28   C     C_R   0.499916 0.499891 0.737200 0.794506
C29   C     C_R   0.373512 0.485709 0.125445 -0.126978
C30   C     C_R   0.627348 0.506306 0.874535 -0.131714
C31   C     C_R   0.372908 0.489099 0.866950 -0.152952
C32   C     C_R   0.627532 0.508062 0.133120 -0.147864
C33   C     C_R   0.311378 0.480590 0.058878 -0.167438
C34   C     C_R   0.689548 0.510057 0.941182 -0.158057
C35   C     C_R   0.311039 0.482631 0.929835 -0.149004
C36   C     C_R   0.689643 0.511020 0.070251 -0.146607
C37   C     C_R   0.436702 0.493950 0.932759 0.057258
C38   C     C_R   0.563708 0.503930 0.067261 0.059033
C39   C     C_R   0.436916 0.493073 0.063420 0.083343
C40   C     C_R   0.563614 0.503294 0.936580 0.062512
C41   C     C_R   0.500036 0.499435 0.870892 -0.182941
C42   C     C_R   0.500287 0.499539 0.129109 -0.164036
C43   C     C_R   0.744028 0.438248 0.460880 -0.336732
C44   C     C_R   0.256944 0.563401 0.545067 -0.315145
C45   C     C_R   0.254861 0.436763 0.476067 -0.288331
C46   C     C_R   0.744127 0.561684 0.545031 -0.276378
C47   C     C_R   0.816389 0.438121 0.460284 0.420368
C48   C     C_R   0.184709 0.563991 0.550239 0.415428
C49   C     C_R   0.182973 0.436963 0.477957 0.385217
C50   C     C_R   0.816077 0.562046 0.547076 0.378168
C51   C     C_R   0.852373 0.499725 0.506501 -0.097604
C52   C     C_R   0.147764 0.501198 0.512457 -0.100961
Cu1   Cu    Cu3+1 0.500000 0.573360 0.500000 1.001660
Cu2   Cu    Cu3+1 0.500000 0.426640 0.500000 1.005342
H1    H     H_    0.738000 0.513884 0.121960 0.124030
H2    H     H_    0.262722 0.478961 0.878154 0.124839
H3    H     H_    0.737808 0.512342 0.892401 0.141392
H4    H     H_    0.263353 0.475222 0.107714 0.140579
H5    H     H_    0.371271 0.483745 0.225641 0.134268
H6    H     H_    0.629803 0.505814 0.774305 0.136760
H7    H     H_    0.370178 0.490107 0.766656 0.117863
H8    H     H_    0.630135 0.508650 0.233455 0.115731
H9    H     H_    0.715989 0.390015 0.430121 0.156239
H10   H     H_    0.285511 0.612580 0.568885 0.160619
H11   H     H_    0.281259 0.387274 0.448177 0.169751
H12   H     H_    0.716798 0.609377 0.578840 0.205380
H13   H     H_    0.937627 0.517380 0.706821 0.147664
H14   H     H_    0.062745 0.484561 0.312788 0.141405
H15   H     H_    0.064353 0.518754 0.709009 0.126476
H16   H     H_    0.936150 0.484073 0.310223 0.129370
H17   H     H_    0.428529 0.829544 0.349083 0.142902
H18   H     H_    0.572643 0.173070 0.654689 0.157514
H19   H     H_    0.581373 0.826496 0.640560 0.159527
H20   H     H_    0.432176 0.170763 0.344090 0.154822
H21   H     H_    0.510873 0.932214 0.697913 0.128315
H22   H     H_    0.497565 0.067285 0.298021 0.130684
H23   H     H_    0.497497 0.933220 0.297765 0.132774
H24   H     H_    0.509795 0.066341 0.698658 0.131863
N1    N     N_R   0.500000 0.683620 0.500000 -0.241132
N2    N     N_R   0.500000 0.316380 0.500000 -0.248113
O1    O     O_R   0.400190 0.561980 0.499980 -0.566341
O2    O     O_R   0.599810 0.438020 0.500020 -0.582993
O3    O     O_R   0.599810 0.561980 0.500020 -0.549288
O4    O     O_R   0.400190 0.438020 0.499980 -0.567287
O5    O     O_R   0.500000 0.561950 0.319660 -0.537515
O6    O     O_R   0.500000 0.438050 0.680340 -0.530358
O7    O     O_R   0.500000 0.561950 0.680340 -0.580380
O8    O     O_R   0.500000 0.438050 0.319660 -0.539799
O9    O     O_3   0.853099 0.376018 0.426466 -0.571829
C53   C     C_3   0.835270 0.354996 0.303725 0.059889
H25   H     H_    0.829079 0.403337 0.240490 0.122282
H26   H     H_    0.786749 0.322532 0.302859 0.148164
C54   C     C_3   0.892393 0.306766 0.253351 -0.784661
H27   H     H_    0.899125 0.257089 0.312442 0.250802
H28   H     H_    0.878958 0.289414 0.157115 0.197432
H29   H     H_    0.941700 0.337756 0.252484 0.249266
O10   O     O_3   0.148969 0.627410 0.579998 -0.571084
C55   C     C_3   0.167238 0.650442 0.701458 0.060832
H30   H     H_    0.216702 0.681238 0.700691 0.143484
H31   H     H_    0.171958 0.603288 0.767569 0.122636
C56   C     C_3   0.111418 0.701521 0.748588 -0.788331
H32   H     H_    0.061330 0.672056 0.751361 0.248889
H33   H     H_    0.125304 0.720634 0.843656 0.197199
H34   H     H_    0.105984 0.749998 0.686338 0.250052
O11   O     O_3   0.146927 0.375427 0.439271 -0.580917
C57   C     C_3   0.139415 0.328000 0.541880 0.067252
H35   H     H_    0.115625 0.356892 0.621688 0.138103
H36   H     H_    0.190372 0.305006 0.571696 0.137908
C58   C     C_3   0.092322 0.264756 0.504399 -0.769976
H37   H     H_    0.114945 0.233847 0.426193 0.242474
H38   H     H_    0.085973 0.226883 0.584318 0.194823
H39   H     H_    0.040857 0.286268 0.475133 0.263265
O12   O     O_3   0.850962 0.622213 0.594570 -0.580214
C59   C     C_3   0.860252 0.673440 0.497839 0.074292
H40   H     H_    0.809740 0.697115 0.467027 0.145157
H41   H     H_    0.885941 0.647776 0.416867 0.137256
C60   C     C_3   0.906081 0.735496 0.545131 -0.767916
H42   H     H_    0.957093 0.713307 0.575564 0.259303
H43   H     H_    0.913820 0.776323 0.469932 0.195594
H44   H     H_    0.881578 0.763254 0.624789 0.245406
O13   O     O_3   0.418561 0.681948 0.332774 -0.544746
C61   C     C_3   0.349167 0.706027 0.329251 0.057138
H45   H     H_    0.344148 0.759600 0.280388 0.130455
H46   H     H_    0.328058 0.710608 0.424460 0.134040
C62   C     C_3   0.305659 0.651053 0.256065 -0.756924
H47   H     H_    0.250798 0.668667 0.254613 0.201690
H48   H     H_    0.323900 0.647600 0.159111 0.244206
H49   H     H_    0.309431 0.595936 0.299403 0.248665
O14   O     O_3   0.578062 0.319272 0.672036 -0.548185
C63   C     C_3   0.649148 0.301097 0.675013 0.067327
H50   H     H_    0.678828 0.351947 0.656779 0.180467
H51   H     H_    0.665213 0.260212 0.604063 0.114609
C64   C     C_3   0.669796 0.273857 0.804182 -0.820723
H52   H     H_    0.658053 0.316568 0.874289 0.263167
H53   H     H_    0.641182 0.222936 0.826771 0.237433
H54   H     H_    0.725981 0.261964 0.808086 0.208902
O15   O     O_3   0.587124 0.680104 0.657685 -0.560210
C65   C     C_3   0.582695 0.699849 0.784652 0.053743
H55   H     H_    0.559284 0.653591 0.835976 0.183366
H56   H     H_    0.550383 0.749047 0.804066 0.108918
C66   C     C_3   0.654968 0.712325 0.837799 -0.802204
H57   H     H_    0.679253 0.759733 0.790648 0.239799
H58   H     H_    0.652356 0.723880 0.938826 0.210841
H59   H     H_    0.687197 0.662618 0.823956 0.259999
O16   O     O_3   0.422098 0.321817 0.329177 -0.551421
C67   C     C_3   0.362806 0.287721 0.277053 0.037674
H60   H     H_    0.322064 0.330342 0.267449 0.171252
H61   H     H_    0.340259 0.244182 0.336483 0.118474
C68   C     C_3   0.377497 0.260259 0.146449 -0.807828
H62   H     H_    0.330636 0.233716 0.106356 0.206468
H63   H     H_    0.391885 0.307268 0.086300 0.266509
H64   H     H_    0.420426 0.219932 0.147685 0.235033

loop_
_geom_bond_atom_site_label_1
_geom_bond_atom_site_label_2
_ccdc_geom_bond_type
C38   C40   A    
C21   C26   A    
C13   N1    A    
C56   H32   S    
C60   H42   S    
C14   C18   A    
C16   H18   S    
C22   H22   S    
C5    H13   S    
C6    C9    A    
Cu2   O4    S    
O10   C55   S    
C43   H9    S    
Cu1   Cu2   S    
C44   H10   S    
C1    O4    A    
C15   C19   A    
C48   O10   S    
C14   O16   S    
C3    C43   A    
C33   H4    S    
C32   C36   A    
Cu1   N1    S    
C46   H12   S    
C66   H58   S    
C57   H35   S    
C1    O1    A    
C29   C33   A    
C28   C41   S    
C18   C20   A    
Cu1   O1    S    
C23   C26   A    
C27   O5    A    
C19   C26   S    
C31   H7    S    
C17   C19   A    
C45   H11   S    
C11   C15   A    
C29   H5    S    
C22   C25   A    
C30   H6    S    
C62   H49   S    
C32   C38   A    
C67   H61   S    
C6    H14   S    
C18   H20   S    
C17   H19   S    
C47   O9    S    
C68   H63   S    
C2    O3    A    
C11   O13   S    
C9    C52   S    
C10   C51   S    
O16   C67   S    
C39   C42   A    
Cu2   N2    S    
C4    C45   A    
C12   O14   S    
C30   C34   A    
C12   C16   A    
C24   C25   A    
C60   H44   S    
Cu2   O6    S    
C60   H43   S    
C6    C8    A    
C4    C44   A    
C66   H59   S    
C31   C37   A    
C59   H41   S    
C13   O15   S    
C63   H51   S    
C64   H54   S    
C67   C68   S    
C53   H26   S    
C45   C49   A    
C16   C20   A    
C49   C52   A    
C29   C39   A    
C28   O7    A    
C50   C51   A    
C30   C40   A    
Cu1   O7    S    
C54   H27   S    
C23   H23   S    
C62   H48   S    
O13   C61   S    
C67   H60   S    
C11   N1    A    
C68   H64   S    
C24   H24   S    
C40   C41   A    
C54   H29   S    
C14   N2    A    
C28   O6    A    
C64   H52   S    
C31   C35   A    
C58   H39   S    
C63   C64   S    
C61   H46   S    
O9    C53   S    
Cu2   O2    S    
C53   C54   S    
C5    C7    A    
O12   C59   S    
O15   C65   S    
C7    C9    A    
C46   C50   A    
C35   H2    S    
C8    C10   A    
C49   O11   S    
C65   C66   S    
C7    H15   S    
C47   C51   A    
C59   H40   S    
C65   H56   S    
C56   H34   S    
C55   C56   S    
C15   H17   S    
O11   C57   S    
C21   H21   S    
C3    C46   A    
C8    H16   S    
C56   H33   S    
C13   C17   A    
Cu1   O3    S    
C1    C4    S    
C50   O12   S    
C61   C62   S    
C58   H38   S    
C2    C3    S    
O14   C63   S    
C32   H8    S    
C5    C10   A    
C37   C39   A    
C36   H1    S    
C68   H62   S    
Cu2   O8    S    
C27   C42   S    
C53   H25   S    
C62   H47   S    
C57   H36   S    
C34   H3    S    
C12   N2    A    
C33   C35   A    
C63   H50   S    
C34   C36   A    
C37   C41   A    
C27   O8    A    
C55   H31   S    
C59   C60   S    
C2    O2    A    
C65   H55   S    
C38   C42   A    
C48   C52   A    
C54   H28   S    
C55   H30   S    
C20   C25   S    
C21   C24   A    
C58   H37   S    
C64   H53   S    
C22   C23   A    
Cu1   O5    S    
C61   H45   S    
C66   H57   S    
C43   C47   A    
C44   C48   A    
C57   C58   S    
