data_mof_unit_12700.cif
_audit_creation_date              2012-12-10T16:59:22-0500
_audit_creation_method            fapswitch 2.2
_symmetry_space_group_name_H-M    P1
_symmetry_Int_Tables_number       1
_space_group_crystal_system       triclinic
_cell_length_a                    13.138797
_cell_length_b                    13.092399
_cell_length_c                    17.82705
_cell_angle_alpha                 110.163842
_cell_angle_beta                  73.08576
_cell_angle_gamma                 90.754927
_cell_volume                      2741.1194177

loop_
_atom_site_label
_atom_site_type_symbol
_atom_type_description
_atom_site_fract_x
_atom_site_fract_y
_atom_site_fract_z
_atom_type_partial_charge
C1    C     C_R   0.217226 0.544580 0.531130 0.876640
C2    C     C_R   0.564617 0.370422 0.898851 -0.303796
C3    C     C_R   0.622411 0.309628 0.926139 0.467181
C4    C     C_R   0.781838 0.455737 0.468515 0.830974
C5    C     C_R   0.604553 0.334654 0.013043 -0.085779
C6    C     C_R   0.528916 0.425200 0.070949 0.009345
C7    C     C_R   0.658743 0.273051 0.044785 0.131909
C8    C     C_R   0.646558 0.309410 0.131189 0.397836
C9    C     C_R   0.518056 0.457521 0.156832 -0.300350
C10   C     C_2   0.894966 0.438554 0.456873 -0.279719
C11   C     C_2   0.942899 0.516101 0.501342 -0.167648
C12   C     C_R   0.325012 0.650108 0.869363 -0.270126
C13   C     C_2   0.103796 0.566257 0.542161 -0.351831
C14   C     C_2   0.055680 0.495406 0.492629 -0.132401
C15   C     C_2   0.535867 0.899075 0.533811 0.272469
C16   C     C_R   0.468566 0.217830 0.477873 0.841279
C17   C     C_2   0.451418 0.956351 0.532958 0.299953
C18   C     C_2   0.447837 0.105841 0.476595 -0.099264
C19   C     C_2   0.461395 0.072260 0.537777 0.387816
C20   C     C_R   0.528051 0.783008 0.524429 0.793841
C21   C     C_R   0.552318 0.432370 0.276692 0.879439
C22   C     C_R   0.448553 0.566098 0.723806 0.817971
C23   C     C_R   0.483080 0.533652 0.843992 0.400792
C24   C     C_R   0.419284 0.585864 0.814058 -0.125129
C25   C     C_R   0.575169 0.400606 0.186364 -0.141179
C26   C     C_R   0.293245 0.660717 0.953458 -0.203420
C27   C     C_3   0.431544 0.163614 0.680159 0.090415
C28   C     C_3   0.348895 0.259873 0.703638 -0.371187
C29   C     C_3   0.280888 0.295024 0.795405 -0.942735
C30   C     C_3   0.265636 0.960367 0.575881 0.078535
C31   C     C_3   0.232559 0.921264 0.650458 -0.331724
C32   C     C_3   0.126802 0.981403 0.713713 -0.973471
C33   C     C_3   0.688269 0.914108 0.578669 0.098907
C34   C     C_R   0.443486 0.530745 0.926032 -0.009530
C35   C     C_3   0.636432 0.970721 0.673654 -0.394401
C36   C     C_3   0.695757 0.932839 0.722842 -0.895286
C37   C     C_3   0.796147 0.293703 0.167502 0.072259
C38   C     C_3   0.845215 0.241083 0.214887 -0.288048
C39   C     C_3   0.951497 0.285000 0.222054 -0.965223
C40   C     C_3   0.789526 0.270499 0.832670 0.100653
C41   C     C_3   0.866625 0.179983 0.759205 -0.306854
C42   C     C_3   0.969455 0.224248 0.721557 -0.986167
C43   C     C_3   0.656278 0.572348 0.809129 0.073150
C44   C     C_3   0.762150 0.536304 0.738304 -0.301988
C45   C     C_R   0.351532 0.601626 0.982170 0.112600
C46   C     C_3   0.842797 0.620149 0.752690 -0.985020
C47   C     C_R   0.493806 0.462418 0.954756 -0.001527
C48   C     C_R   0.467341 0.482874 0.041743 0.103280
C49   C     C_R   0.377070 0.557115 0.096422 -0.182385
C50   C     C_R   0.318693 0.612900 0.066484 -0.197437
H1    H     H_    0.248304 0.666638 0.109994 0.151732
H2    H     H_    0.574361 0.340866 0.832447 0.219761
H3    H     H_    0.479529 0.187302 0.724476 0.175205
H4    H     H_    0.391636 0.091352 0.688896 0.095555
H5    H     H_    0.390695 0.330206 0.693191 0.251372
H6    H     H_    0.295906 0.236852 0.663173 0.187661
H7    H     H_    0.237516 0.226192 0.807580 0.265082
H8    H     H_    0.221538 0.364209 0.810124 0.264581
H9    H     H_    0.332043 0.322284 0.837159 0.271041
H10   H     H_    0.203557 0.941794 0.543329 0.185047
H11   H     H_    0.266262 0.050670 0.597930 0.110771
H12   H     H_    0.099967 0.420080 0.444900 0.190258
H13   H     H_    0.223935 0.832243 0.627369 0.259068
H14   H     H_    0.295271 0.934838 0.682355 0.212736
H15   H     H_    0.134139 0.070497 0.739015 0.272922
H16   H     H_    0.104890 0.950778 0.766614 0.278919
H17   H     H_    0.062237 0.967162 0.683612 0.265077
H18   H     H_    0.770204 0.939899 0.562124 0.173657
H19   H     H_    0.699378 0.823942 0.560774 0.120346
H20   H     H_    0.637869 0.060587 0.690369 0.252357
H21   H     H_    0.551887 0.952369 0.692090 0.202297
H22   H     H_    0.691096 0.843909 0.710052 0.243343
H23   H     H_    0.898142 0.593439 0.545199 0.152887
H24   H     H_    0.658699 0.977833 0.791091 0.306016
H25   H     H_    0.781000 0.949064 0.705211 0.255677
H26   H     H_    0.784956 0.383931 0.201349 0.146820
H27   H     H_    0.852453 0.275402 0.103215 0.159296
H28   H     H_    0.789035 0.258298 0.278962 0.213742
H29   H     H_    0.858462 0.151054 0.181413 0.243303
H30   H     H_    0.009215 0.268262 0.158703 0.271935
H31   H     H_    0.985549 0.244205 0.255823 0.265352
H32   H     H_    0.939507 0.374504 0.257595 0.273395
H33   H     H_    0.829214 0.307365 0.881878 0.145921
H34   H     H_    0.059757 0.641226 0.590431 0.153680
H35   H     H_    0.771071 0.334220 0.809027 0.137695
H36   H     H_    0.886732 0.115107 0.780986 0.246750
H37   H     H_    0.827481 0.143177 0.709843 0.228539
H38   H     H_    0.951293 0.289178 0.699143 0.270215
H39   H     H_    0.022790 0.157145 0.667399 0.268470
H40   H     H_    0.011927 0.258262 0.769030 0.269649
H41   H     H_    0.670920 0.583664 0.869831 0.150697
H42   H     H_    0.623815 0.652148 0.811403 0.130626
H43   H     H_    0.796219 0.456554 0.733923 0.219355
H44   H     H_    0.747709 0.525667 0.677752 0.239936
H45   H     H_    0.937555 0.359336 0.415528 0.140528
H46   H     H_    0.812360 0.699487 0.753618 0.268825
H47   H     H_    0.919180 0.590268 0.701111 0.270891
H48   H     H_    0.858403 0.632393 0.813041 0.273421
H49   H     H_    0.467383 0.529197 0.202798 0.156154
H50   H     H_    0.221527 0.713183 0.995737 0.156905
H51   H     H_    0.275767 0.692030 0.847586 0.187344
H52   H     H_    0.345687 0.569315 0.162202 0.149457
I1    I     I_    0.750243 0.117676 0.971858 -0.340241
I2    I     I_    0.398885 0.002381 0.374010 -0.312430
O1    O     O_3   0.500000 0.500000 0.500000 -0.492749
O2    O     O_R   0.474570 0.394560 0.317400 -0.617307
O3    O     O_R   0.403380 0.624270 0.695980 -0.661801
O4    O     O_R   0.609140 0.497770 0.314440 -0.653411
O5    O     O_R   0.512900 0.483390 0.672170 -0.599824
O6    O     O_3   0.502855 0.141232 0.598510 -0.588622
O7    O     O_3   0.363214 0.902253 0.517736 -0.650244
O8    O     O_3   0.631787 0.946962 0.532728 -0.621059
O9    O     O_3   0.698061 0.250408 0.162983 -0.618912
O10   O     O_3   0.696004 0.225582 0.865801 -0.621789
O11   O     O_3   0.585960 0.490552 0.793514 -0.643459
O12   O     O_R   0.526170 0.271940 0.521690 -0.586856
O13   O     O_R   0.451880 0.756290 0.574830 -0.654549
O14   O     O_R   0.271960 0.460780 0.472050 -0.638809
O15   O     O_R   0.749980 0.510990 0.431420 -0.640226
O16   O     O_R   0.262540 0.611050 0.579000 -0.653898
O17   O     O_R   0.715520 0.417170 0.517520 -0.632266
O18   O     O_R   0.426070 0.262540 0.438550 -0.623532
O19   O     O_R   0.595870 0.709230 0.464930 -0.628343
Zn1   Zn    Zn3+2 0.562560 0.419520 0.551940 0.999551
Zn2   Zn    Zn3+2 0.419550 0.406100 0.433160 1.004381
Zn3   Zn    Zn3+2 0.611810 0.553570 0.428930 0.979451
Zn4   Zn    Zn3+2 0.406080 0.620810 0.585960 0.951058

loop_
_geom_bond_atom_site_label_1
_geom_bond_atom_site_label_2
_ccdc_geom_bond_type
C41   C42   S    
C35   C36   S    
C6    C9    A    
C28   H6    S    
C27   H4    S    
C9    C25   A    
C7    C8    A    
C41   H36   S    
C13   H34   S    
C6    C48   A    
O1    Zn3   S    
C10   H45   S    
C32   H16   S    
C28   C29   S    
C38   C39   S    
C11   C14   S    
C37   O9    S    
C38   H29   S    
C22   O3    A    
C14   H12   S    
C16   O12   A    
C18   C19   D    
C16   O18   A    
O17   Zn1   S    
C44   H43   S    
C26   C45   A    
C43   O11   S    
C40   O10   S    
C29   H9    S    
C35   H20   S    
C20   O19   A    
C30   H10   S    
C23   C24   A    
C4    O15   A    
O14   Zn2   S    
C21   O2    A    
C33   H19   S    
C22   O5    A    
C46   H48   S    
C35   H21   S    
C9    H49   S    
C7    I1    S    
C13   C14   D    
C8    C25   A    
C40   H33   S    
C17   O7    S    
C20   O13   A    
C28   H5    S    
C44   C46   S    
C15   C20   S    
C41   H37   S    
O16   Zn4   S    
O1    Zn4   S    
C15   O8    S    
C31   H13   S    
C39   H31   S    
C11   H23   S    
C49   H52   S    
C33   O8    S    
C17   C19   S    
O19   Zn3   S    
C38   H28   S    
C37   H27   S    
C43   H41   S    
O1    Zn1   S    
C12   C26   A    
C42   H40   S    
C1    O16   A    
C40   H35   S    
C43   C44   S    
C37   C38   S    
C36   H25   S    
C47   C48   A    
O2    Zn2   S    
C30   C31   S    
C23   C34   A    
C50   H1    S    
C46   H46   S    
C34   C45   A    
C18   I2    S    
O13   Zn4   S    
C2    H2    S    
C8    O9    S    
C32   H17   S    
C40   C41   S    
C37   H26   S    
C29   H7    S    
C22   C24   S    
C1    C13   S    
C4    C10   S    
C5    C7    A    
C19   O6    S    
C15   C17   D    
C21   C25   S    
C36   H24   S    
O12   Zn1   S    
C31   H14   S    
C46   H47   S    
C31   C32   S    
C39   H32   S    
C3    C5    A    
C3    O10   S    
C27   H3    S    
O5    Zn1   S    
C2    C47   A    
C12   C24   A    
C43   H42   S    
C27   O6    S    
O1    Zn2   S    
C30   O7    S    
C42   H39   S    
C39   H30   S    
O18   Zn2   S    
C2    C3    A    
O3    Zn4   S    
C12   H51   S    
C5    C6    A    
C45   C50   A    
C48   C49   A    
C33   C35   S    
C4    O17   A    
C1    O14   A    
C21   O4    A    
C44   H44   S    
C10   C11   D    
C23   O11   S    
O15   Zn3   S    
C42   H38   S    
C29   H8    S    
C16   C18   S    
C49   C50   A    
C30   H11   S    
C27   C28   S    
C34   C47   A    
O4    Zn3   S    
C36   H22   S    
C33   H18   S    
C26   H50   S    
C32   H15   S    
