data_mof_unit_68215.cif
_audit_creation_date              2013-03-05T16:08:54-0500
_audit_creation_method            fapswitch 2.2
_symmetry_space_group_name_H-M    P1
_symmetry_Int_Tables_number       1
_space_group_crystal_system       triclinic
_cell_length_a                    17.324796
_cell_length_b                    6.875811
_cell_length_c                    14.285704
_cell_angle_alpha                 90.007351
_cell_angle_beta                  110.348503
_cell_angle_gamma                 89.988687
_cell_volume                      1595.54455571

loop_
_atom_site_label
_atom_site_type_symbol
_atom_site_description
_atom_site_fract_x
_atom_site_fract_y
_atom_site_fract_z
_atom_type_partial_charge
O1    O     O_R   0.314130 0.635770 0.168990 -0.569225
O2    O     O_R   0.685870 0.364230 0.831010 -0.580354
O3    O     O_R   0.185870 0.135770 0.331010 -0.570395
O4    O     O_R   0.814130 0.864230 0.668990 -0.576528
O5    O     O_R   0.146800 0.302460 0.139760 -0.594612
O6    O     O_R   0.853200 0.697540 0.860240 -0.578881
O7    O     O_R   0.353200 0.802460 0.360240 -0.594807
O8    O     O_R   0.646800 0.197540 0.639760 -0.594905
C1    C     C_R   0.113609 0.475672 0.113509 1.080121
C2    C     C_R   0.886446 0.524343 0.886380 1.080065
C3    C     C_R   0.386437 0.975647 0.386401 1.079291
C4    C     C_R   0.613714 0.024315 0.613305 1.069821
O9    O     O_R   0.311100 0.305780 0.157130 -0.588356
O10   O     O_R   0.688900 0.694220 0.842870 -0.575841
O11   O     O_R   0.188900 0.805780 0.342870 -0.587995
O12   O     O_R   0.811100 0.194220 0.657130 -0.578628
O13   O     O_R   0.351340 0.139640 0.348510 -0.569181
O14   O     O_R   0.648660 0.860360 0.651490 -0.586167
O15   O     O_R   0.148660 0.639640 0.151490 -0.568484
O16   O     O_R   0.851340 0.360360 0.848510 -0.577527
C5    C     C_R   0.331817 0.475754 0.134605 1.210579
C6    C     C_R   0.667976 0.524256 0.865161 1.241302
C7    C     C_R   0.167940 0.975775 0.365115 1.210920
C8    C     C_R   0.832116 0.024252 0.634991 1.222180
C9    C     C_1   0.533549 0.009027 0.533105 -0.138235
C10   C     C_1   0.466662 0.990922 0.466509 -0.123516
C11   C     C_1   0.966699 0.509086 0.966446 -0.177450
C12   C     C_1   0.033515 0.490988 0.033170 -0.131905
O17   O     O_3   0.263010 0.470920 0.312770 -0.255068
O18   O     O_3   0.736990 0.529080 0.687230 -0.269892
O19   O     O_3   0.236990 0.970920 0.187230 -0.254454
O20   O     O_3   0.763010 0.029080 0.812770 -0.252281
V1    V     V_3+5 0.247590 0.194450 0.238360 1.339179
V2    V     V_3+5 0.752410 0.805550 0.761640 1.339353
V3    V     V_3+5 0.252410 0.694450 0.261640 1.339529
V4    V     V_3+5 0.747590 0.305550 0.738360 1.327743
C13   C     C_R   0.116339 0.992278 0.428571 -0.547454
C14   C     C_R   0.883295 0.007794 0.571102 -0.538942
C15   C     C_R   0.383096 0.491979 0.070738 -0.547140
C16   C     C_R   0.616253 0.507824 0.928472 -0.535946
C17   C     C_R   0.912115 0.832872 0.438417 -0.014152
C18   C     C_R   0.087205 0.167994 0.560744 0.014947
C19   C     C_R   0.586640 0.330732 0.059863 -0.013330
C20   C     C_R   0.412000 0.667291 0.938223 0.014856
C21   C     C_R   0.855569 0.890685 0.484175 0.440081
C22   C     C_R   0.143928 0.108986 0.515559 0.356119
C23   C     C_R   0.643602 0.390499 0.015237 0.430824
C24   C     C_R   0.355436 0.608918 0.983811 0.355436
C25   C     C_R   0.965143 0.079357 0.605185 0.482156
C26   C     C_R   0.034350 0.921508 0.394061 0.498997
C27   C     C_R   0.534297 0.578913 0.893939 0.475712
C28   C     C_R   0.464831 0.419790 0.104622 0.497555
C29   C     C_R   0.012916 0.063722 0.541605 -0.112239
C30   C     C_R   0.986344 0.937462 0.457413 -0.116815
C31   C     C_R   0.486228 0.562733 0.957199 -0.109359
C32   C     C_R   0.512583 0.435658 0.041055 -0.113338
S1    S     S_3+6 0.988148 0.847476 0.266056 -0.028966
O21   O     O_2   0.999130 0.631747 0.259010 -0.332060
O22   O     O_2   0.897909 0.896164 0.227698 -0.214736
O23   O     O_3   0.031014 0.961259 0.191953 -0.549091
H1    H     H_    0.002537 0.907420 0.124365 0.372113
S2    S     S_3+6 0.011840 0.152786 0.733265 -0.019626
O24   O     O_2   0.101958 0.102865 0.771075 -0.234746
O25   O     O_2   0.001463 0.368656 0.740715 -0.300894
O26   O     O_3   0.969111 0.039505 0.807653 -0.539825
H2    H     H_    0.997954 0.092939 0.875243 0.373100
S3    S     S_3+6 0.511375 0.344524 0.232371 -0.023658
O27   O     O_2   0.499855 0.128951 0.239134 -0.298494
O28   O     O_2   0.601752 0.391607 0.270093 -0.238208
O29   O     O_3   0.469377 0.458876 0.307219 -0.551707
H3    H     H_    0.498685 0.406106 0.374837 0.364040
S4    S     S_3+6 0.488028 0.652771 0.765927 -0.023116
O30   O     O_2   0.397939 0.602646 0.727615 -0.234355
O31   O     O_2   0.498342 0.868715 0.758760 -0.304349
O32   O     O_3   0.531230 0.539969 0.691867 -0.544294
H4    H     H_    0.502435 0.593136 0.624208 0.370396
S5    S     S_3+6 0.248592 0.185933 0.567216 0.003981
O33   O     O_2   0.257831 0.378191 0.522276 -0.239807
O34   O     O_2   0.275308 0.207986 0.678654 -0.241649
O35   O     O_3   0.311048 0.022373 0.542739 -0.553462
H5    H     H_    0.303694 0.901555 0.576472 0.371305
S6    S     S_3+6 0.751499 0.808313 0.433896 -0.002599
O36   O     O_2   0.695288 0.945100 0.461526 -0.337554
O37   O     O_2   0.723332 0.797890 0.321929 -0.224004
O38   O     O_3   0.745476 0.585690 0.479552 -0.511768
H6    H     H_    0.685797 0.560724 0.462040 0.392809
S7    S     S_3+6 0.250844 0.686633 0.932677 0.004542
O39   O     O_2   0.241920 0.878561 0.978153 -0.239576
O40   O     O_2   0.223816 0.709590 0.821267 -0.241328
O41   O     O_3   0.188422 0.523003 0.957096 -0.551872
H7    H     H_    0.195602 0.402404 0.923060 0.371321
S8    S     S_3+6 0.748335 0.315064 0.067746 -0.001727
O42   O     O_2   0.773478 0.292678 0.179058 -0.244108
O43   O     O_2   0.758963 0.123955 0.022659 -0.252063
O44   O     O_3   0.810070 0.482462 0.044720 -0.569803
H8    H     H_    0.865927 0.451680 0.091811 0.392899
N1    N     N_3   0.901442 0.649706 0.386891 -0.133844
H9    H     H_    0.895601 0.540361 0.434868 0.153973
H10   H     H_    0.848268 0.650926 0.323735 0.259673
N2    N     N_3   0.097638 0.352012 0.611463 -0.135167
H11   H     H_    0.104538 0.460213 0.563531 0.141181
H12   H     H_    0.150118 0.351043 0.675442 0.251343
N3    N     N_3   0.596396 0.145323 0.109197 -0.133146
H13   H     H_    0.648836 0.143988 0.173206 0.265106
H14   H     H_    0.602997 0.038371 0.060462 0.142508
N4    N     N_3   0.401493 0.851001 0.887240 -0.135063
H15   H     H_    0.394527 0.959537 0.934983 0.141581
H16   H     H_    0.349054 0.849606 0.823218 0.251428

loop_
_geom_bond_atom_site_label_1
_geom_bond_atom_site_label_2
_geom_bond_distance
_ccdc_geom_bond_type
C2    C11   1.465054 S    
C16   C23   1.415386 A    
S7    O39   1.502335 D    
O1    C5    1.284572 A    
C23   S8    1.782466 S    
O3    C7    1.284363 A    
C21   S6    1.785260 S    
C31   C32   1.423613 A    
N1    H9    1.045774 S    
S1    O21   1.503232 D    
C14   C25   1.417739 A    
S5    O33   1.502350 D    
O7    C3    1.318996 A    
O5    C1    1.318934 A    
C26   C30   1.430478 A    
O20   V4    2.148905 S    
C18   C29   1.414506 A    
O8    V4    1.968349 S    
O4    C8    1.284191 A    
S1    O22   1.503503 D    
N4    H15   1.045826 S    
O3    V1    2.010616 S    
O17   V1    2.148756 S    
C18   C22   1.409943 A    
S8    O42   1.503447 D    
C14   C21   1.416428 A    
S2    O25   1.503298 D    
C1    O15   1.305823 A    
O44   H8    0.990467 S    
C2    O16   1.305825 A    
O5    V1    1.968226 S    
O2    C6    1.284410 A    
C8    C14   1.481475 S    
O19   V1    1.684044 S    
O29   H3    0.990694 S    
C27   C31   1.430430 A    
O11   C7    1.295779 A    
C15   C28   1.417375 A    
O12   C8    1.295449 A    
O13   V1    1.970232 S    
S4    O32   1.682679 S    
O11   V3    2.007643 S    
N1    H10   1.041495 S    
S5    O34   1.503035 D    
O4    V2    2.010616 S    
O18   V2    2.148757 S    
S3    O27   1.503258 D    
S4    O31   1.503292 D    
O35   H5    0.990659 S    
S1    O23   1.682694 S    
C3    C10   1.465031 S    
C9    C10   1.223411 T    
O38   H6    0.990577 S    
S8    O44   1.679932 S    
O6    V2    1.968225 S    
O23   H1    0.990669 S    
S3    O28   1.503375 D    
O20   V2    1.684042 S    
O32   H4    0.990670 S    
O9    V1    2.007922 S    
S2    O24   1.503485 D    
C18   N2    1.437829 S    
C5    C15   1.482532 S    
O8    C4    1.318907 A    
C6    C16   1.482395 S    
S8    O43   1.502534 D    
C24   S7    1.783757 S    
O9    C5    1.295701 A    
N3    H14   1.045836 S    
O14   V2    1.970231 S    
C28   S3    1.795887 S    
O26   H2    0.990672 S    
S6    O37   1.502961 D    
S7    O40   1.502999 D    
O19   V3    2.148904 S    
C27   S4    1.795917 S    
S6    O38   1.681372 S    
C11   C12   1.223381 T    
O1    V3    2.010462 S    
N2    H12   1.041215 S    
S5    O35   1.679394 S    
O2    V4    2.010463 S    
C3    O13   1.305813 A    
C25   S2    1.796580 S    
S2    O26   1.682715 S    
C26   S1    1.796018 S    
O7    V3    1.968349 S    
S4    O30   1.503477 D    
O10   V2    2.007921 S    
O6    C2    1.318948 A    
C22   S5    1.783860 S    
C29   C30   1.423732 A    
C20   N4    1.437746 S    
C16   C27   1.418076 A    
O17   V3    1.684148 S    
O18   V4    1.684147 S    
C4    C9    1.464927 S    
S3    O29   1.682734 S    
O10   C6    1.295789 A    
C7    C13   1.482372 S    
O12   V4    2.007641 S    
C13   C26   1.417980 A    
C20   C31   1.414676 A    
O41   H7    0.990665 S    
N4    H16   1.041194 S    
C25   C29   1.429796 A    
N2    H11   1.045823 S    
C17   N1    1.437826 S    
C19   N3    1.437973 S    
C17   C30   1.414990 A    
O16   V4    1.970289 S    
C28   C32   1.429517 A    
C19   C32   1.413768 A    
S6    O36   1.501860 D    
S7    O41   1.679285 S    
C4    O14   1.305822 A    
N3    H13   1.041093 S    
C17   C21   1.410731 A    
O15   V3    1.970289 S    
C13   C22   1.415437 A    
C19   C23   1.409603 A    
C20   C24   1.410535 A    
C1    C12   1.464982 S    
C15   C24   1.415805 A    
