data_mof_unit_5218.cif
_audit_creation_date              2012-12-11T16:48:29-0500
_audit_creation_method            fapswitch 2.2
_symmetry_space_group_name_H-M    P1
_symmetry_Int_Tables_number       1
_space_group_crystal_system       triclinic
_cell_length_a                    17.384335
_cell_length_b                    24.67987
_cell_length_c                    15.002456
_cell_angle_alpha                 90.16285
_cell_angle_beta                  125.960055
_cell_angle_gamma                 89.424861
_cell_volume                      5209.73709405

loop_
_atom_site_label
_atom_site_type_symbol
_atom_type_description
_atom_site_fract_x
_atom_site_fract_y
_atom_site_fract_z
_atom_type_partial_charge
C1    C     C_R   0.351706 0.348830 0.908445 -0.274932
C2    C     C_R   0.433994 0.497569 0.632339 -0.175070
C3    C     C_R   0.097559 0.874635 0.908849 0.605191
C4    C     C_R   0.383602 0.317576 0.998891 0.086238
C5    C     C_R   0.685855 0.358820 0.001073 0.091693
C6    C     C_R   0.888896 0.815867 0.998750 0.143103
C7    C     C_R   0.187840 0.863238 0.001676 0.142041
C8    C     C_3   0.575421 0.675988 0.222104 0.017841
C9    C     C_3   0.542300 0.702165 0.773068 -0.016358
C10   C     C_3   0.096134 0.173835 0.228987 -0.059007
C11   C     C_3   0.052992 0.192625 0.770091 0.000210
C12   C     C_3   0.334425 0.668433 0.759587 -0.001721
C13   C     C_R   0.952796 0.997344 0.278396 -0.106796
C14   C     C_3   0.781366 0.696244 0.237684 -0.158643
C15   C     C_3   0.830873 0.163366 0.745893 0.112532
C16   C     C_3   0.299576 0.185199 0.239697 -0.157327
C17   C     C_3   0.595205 0.332458 0.246439 -0.191400
C18   C     C_3   0.478469 0.315617 0.779147 -0.109887
C19   C     C_3   0.096787 0.834944 0.251838 -0.192394
C20   C     C_3   0.982873 0.817323 0.780620 -0.114692
C21   C     C_3   0.846824 0.387242 0.547244 -0.027651
C22   C     C_3   0.077999 0.399578 0.792339 -0.161476
C23   C     C_3   0.347815 0.886296 0.548790 -0.048988
C24   C     C_R   0.933550 0.997421 0.631894 -0.163308
C25   C     C_3   0.578045 0.899970 0.795169 -0.148654
C26   C     C_R   0.175900 0.498873 0.730614 -0.018867
C27   C     C_R   0.813450 0.496607 0.355329 -0.008933
C28   C     C_R   0.676493 0.999087 0.733729 -0.020714
C29   C     C_R   0.311767 0.996362 0.358054 -0.004329
C30   C     C_2   0.919172 0.464842 0.546060 0.347596
C31   C     C_2   0.017202 0.458353 0.648680 0.303389
C32   C     C_2   0.419022 0.964735 0.549106 0.353315
C33   C     C_R   0.688185 0.373792 0.091805 -0.262671
C34   C     C_2   0.517552 0.958491 0.651294 0.292429
C35   C     C_2   0.905351 0.494071 0.461494 0.602684
C36   C     C_2   0.074687 0.501916 0.686438 0.599800
C37   C     C_2   0.404049 0.994086 0.464114 0.580053
C38   C     C_2   0.575055 0.002114 0.689099 0.612446
C39   C     C_R   0.239119 0.719820 0.009334 -0.158949
C40   C     C_R   0.804637 0.682747 0.013711 -0.163660
C41   C     C_R   0.881640 0.259504 0.107521 -0.069392
C42   C     C_R   0.316470 0.179362 0.014770 -0.146671
C43   C     C_R   0.310840 0.720319 0.995348 -0.071643
C44   C     C_R   0.854938 0.847997 0.908706 -0.273657
C45   C     C_R   0.723627 0.699132 0.004917 -0.172509
C46   C     C_R   0.866011 0.242094 0.009149 -0.117917
C47   C     C_R   0.232986 0.190978 0.004264 -0.190164
C48   C     C_R   0.337223 0.768552 0.970738 0.628828
C49   C     C_R   0.705219 0.753788 0.010458 0.501860
C50   C     C_R   0.815468 0.276668 0.916663 0.686146
C51   C     C_R   0.207699 0.244409 0.009109 0.482940
C52   C     C_R   0.761799 0.319528 0.915195 0.651589
C53   C     C_R   0.259369 0.286153 0.009040 0.638393
C54   C     C_R   0.298390 0.817388 0.974436 0.680845
C55   C     C_R   0.190298 0.877426 0.092075 -0.254542
C56   C     C_R   0.761970 0.792111 0.010405 0.606461
C57   C     C_R   0.760458 0.328159 0.006924 -0.290409
C58   C     C_R   0.333795 0.273982 0.001034 -0.260755
C59   C     C_R   0.236633 0.816427 0.005388 -0.268730
C60   C     C_R   0.834422 0.775272 0.001457 -0.284383
C61   C     C_R   0.426012 0.645717 0.089208 0.585663
C62   C     C_R   0.582807 0.639181 0.909381 0.537009
C63   C     C_R   0.944113 0.151371 0.090659 0.550803
C64   C     C_R   0.090830 0.133069 0.909592 0.518579
C65   C     C_R   0.827858 0.302104 0.105871 -0.117301
C66   C     C_R   0.350349 0.670191 0.997416 -0.097390
C67   C     C_R   0.367167 0.221205 0.013241 -0.062641
C68   C     C_R   0.203265 0.767549 0.015440 -0.138084
C69   C     C_R   0.860811 0.721018 0.012566 -0.017229
C70   C     C_3   0.912373 0.329604 0.201985 0.465893
C71   C     C_3   0.389217 0.190243 0.945115 0.503750
C72   C     C_3   0.194381 0.747338 0.102670 0.541079
C73   C     C_3   0.876826 0.686627 0.942555 0.579239
C74   C     C_3   0.232889 0.693543 0.094708 0.547030
C75   C     C_3   0.815544 0.644135 0.944834 0.502072
C76   C     C_3   0.971473 0.284797 0.203068 0.541505
C77   C     C_R   0.664068 0.660346 0.002559 -0.082031
C78   C     C_3   0.334215 0.143594 0.947838 0.557583
C79   C     C_R   0.412002 0.444959 0.478968 -0.067233
C80   C     C_R   0.420525 0.445252 0.393421 -0.114480
C81   C     C_R   0.911383 0.944829 0.478178 -0.051540
C82   C     C_R   0.919101 0.945096 0.391960 -0.109363
C83   C     C_R   0.399549 0.493747 0.517204 0.090394
C84   C     C_R   0.413788 0.493837 0.341390 0.152258
C85   C     C_R   0.898961 0.993567 0.516562 0.088199
C86   C     C_R   0.911339 0.993598 0.339017 0.158930
C87   C     C_R   0.369337 0.539683 0.448228 -0.079428
C88   C     C_R   0.884460 0.184504 0.001820 -0.109404
C89   C     C_R   0.376203 0.539616 0.359772 -0.126961
C90   C     C_R   0.867994 0.039390 0.447165 -0.089267
C91   C     C_R   0.873826 0.039275 0.357876 -0.131779
C92   C     C_3   0.495857 0.401820 0.445409 0.469193
C93   C     C_3   0.485655 0.400959 0.538480 0.525927
C94   C     C_3   0.994759 0.901828 0.443815 0.460170
C95   C     C_3   0.985261 0.900963 0.537451 0.496018
C96   C     C_R   0.479971 0.453242 0.246645 -0.124073
C97   C     C_R   0.449655 0.453667 0.696868 -0.183819
C98   C     C_R   0.978829 0.953225 0.245310 -0.121666
C99   C     C_R   0.177441 0.149270 0.002159 -0.039922
C100  C     C_R   0.949533 0.953630 0.696722 -0.201385
C101  C     C_R   0.231187 0.544048 0.753415 -0.037252
C102  C     C_R   0.761307 0.542777 0.300411 0.048897
C103  C     C_R   0.732186 0.044265 0.757421 -0.032030
C104  C     C_R   0.259875 0.042401 0.302604 0.075688
C105  C     C_R   0.485843 0.543278 0.257007 0.732852
C106  C     C_R   0.448999 0.543212 0.694351 0.842795
C107  C     C_R   0.983164 0.043243 0.254121 0.747660
C108  C     C_R   0.948320 0.043018 0.693826 0.842019
C109  C     C_R   0.232936 0.453660 0.753136 -0.120569
C110  C     C_R   0.455151 0.497428 0.280879 -0.102200
C111  C     C_R   0.760110 0.452656 0.295773 -0.113912
C112  C     C_R   0.733120 0.953790 0.754604 -0.123625
C113  C     C_R   0.259187 0.952549 0.297069 -0.123786
C114  C     C_R   0.334614 0.645309 0.907301 0.441226
C115  C     C_R   0.675573 0.638313 0.094335 0.491575
C116  C     C_R   0.852993 0.152543 0.910328 0.442036
C117  C     C_R   0.183586 0.132043 0.093762 0.485270
C118  C     C_R   0.445696 0.347269 0.089995 0.631684
C119  C     C_R   0.595125 0.370809 0.908687 0.622451
C120  C     C_R   0.949610 0.846272 0.089587 0.655696
F1    F     F_    0.979063 0.516715 0.466832 -0.661975
F2    F     F_    0.235615 0.338194 0.013476 -0.683760
F3    F     F_    0.323169 0.864852 0.952630 -0.622621
F4    F     F_    0.745059 0.845458 0.015791 -0.690373
F5    F     F_    0.911769 0.328152 0.293833 -0.701011
F6    F     F_    0.485441 0.178872 0.003597 -0.669803
F7    F     F_    0.100291 0.744786 0.064409 -0.671669
F8    F     F_    0.970415 0.669546 0.999283 -0.635552
F9    F     F_    0.321060 0.681132 0.190525 -0.655804
F10   F     F_    0.731505 0.635872 0.841951 -0.668247
F11   F     F_    0.029722 0.302703 0.174595 -0.675562
F12   F     F_    0.034471 0.552390 0.662964 -0.669162
F13   F     F_    0.252096 0.132391 0.844912 -0.669131
F14   F     F_    0.584091 0.420690 0.479679 -0.663554
F15   F     F_    0.446084 0.353111 0.540966 -0.676955
F16   F     F_    0.082706 0.920882 0.477406 -0.672147
F17   F     F_    0.946072 0.853072 0.540452 -0.691692
F18   F     F_    0.491634 0.593186 0.297165 -0.645639
F19   F     F_    0.412125 0.592618 0.650440 -0.724057
F20   F     F_    0.981446 0.093974 0.286395 -0.672959
F21   F     F_    0.911728 0.092442 0.649671 -0.740280
F22   F     F_    0.477069 0.017361 0.468876 -0.663208
F23   F     F_    0.534825 0.052577 0.665506 -0.664268
F24   F     F_    0.402729 0.768306 0.948852 -0.639706
F25   F     F_    0.630650 0.769672 0.011487 -0.653777
F26   F     F_    0.817579 0.269706 0.828591 -0.626819
F27   F     F_    0.131464 0.255761 0.010032 -0.668518
F28   F     F_    0.711439 0.351811 0.824708 -0.607666
H1    H     H_    0.306695 0.336010 0.823458 0.139483
H2    H     H_    0.853827 0.606156 0.989228 0.100584
H3    H     H_    0.009216 0.260183 0.279809 0.130677
H4    H     H_    0.378052 0.107181 0.993654 0.100793
H5    H     H_    0.349840 0.577176 0.467560 0.206631
H6    H     H_    0.361533 0.576795 0.314086 0.217543
H7    H     H_    0.848418 0.076837 0.466546 0.203183
H8    H     H_    0.858285 0.076396 0.311804 0.194387
H9    H     H_    0.474199 0.363720 0.396957 0.104689
H10   H     H_    0.550642 0.413091 0.619597 0.149330
H11   H     H_    0.973166 0.863665 0.395560 0.102433
H12   H     H_    0.745967 0.367693 0.176916 0.205157
H13   H     H_    0.050398 0.913216 0.618324 0.126792
H14   H     H_    0.464459 0.411642 0.249971 0.187106
H15   H     H_    0.425494 0.413218 0.667005 0.215413
H16   H     H_    0.962982 0.911603 0.248055 0.187899
H17   H     H_    0.925538 0.913189 0.666843 0.215948
H18   H     H_    0.206137 0.585035 0.742006 0.206962
H19   H     H_    0.775695 0.582320 0.337495 0.158883
H20   H     H_    0.709193 0.085498 0.751573 0.200860
H21   H     H_    0.273610 0.081843 0.340104 0.142845
H22   H     H_    0.213384 0.411737 0.743268 0.174842
H23   H     H_    0.809285 0.835584 0.823483 0.135681
H24   H     H_    0.774586 0.411019 0.323312 0.115419
H25   H     H_    0.713570 0.911849 0.744998 0.173251
H26   H     H_    0.273352 0.910809 0.323974 0.088413
H27   H     H_    0.576331 0.696104 0.156522 0.103372
H28   H     H_    0.611700 0.635868 0.244895 0.117373
H29   H     H_    0.615707 0.701967 0.296292 0.161445
H30   H     H_    0.609996 0.714692 0.787867 0.151371
H31   H     H_    0.523187 0.729326 0.816670 0.117201
H32   H     H_    0.485964 0.707419 0.683689 0.164031
H33   H     H_    0.097790 0.197116 0.166765 0.151432
H34   H     H_    0.246725 0.868194 0.176775 0.136762
H35   H     H_    0.129665 0.133361 0.244861 0.125717
H36   H     H_    0.138630 0.196576 0.307445 0.169582
H37   H     H_    0.121313 0.205338 0.786789 0.149688
H38   H     H_    0.031030 0.220823 0.809493 0.108018
H39   H     H_    0.998422 0.196140 0.679887 0.172682
H40   H     H_    0.343337 0.626823 0.739502 0.158044
H41   H     H_    0.403987 0.688256 0.817075 0.144743
H42   H     H_    0.294762 0.692220 0.681927 0.168811
H43   H     H_    0.817581 0.698462 0.327877 0.180504
H44   H     H_    0.721298 0.725713 0.199475 0.164979
H45   H     H_    0.926025 0.370477 0.183224 0.100619
H46   H     H_    0.834632 0.707660 0.223013 0.175191
H47   H     H_    0.902997 0.180953 0.792331 0.117921
H48   H     H_    0.786293 0.185404 0.666332 0.173858
H49   H     H_    0.831974 0.120347 0.726946 0.123561
H50   H     H_    0.338355 0.185902 0.330431 0.184793
H51   H     H_    0.243782 0.217204 0.206060 0.164617
H52   H     H_    0.352314 0.194347 0.222957 0.176012
H53   H     H_    0.617758 0.375206 0.266395 0.143024
H54   H     H_    0.615293 0.314286 0.194679 0.148782
H55   H     H_    0.634729 0.309770 0.325441 0.187925
H56   H     H_    0.357285 0.208240 0.862297 0.057339
H57   H     H_    0.418611 0.339532 0.767405 0.093424
H58   H     H_    0.502660 0.283788 0.843277 0.127403
H59   H     H_    0.451296 0.294686 0.700482 0.229204
H60   H     H_    0.116168 0.877949 0.273737 0.142812
H61   H     H_    0.121793 0.819261 0.203343 0.161408
H62   H     H_    0.135053 0.811643 0.330065 0.182061
H63   H     H_    0.921829 0.841156 0.765968 0.098951
H64   H     H_    0.006192 0.786413 0.845976 0.167539
H65   H     H_    0.957686 0.795308 0.703594 0.223635
H66   H     H_    0.885196 0.375006 0.634694 0.174723
H67   H     H_    0.241226 0.768075 0.183264 0.038291
H68   H     H_    0.879892 0.367985 0.509821 0.125767
H69   H     H_    0.773648 0.371266 0.502809 0.165522
H70   H     H_    0.020599 0.413097 0.799683 0.165494
H71   H     H_    0.144667 0.421417 0.853242 0.167227
H72   H     H_    0.090773 0.355811 0.813132 0.217339
H73   H     H_    0.386744 0.873192 0.635832 0.174704
H74   H     H_    0.380550 0.867999 0.510189 0.097974
H75   H     H_    0.274786 0.870100 0.504300 0.160246
H76   H     H_    0.591694 0.856293 0.816683 0.211339
H77   H     H_    0.519991 0.913075 0.801665 0.172812
H78   H     H_    0.847139 0.704347 0.860078 0.047744
H79   H     H_    0.644079 0.922337 0.855989 0.174487
H80   H     H_    0.181457 0.659690 0.061949 0.106499
N1    N     N_R   0.395410 0.396350 0.944340 -0.069963
N2    N     N_R   0.474920 0.471030 0.794350 -0.085533
N3    N     N_R   0.025080 0.971030 0.205650 -0.091237
N4    N     N_R   0.974920 0.971030 0.794350 -0.087007
N5    N     N_R   0.320260 0.527820 0.794570 -0.073430
N6    N     N_R   0.679740 0.527820 0.205430 -0.058010
N7    N     N_R   0.820260 0.027820 0.794570 -0.075562
N8    N     N_R   0.179740 0.027820 0.205430 -0.059286
N9    N     N_R   0.524590 0.527840 0.205200 -0.128303
N10   N     N_R   0.475410 0.527840 0.794800 -0.114610
N11   N     N_R   0.024590 0.027840 0.205200 -0.121656
N12   N     N_R   0.604590 0.396350 0.055660 -0.095176
N13   N     N_R   0.975410 0.027840 0.794800 -0.113975
N14   N     N_R   0.320750 0.471000 0.795020 -0.046378
N15   N     N_R   0.679250 0.471000 0.204980 -0.047448
N16   N     N_R   0.820750 0.971000 0.795020 -0.045947
N17   N     N_R   0.179250 0.971000 0.204980 -0.044677
N18   N     N_R   0.393620 0.602490 0.942710 -0.165474
N19   N     N_R   0.606380 0.602490 0.057290 -0.145444
N20   N     N_R   0.893620 0.102490 0.942710 -0.160888
N21   N     N_R   0.106380 0.102490 0.057290 -0.152924
N22   N     N_R   0.451720 0.396350 0.057510 -0.112135
N23   N     N_R   0.895410 0.896350 0.944340 -0.069105
N24   N     N_R   0.548280 0.396350 0.942490 -0.121895
N25   N     N_R   0.951720 0.896350 0.057510 -0.113499
N26   N     N_R   0.048280 0.896350 0.942490 -0.116039
N27   N     N_R   0.104590 0.896350 0.055660 -0.087033
N28   N     N_R   0.449930 0.602500 0.055880 -0.178970
N29   N     N_R   0.550070 0.602500 0.944120 -0.149695
N30   N     N_R   0.949930 0.102500 0.055880 -0.152037
N31   N     N_R   0.050070 0.102500 0.944120 -0.156055
N32   N     N_R   0.525080 0.471030 0.205650 -0.087430
Ni1   Ni    Ni4+2 0.435420 0.434270 0.870230 0.203475
Ni2   Ni    Ni4+2 0.564580 0.434270 0.129770 0.206281
Ni3   Ni    Ni4+2 0.935420 0.934270 0.870230 0.205714
Ni4   Ni    Ni4+2 0.064580 0.934270 0.129770 0.209725
Ni5   Ni    Ni4+2 0.563430 0.564580 0.128740 0.220122
Ni6   Ni    Ni4+2 0.436570 0.564580 0.871260 0.227080
Ni7   Ni    Ni4+2 0.063430 0.064580 0.128740 0.227381
Ni8   Ni    Ni4+2 0.936570 0.064580 0.871260 0.222107
O1    O     O_3   0.481919 0.671452 0.190055 -0.510212
O2    O     O_3   0.553813 0.349512 0.804896 -0.573991
O3    O     O_3   0.998559 0.827521 0.196861 -0.632829
O4    O     O_3   0.058353 0.851331 0.806790 -0.616638
O5    O     O_3   0.840896 0.444229 0.537541 -0.621880
O6    O     O_3   0.052091 0.406225 0.684449 -0.678681
O7    O     O_3   0.341517 0.943350 0.541256 -0.612810
O8    O     O_3   0.552614 0.906433 0.687470 -0.689266
O9    O     O_3   0.546309 0.646956 0.799772 -0.546722
O10   O     O_3   0.003102 0.169115 0.198031 -0.573580
O11   O     O_3   0.058115 0.137993 0.800816 -0.558318
O12   O     O_3   0.281674 0.668371 0.803010 -0.617256
O13   O     O_3   0.751792 0.642485 0.204223 -0.645227
O14   O     O_3   0.789835 0.169778 0.802639 -0.596814
O15   O     O_3   0.262622 0.132845 0.202462 -0.642433
O16   O     O_3   0.497326 0.327601 0.196830 -0.636895

loop_
_geom_bond_atom_site_label_1
_geom_bond_atom_site_label_2
_ccdc_geom_bond_type
C83   C87   A    
N3    Ni4   S    
C117  O15   S    
C94   H11   S    
C82   C94   S    
N4    Ni3   S    
C63   C88   A    
C19   H62   S    
C10   H36   S    
C39   C68   A    
C62   C77   A    
C116  O14   S    
C7    C55   A    
C13   C107  A    
C4    C118  A    
C81   C82   A    
C89   H6    S    
C8    H27   S    
C78   H4    S    
C114  N18   A    
C28   C112  A    
C48   C54   A    
C12   H41   S    
C102  H19   S    
C120  O3    S    
N18   N28   A    
C30   C35   D    
C5    C119  A    
C18   H57   S    
C11   H39   S    
C56   F4    S    
N3    N11   A    
N27   Ni4   S    
C105  C110  A    
C79   C93   S    
C25   O8    S    
C3    C7    A    
C53   F2    S    
C95   H13   S    
C26   C101  A    
C73   H78   S    
C81   C95   S    
C76   F11   S    
C113  N17   A    
N23   N25   A    
C24   C100  A    
C42   C67   A    
C64   O11   S    
C65   C70   S    
C11   H38   S    
C107  F20   S    
C47   C99   S    
C48   F24   S    
C25   H76   S    
N9    Ni5   S    
C111  H24   S    
C38   F23   S    
C20   H63   S    
C61   O1    S    
C13   C98   A    
C17   H55   S    
C120  N25   A    
N22   Ni2   S    
C74   H80   S    
N31   Ni8   S    
N5    Ni6   S    
C17   O16   S    
C23   O7    S    
C61   C66   A    
N14   Ni1   S    
C64   C99   A    
C47   C51   A    
C23   H73   S    
C2    C97   A    
C55   N27   A    
C97   H15   S    
C5    C33   A    
C108  N13   A    
N8    Ni7   S    
C94   F16   S    
C41   C46   A    
C87   H5    S    
C71   F6    S    
C69   C73   S    
C24   C108  A    
C62   O9    S    
C51   F27   S    
C22   H71   S    
C24   C85   S    
C12   O12   S    
C31   C36   D    
C115  N19   A    
N1    N22   A    
C16   H52   S    
C33   H12   S    
C114  O12   S    
N6    N15   A    
C23   H74   S    
C35   F1    S    
C14   H44   S    
C50   F26   S    
C112  H25   S    
C22   H70   S    
N2    Ni1   S    
C27   C111  A    
C103  H20   S    
C52   F28   S    
C6    C44   A    
C10   H35   S    
C73   C75   S    
C39   C74   S    
C9    O9    S    
C2    C83   S    
C101  H18   S    
C106  F19   S    
N21   N31   A    
N30   Ni7   S    
C8    H29   S    
C7    C59   S    
C108  F21   S    
N19   N29   A    
C46   C88   S    
C54   C59   A    
C14   O13   S    
C39   C43   A    
C71   H56   S    
C28   C38   S    
C95   F17   S    
C22   H72   S    
C40   C69   A    
C72   F7    S    
C49   F25   S    
N4    N13   A    
C92   H9    S    
C6    C60   S    
N10   Ni6   S    
C72   C74   S    
C37   F22   S    
C63   N30   A    
C57   C65   A    
C80   C84   A    
C6    C120  A    
C117  N21   A    
N6    Ni5   S    
C19   O3    S    
C76   H3    S    
C27   C35   S    
C82   C86   A    
C34   O8    S    
C25   H79   S    
C84   C110  S    
C3    O4    S    
C98   N3    A    
C29   C104  A    
C21   O5    S    
C18   H59   S    
C51   C53   A    
C32   C34   S    
C88   C116  A    
C17   H53   S    
C118  O16   S    
C8    O1    S    
C59   C68   A    
C99   C117  A    
C113  H26   S    
N28   Ni5   S    
C58   C67   A    
C44   N23   A    
C50   C52   A    
C97   N2    A    
C26   C109  A    
C105  F18   S    
C45   C49   A    
C68   C72   S    
C96   N32   A    
N9    N32   A    
C8    H28   S    
C21   H68   S    
N11   Ni7   S    
C94   C95   S    
N16   Ni3   S    
C107  N11   A    
C32   C37   D    
C10   O10   S    
N19   Ni5   S    
C118  N22   A    
C80   C92   S    
C16   H51   S    
C62   N29   A    
C9    H32   S    
N24   Ni1   S    
N20   N30   A    
C15   H48   S    
C15   O14   S    
N25   Ni4   S    
N32   Ni2   S    
N15   Ni2   S    
C23   H75   S    
N26   Ni3   S    
C102  N6    A    
C61   N28   A    
C71   C78   S    
C87   C89   A    
C101  N5    A    
C19   H60   S    
N2    N10   A    
C54   F3    S    
C11   H37   S    
C84   C89   A    
C14   H43   S    
C4    C58   S    
C93   H10   S    
C11   O11   S    
C109  N14   A    
C18   O2    S    
C112  N16   A    
C16   H50   S    
C109  H22   S    
C70   F5    S    
C42   C78   S    
C43   C48   A    
C26   C36   S    
N7    Ni8   S    
C119  O2    S    
C20   O4    S    
C115  O13   S    
N13   Ni8   S    
C111  N15   A    
C66   C114  A    
C19   H61   S    
C34   C38   D    
N8    N17   A    
C92   F14   S    
N29   Ni6   S    
C13   C86   S    
N12   Ni2   S    
C1    H1    S    
C93   F15   S    
C75   F10   S    
C9    H31   S    
C41   C65   A    
C85   C90   A    
C64   N31   A    
C63   O10   S    
N12   N24   A    
N20   Ni8   S    
N1    Ni1   S    
C73   F8    S    
C12   H42   S    
C46   C50   A    
C27   C102  A    
C40   C75   S    
C5    C57   S    
C18   H58   S    
C1    C4    A    
C98   H16   S    
N21   Ni7   S    
N26   N27   A    
C36   F12   S    
C44   H23   S    
C15   H47   S    
C91   H8    S    
C49   C56   A    
N18   Ni6   S    
C119  N24   A    
C20   H65   S    
C41   C76   S    
C70   C76   S    
C33   N12   A    
C31   O6    S    
C28   C103  A    
C90   C91   A    
C30   C31   S    
C96   C110  A    
C60   C69   A    
C16   O15   S    
C70   H45   S    
C15   H49   S    
C25   H77   S    
C92   C93   S    
C55   H34   S    
C96   H14   S    
C103  N7    A    
C67   C71   S    
C42   C47   A    
C20   H64   S    
C14   H46   S    
C17   H54   S    
C78   F13   S    
C29   C113  A    
N7    N16   A    
C3    N26   A    
C52   C57   A    
C2    C106  A    
C79   C80   A    
C79   C83   A    
C1    N1    A    
N5    N14   A    
C104  N8    A    
C72   H67   S    
C56   C60   A    
C40   C45   A    
C30   O5    S    
C86   C91   A    
C106  N10   A    
C74   F9    S    
C29   C37   S    
C32   O7    S    
C10   H33   S    
C105  N9    A    
C21   H66   S    
C100  H17   S    
C100  N4    A    
C21   H69   S    
C75   H2    S    
C45   C77   S    
C90   H7    S    
C77   C115  A    
N17   Ni4   S    
C116  N20   A    
C53   C58   A    
C81   C85   A    
C9    H30   S    
C22   O6    S    
C43   C66   S    
N23   Ni3   S    
C104  H21   S    
C12   H40   S    
