data_mof_unit_40524.cif
_audit_creation_date              2012-12-10T18:21:15-0500
_audit_creation_method            fapswitch 2.2
_symmetry_space_group_name_H-M    P1
_symmetry_Int_Tables_number       1
_space_group_crystal_system       triclinic
_cell_length_a                    14.939636
_cell_length_b                    14.142619
_cell_length_c                    10.663514
_cell_angle_alpha                 89.99717
_cell_angle_beta                  88.881238
_cell_angle_gamma                 89.570367
_cell_volume                      2252.55390629

loop_
_atom_site_label
_atom_site_type_symbol
_atom_type_description
_atom_site_fract_x
_atom_site_fract_y
_atom_site_fract_z
_atom_type_partial_charge
C1    C     C_R   0.327043 0.500391 0.499106 0.865045
C2    C     C_3   0.493419 0.603116 0.929366 -0.371312
C3    C     C_R   0.815703 0.444919 0.412193 -0.228954
C4    C     C_R   0.768921 0.503107 0.495100 -0.064872
C5    C     C_R   0.812625 0.569776 0.567829 -0.203692
C6    C     C_R   0.905874 0.573910 0.566220 0.085516
C7    C     C_R   0.953783 0.508652 0.488129 0.017254
C8    C     C_R   0.908210 0.445172 0.410202 0.093541
C9    C     C_R   0.952922 0.640167 0.639903 0.166552
C10   C     C_R   0.046223 0.638147 0.636054 -0.262081
C11   C     C_R   0.092711 0.572066 0.562453 0.096962
C12   C     C_R   0.498175 0.500125 0.257830 0.881132
C13   C     C_R   0.047048 0.506982 0.487191 0.020268
C14   C     C_R   0.094963 0.440249 0.411558 0.098500
C15   C     C_R   0.048495 0.378722 0.330926 0.170157
C16   C     C_R   0.955090 0.382549 0.331349 -0.263361
C17   C     C_R   0.185028 0.570420 0.563453 -0.240205
C18   C     C_R   0.231647 0.501944 0.495091 -0.057998
C19   C     C_R   0.187992 0.437243 0.419859 -0.275766
C20   C     C_R   0.568504 0.798505 0.441264 0.050187
C21   C     C_R   0.568636 0.199830 0.442136 0.063471
C22   C     C_R   0.431453 0.798911 0.558630 -0.096595
C23   C     C_R   0.431262 0.202043 0.558150 -0.103053
C24   C     C_R   0.429339 0.899353 0.559913 0.024656
C25   C     C_R   0.429238 0.101500 0.559696 0.023188
C26   C     C_R   0.673148 0.500283 0.498643 0.889618
C27   C     C_R   0.498393 0.949352 0.498582 0.089423
C28   C     C_R   0.498325 0.050220 0.498579 0.084873
C29   C     C_R   0.568028 0.898675 0.437576 -0.052656
C30   C     C_R   0.567880 0.099612 0.437741 -0.046806
C31   C     C_R   0.360108 0.951061 0.620546 -0.202950
C32   C     C_R   0.360040 0.050904 0.620395 -0.203423
C33   C     C_R   0.634884 0.047538 0.372593 -0.164327
C34   C     C_R   0.635154 0.949397 0.372963 -0.180318
C35   C     C_R   0.498506 0.500079 0.741998 0.838320
C36   C     C_3   0.411856 0.448880 0.075838 -0.447466
C37   C     C_3   0.582386 0.449072 0.071081 -0.397847
C38   C     C_3   0.414733 0.442242 0.930977 -0.014539
C39   C     C_3   0.583653 0.447954 0.926531 -0.050975
C40   C     C_3   0.494722 0.602966 0.071172 -0.387991
C41   C     C_3   0.496783 0.500138 0.121400 0.086464
C42   C     C_3   0.497388 0.499953 0.878159 0.142343
H1    H     H_    0.351074 0.487220 0.110543 0.177748
H2    H     H_    0.642960 0.482897 0.109341 0.188331
H3    H     H_    0.083041 0.688466 0.691576 0.145777
H4    H     H_    0.220807 0.621176 0.619484 0.142338
H5    H     H_    0.227916 0.386632 0.366779 0.163181
H6    H     H_    0.918469 0.335767 0.270541 0.141509
H7    H     H_    0.378468 0.759666 0.605164 0.135266
H8    H     H_    0.378118 0.242052 0.604403 0.140936
H9    H     H_    0.305984 0.914315 0.668296 0.138095
H10   H     H_    0.305872 0.088507 0.668032 0.139404
H11   H     H_    0.687821 0.081802 0.319438 0.158823
H12   H     H_    0.688492 0.913955 0.320928 0.159506
H13   H     H_    0.408290 0.376311 0.116104 0.168462
H14   H     H_    0.582964 0.374724 0.104690 0.213434
H15   H     H_    0.429092 0.366385 0.909614 0.118055
H16   H     H_    0.577055 0.372185 0.899352 0.125427
H17   H     H_    0.434632 0.641532 0.108593 0.182080
H18   H     H_    0.554666 0.641871 0.100889 0.235535
H19   H     H_    0.433477 0.641858 0.898293 0.184303
H20   H     H_    0.549422 0.646248 0.892687 0.194199
H21   H     H_    0.779725 0.401399 0.347291 0.172948
H22   H     H_    0.772387 0.617496 0.624476 0.175908
N1    N     N_R   0.500070 0.750030 0.500050 -0.142330
N2    N     N_R   0.500070 0.249970 0.500050 -0.141453
O1    O     O_R   0.367860 0.580280 0.500020 -0.628421
O2    O     O_R   0.367860 0.419720 0.500020 -0.637290
O3    O     O_R   0.500000 0.580270 0.314790 -0.592953
O4    O     O_R   0.500000 0.419730 0.314790 -0.595330
O5    O     O_R   0.632160 0.580270 0.499960 -0.607081
O6    O     O_R   0.632160 0.419730 0.499960 -0.599410
O7    O     O_R   0.500030 0.580270 0.685200 -0.630165
O8    O     O_R   0.500030 0.419730 0.685200 -0.648434
Zn1   Zn    Zn3+2 0.500020 0.607200 0.499990 0.962110
Zn2   Zn    Zn3+2 0.500020 0.392800 0.499990 0.962412
C43   C     C_3   0.095365 0.309209 0.242815 -0.407708
C44   C     C_3   0.136060 0.359376 0.128508 -0.874299
H23   H     H_    0.186429 0.412240 0.156369 0.255978
H24   H     H_    0.169488 0.306566 0.066021 0.242659
H25   H     H_    0.082704 0.395783 0.075284 0.266338
H26   H     H_    0.147298 0.268168 0.292778 0.197990
H27   H     H_    0.047279 0.255986 0.208278 0.205407
C45   C     C_2   0.646319 0.747317 0.387345 0.960556
O9    O     O_2   0.718333 0.751733 0.439267 -0.674284
O10   O     O_R   0.639358 0.698381 0.274777 -0.827817
H28   H     H_    0.697709 0.666749 0.247595 0.323733
C46   C     C_2   0.647876 0.247996 0.390642 0.929486
O11   O     O_2   0.642429 0.296548 0.296571 -0.673041
O12   O     O_R   0.731058 0.228866 0.443512 -0.817600
H29   H     H_    0.783288 0.247967 0.387524 0.320986
C47   C     C_3   0.321619 0.457162 0.870553 -0.387334
C48   C     C_3   0.281251 0.556657 0.876970 -0.877311
H30   H     H_    0.289251 0.589321 0.970525 0.260716
H31   H     H_    0.311576 0.601843 0.802843 0.242330
H32   H     H_    0.208487 0.552850 0.858283 0.248554
H33   H     H_    0.325081 0.434875 0.770664 0.203500
H34   H     H_    0.273681 0.408308 0.917670 0.209195
C49   C     C_3   0.676417 0.473768 0.867639 -0.358261
C50   C     C_3   0.710893 0.573577 0.891460 -0.885280
H35   H     H_    0.686162 0.622987 0.818996 0.248447
H36   H     H_    0.692321 0.600319 0.986046 0.266642
H37   H     H_    0.785068 0.572397 0.883975 0.239495
H38   H     H_    0.726406 0.423115 0.905577 0.210745
H39   H     H_    0.676205 0.461133 0.764921 0.199707
C51   C     C_3   0.908413 0.715944 0.720869 -0.438690
C52   C     C_3   0.896455 0.807263 0.646901 -0.788519
H40   H     H_    0.962733 0.835835 0.617784 0.246985
H41   H     H_    0.856651 0.794296 0.562134 0.306350
H42   H     H_    0.861040 0.860683 0.706297 0.247293
H43   H     H_    0.843486 0.693538 0.761418 0.200860
H44   H     H_    0.950466 0.731133 0.803305 0.202992

loop_
_geom_bond_atom_site_label_1
_geom_bond_atom_site_label_2
_ccdc_geom_bond_type
C12   O3    A    
C35   O8    A    
C48   H30   S    
C40   H18   S    
C21   N2    A    
C27   C29   A    
C26   O6    A    
C24   C27   A    
O6    Zn2   S    
C16   H6    S    
C6    C9    A    
C47   H34   S    
C7    C8    A    
C51   H44   S    
C43   C44   S    
C25   C28   A    
C1    C18   S    
O8    Zn2   S    
C23   N2    A    
C45   O10   S    
C38   C42   S    
C5    C6    A    
C19   H5    S    
C51   C52   S    
C43   H27   S    
C15   C16   A    
C38   C47   S    
C1    O2    A    
C18   C19   A    
C35   C42   S    
C32   H10   S    
C37   H14   S    
C11   C17   A    
C31   C32   A    
C52   H40   S    
C9    C10   A    
C2    H19   S    
C20   C29   A    
C25   C32   A    
C49   H38   S    
C21   C46   S    
C48   H31   S    
C40   H17   S    
C13   C14   A    
C26   O5    A    
C52   H41   S    
C36   C41   S    
C47   H33   S    
C17   C18   A    
C39   C42   S    
C51   H43   S    
C33   H11   S    
C49   H39   S    
C20   N1    A    
C45   O9    D    
C3    C8    A    
O10   H28   S    
C23   H8    S    
C9    C51   S    
C39   H16   S    
C29   C34   A    
C50   H37   S    
C5    H22   S    
C22   N1    A    
C12   C41   S    
C38   H15   S    
C39   C49   S    
C49   C50   S    
N2    Zn2   S    
C10   H3    S    
C50   H36   S    
C33   C34   A    
C17   H4    S    
C22   H7    S    
C40   C41   S    
C46   O12   S    
C34   H12   S    
C48   H32   S    
C20   C45   S    
O4    Zn2   S    
C52   H42   S    
C22   C24   A    
O1    Zn1   S    
O7    Zn1   S    
C3    C4    A    
C12   O4    A    
C35   O7    A    
C30   C33   A    
C44   H23   S    
C14   C19   A    
C31   H9    S    
C4    C5    A    
C4    C26   S    
C6    C7    A    
C3    H21   S    
O2    Zn2   S    
C21   C30   A    
N1    Zn1   S    
C37   H2    S    
C36   C38   S    
C24   C31   A    
C37   C39   S    
C36   H13   S    
O5    Zn1   S    
C11   C13   A    
C44   H25   S    
O12   H29   S    
C15   C43   S    
C43   H26   S    
C2    C42   S    
C28   C30   A    
C47   C48   S    
C1    O1    A    
O3    Zn1   S    
C44   H24   S    
C23   C25   A    
C37   C41   S    
C10   C11   A    
C2    C40   S    
C7    C13   A    
C46   O11   D    
C8    C16   A    
C27   C28   A    
C14   C15   A    
C36   H1    S    
C50   H35   S    
C2    H20   S    
