data_mof_unit_20398.cif
_audit_creation_date              2012-12-11T14:33:54-0500
_audit_creation_method            fapswitch 2.2
_symmetry_space_group_name_H-M    P1
_symmetry_Int_Tables_number       1
_space_group_crystal_system       triclinic
_cell_length_a                    14.020685
_cell_length_b                    14.019273
_cell_length_c                    27.291986
_cell_angle_alpha                 89.968759
_cell_angle_beta                  90.062447
_cell_angle_gamma                 119.917422
_cell_volume                      4649.65809258

loop_
_atom_site_label
_atom_site_type_symbol
_atom_type_description
_atom_site_fract_x
_atom_site_fract_y
_atom_site_fract_z
_atom_type_partial_charge
C1    C     C_R   0.234586 0.787073 0.568701 0.554589
C2    C     C_R   0.212995 0.447416 0.568734 0.558768
C3    C     C_R   0.552522 0.765404 0.568730 0.561170
C4    C     C_3   0.720998 0.769645 0.782858 0.323488
C5    C     C_3   0.230503 0.951777 0.782481 0.332023
C6    C     C_3   0.048868 0.279295 0.782729 0.330003
C7    C     C_3   0.686255 0.747950 0.728560 0.299605
C8    C     C_3   0.252217 0.938245 0.728273 0.298859
C9    C     C_3   0.061440 0.311902 0.728159 0.305052
C10   C     C_1   0.739929 0.876130 0.856074 0.163169
C11   C     C_1   0.124650 0.864452 0.856005 0.164165
C12   C     C_1   0.136640 0.262565 0.856444 0.162497
C13   C     C_1   0.629194 0.816411 0.657979 0.138528
C14   C     C_1   0.183431 0.812650 0.657885 0.138438
C15   C     C_1   0.187784 0.370635 0.658010 0.142244
C16   C     C_1   0.600616 0.796841 0.616037 0.118158
C17   C     C_1   0.203035 0.803660 0.615966 0.118410
C18   C     C_1   0.196611 0.399170 0.616043 0.115569
C19   C     C_R   0.107215 0.222271 0.088141 0.572227
C20   C     C_R   0.778660 0.885556 0.088365 0.571827
C21   C     C_R   0.114591 0.892756 0.088235 0.576479
C22   C     C_R   0.074811 0.169027 0.942841 0.511872
C23   C     C_R   0.831652 0.906129 0.942882 0.511848
C24   C     C_R   0.093923 0.925447 0.942871 0.512002
C25   C     C_R   0.651093 0.910309 0.365064 0.044411
C26   C     C_R   0.089080 0.741666 0.365175 -0.022263
C27   C     C_R   0.258643 0.347549 0.365281 0.046819
C28   C     C_R   0.672944 0.927854 0.313935 0.010292
C29   C     C_R   0.071567 0.746227 0.314041 0.017501
C30   C     C_R   0.253487 0.325668 0.314091 0.015574
C31   C     C_R   0.711179 0.953872 0.211602 -0.040240
C32   C     C_R   0.045630 0.757825 0.211634 -0.042816
C33   C     C_R   0.242398 0.290541 0.211304 -0.034722
C34   C     C_R   0.232686 0.788924 0.431615 0.548015
C35   C     C_R   0.210953 0.443411 0.431773 0.573839
C36   C     C_R   0.556027 0.767171 0.431581 0.569643
C37   C     C_R   0.741495 0.047311 0.241472 0.085704
C38   C     C_R   0.952107 0.696329 0.241595 0.086422
C39   C     C_R   0.306525 0.260788 0.241105 0.087657
C40   C     C_R   0.722552 0.033459 0.292264 0.450311
C41   C     C_R   0.965989 0.690564 0.292329 0.446998
C42   C     C_R   0.311217 0.278381 0.291934 0.444705
C43   C     C_R   0.744719 0.964133 0.162599 -0.120699
C44   C     C_R   0.035497 0.780665 0.162527 -0.118672
C45   C     C_R   0.227342 0.266893 0.160927 -0.119694
C46   C     C_R   0.720972 0.871246 0.134609 -0.013417
C47   C     C_R   0.128546 0.848086 0.134334 0.003195
C48   C     C_R   0.150691 0.282001 0.134185 -0.014361
C49   C     C_R   0.618746 0.723534 0.354567 0.024052
C50   C     C_R   0.275109 0.896460 0.354944 0.035554
C51   C     C_R   0.101418 0.375672 0.355914 0.021029
C52   C     C_R   0.604591 0.730444 0.304148 -0.013053
C53   C     C_R   0.268545 0.876299 0.304400 -0.019595
C54   C     C_R   0.120083 0.388999 0.305329 -0.020862
C55   C     C_R   0.641872 0.835178 0.283404 -0.090245
C56   C     C_R   0.164181 0.807866 0.283555 -0.082857
C57   C     C_R   0.188951 0.354059 0.284021 -0.089368
C58   C     C_R   0.553339 0.636456 0.274156 0.446045
C59   C     C_R   0.362728 0.920511 0.274523 0.412816
C60   C     C_R   0.074219 0.438144 0.275844 0.437823
C61   C     C_R   0.558985 0.646893 0.223107 0.100481
C62   C     C_R   0.352606 0.912669 0.223486 0.068352
C63   C     C_R   0.077885 0.432883 0.224762 0.091126
C64   C     C_R   0.619767 0.752746 0.202348 -0.019183
C65   C     C_R   0.246800 0.865314 0.202329 -0.011636
C66   C     C_R   0.125321 0.374662 0.203429 -0.024304
C67   C     C_3   0.554948 0.821754 0.740217 0.712343
C68   C     C_3   0.178686 0.733517 0.740231 0.712726
C69   C     C_3   0.264772 0.447245 0.740347 0.700349
C70   C     C_R   0.655164 0.847327 0.232323 0.006752
C71   C     C_R   0.152166 0.807870 0.232396 0.010087
C72   C     C_R   0.187206 0.341320 0.232857 0.004806
C73   C     C_R   0.654183 0.766387 0.153448 -0.079895
C74   C     C_R   0.233132 0.883057 0.152893 -0.058030
C75   C     C_R   0.104811 0.340907 0.154449 -0.079834
C76   C     C_R   0.618239 0.804861 0.384884 -0.055898
C77   C     C_R   0.194479 0.813925 0.385070 -0.082783
C78   C     C_R   0.185448 0.379179 0.385564 -0.048038
C79   C     C_3   0.754549 0.950794 0.719008 0.178570
C80   C     C_3   0.049331 0.804046 0.718976 0.179738
C81   C     C_3   0.199374 0.247316 0.719846 0.158529
C82   C     C_3   0.779988 0.971557 0.775228 0.246562
C83   C     C_3   0.028899 0.808712 0.775219 0.246087
C84   C     C_3   0.194371 0.223014 0.776257 0.195618
C85   C     C_1   0.779363 0.889408 0.896321 0.139767
C86   C     C_1   0.110992 0.890204 0.896278 0.142250
C87   C     C_1   0.110504 0.222478 0.896554 0.140346
C88   C     C_3   0.655526 0.833722 0.710325 -0.093455
C89   C     C_3   0.166360 0.821871 0.710219 -0.096428
C90   C     C_3   0.178808 0.344921 0.710464 -0.082785
C91   C     C_3   0.578860 0.828066 0.797309 0.341371
C92   C     C_3   0.173372 0.751850 0.797297 0.340220
C93   C     C_3   0.248123 0.423694 0.797527 0.336166
C94   C     C_3   0.703607 0.862777 0.804595 -0.152504
C95   C     C_3   0.137994 0.841478 0.804501 -0.156598
C96   C     C_3   0.159804 0.298616 0.804945 -0.149330
Cr1   Cr    Cr6+3 0.164410 0.584450 0.499910 1.148640
Cr2   Cr    Cr6+3 0.415550 0.579960 0.499910 1.134111
Cr3   Cr    Cr6+3 0.420040 0.835590 0.499910 1.124376
Cr4   Cr    Cr6+3 0.155170 0.075460 0.019960 1.087306
Cr5   Cr    Cr6+3 0.924540 0.079710 0.019960 1.085567
Cr6   Cr    Cr6+3 0.920290 0.844830 0.019960 1.083873
H1    H     H_    0.809092 0.795953 0.784901 0.222526
H2    H     H_    0.203367 0.013014 0.784074 0.225787
H3    H     H_    0.987764 0.191128 0.785335 0.224595
H4    H     H_    0.799020 0.044306 0.147188 0.166942
H5    H     H_    0.955389 0.755721 0.147165 0.164119
H6    H     H_    0.268005 0.229204 0.142497 0.183299
H7    H     H_    0.637561 0.696209 0.130909 0.162485
H8    H     H_    0.303254 0.933439 0.129786 0.158321
H9    H     H_    0.046957 0.353003 0.132778 0.163632
H10   H     H_    0.735477 0.011428 0.702217 0.215167
H11   H     H_    0.988610 0.724507 0.702216 0.216355
H12   H     H_    0.277948 0.265138 0.702821 0.154674
H13   H     H_    0.756071 0.754241 0.706584 0.185783
H14   H     H_    0.246065 0.001688 0.706087 0.181885
H15   H     H_    0.999382 0.240488 0.706461 0.187814
O1    O     O_R   0.137150 0.468200 0.553200 -0.472042
O2    O     O_R   0.531800 0.668950 0.553200 -0.472715
O3    O     O_R   0.331050 0.862850 0.553200 -0.478829
O4    O     O_R   0.179100 0.982980 0.967000 -0.467266
O5    O     O_R   0.017020 0.196120 0.967000 -0.468333
O6    O     O_R   0.803880 0.820900 0.967000 -0.466595
O7    O     O_R   0.173970 0.688730 0.549930 -0.481376
O8    O     O_R   0.311270 0.485240 0.549930 -0.489069
O9    O     O_R   0.514760 0.826030 0.549930 -0.487669
O10   O     O_R   0.140110 0.470540 0.446010 -0.466872
O11   O     O_R   0.529460 0.669570 0.446010 -0.468987
O12   O     O_R   0.330430 0.859890 0.446010 -0.464282
O13   O     O_R   0.176710 0.690910 0.450560 -0.489708
O14   O     O_R   0.309090 0.485800 0.450560 -0.492212
O15   O     O_R   0.514200 0.823290 0.450560 -0.490707
O16   O     O_3   0.333333 0.666667 0.499990 -0.324259
O17   O     O_R   0.176750 0.985260 0.074180 -0.490637
O18   O     O_R   0.014740 0.191490 0.074180 -0.504923
O19   O     O_R   0.808510 0.823250 0.074180 -0.504978
O20   O     O_R   0.146100 0.172630 0.068980 -0.488824
O21   O     O_R   0.827370 0.973470 0.068980 -0.489916
O22   O     O_R   0.026530 0.853900 0.068980 -0.494569
O23   O     O_3   0.000000 0.000000 0.020040 -0.302315
O24   O     O_R   0.148270 0.170520 0.969620 -0.488601
O25   O     O_R   0.829480 0.977750 0.969620 -0.487039
O26   O     O_R   0.022250 0.851730 0.969620 -0.488969
C97   C     C_2   0.545819 0.899544 0.826868 0.715658
O27   O     O_2   0.518023 0.960162 0.807150 -0.275438
O28   O     O_R   0.545131 0.893352 0.878029 -0.625001
H16   H     H_    0.521550 0.943429 0.894153 0.370916
C98   C     C_2   0.102943 0.647791 0.827219 0.717269
O29   O     O_2   0.041571 0.559377 0.807814 -0.282690
O30   O     O_R   0.110878 0.653765 0.878338 -0.624258
H17   H     H_    0.061343 0.580386 0.894721 0.369491
C99   C     C_2   0.353038 0.458490 0.827057 0.702604
O31   O     O_2   0.442582 0.493662 0.807376 -0.281548
O32   O     O_R   0.346828 0.453718 0.878221 -0.630584
H18   H     H_    0.420964 0.479506 0.894300 0.373114
F1    F     F_    0.462880 0.721414 0.729350 -0.364275
F2    F     F_    0.278824 0.741467 0.729148 -0.366448
F3    F     F_    0.251868 0.536658 0.729364 -0.361013
F4    F     F_    0.514686 0.723159 0.816423 -0.449659
F5    F     F_    0.278833 0.793274 0.816031 -0.451729
F6    F     F_    0.205962 0.486740 0.816673 -0.450132
C100  C     C_2   0.662939 0.999339 0.398314 0.681549
O33   O     O_2   0.612788 0.048182 0.389933 -0.362189
O34   O     O_R   0.726992 0.022818 0.440664 -0.667794
H19   H     H_    0.725220 0.081716 0.461522 0.340736
C101  C     C_2   0.999506 0.664109 0.398262 0.700498
O35   O     O_2   0.954004 0.565252 0.390520 -0.319262
O36   O     O_R   0.968956 0.702299 0.439282 -0.614440
H20   H     H_    0.010823 0.785475 0.441974 0.312508
C102  C     C_2   0.337592 0.337301 0.398068 0.682685
O37   O     O_2   0.435949 0.386797 0.388700 -0.377588
O38   O     O_R   0.299398 0.275107 0.440999 -0.668343
H21   H     H_    0.361078 0.277386 0.461309 0.340573
C103  C     C_2   0.791921 0.160652 0.220842 0.648306
O39   O     O_2   0.861741 0.238311 0.244277 -0.428507
O40   O     O_R   0.757099 0.179630 0.175676 -0.664575
H22   H     H_    0.797608 0.260222 0.166066 0.363713
C104  C     C_2   0.838504 0.636665 0.221147 0.648847
O41   O     O_2   0.762832 0.635224 0.243859 -0.439104
O42   O     O_R   0.817111 0.579480 0.176827 -0.668312
H23   H     H_    0.736628 0.542372 0.167140 0.363044
C105  C     C_2   0.370437 0.211321 0.220806 0.640685
O43   O     O_2   0.465244 0.245350 0.234315 -0.301169
O44   O     O_R   0.322471 0.124629 0.187422 -0.751342
H24   H     H_    0.378401 0.107137 0.172938 0.342221
F7    F     F_    0.757018 0.124752 0.320321 -0.526045
F8    F     F_    0.874724 0.633600 0.320291 -0.551494
F9    F     F_    0.365546 0.240259 0.319671 -0.545106
C106  C     C_2   0.504994 0.546602 0.192299 0.583849
O45   O     O_2   0.513490 0.466549 0.202976 -0.429569
O46   O     O_R   0.444969 0.544075 0.150888 -0.691311
H25   H     H_    0.414285 0.472258 0.132202 0.340634
C107  C     C_2   0.453460 0.957670 0.193174 0.581723
O47   O     O_2   0.532995 0.046642 0.203542 -0.393243
O48   O     O_R   0.457479 0.898337 0.152836 -0.688587
H26   H     H_    0.530160 0.938297 0.134752 0.355156
C108  C     C_2   0.028878 0.485673 0.194684 0.593458
O49   O     O_2   0.941702 0.478299 0.207001 -0.386626
O50   O     O_R   0.082796 0.544488 0.152511 -0.693656
H27   H     H_    0.040986 0.576289 0.135118 0.354190
F10   F     F_    0.490220 0.535398 0.294422 -0.568828
F11   F     F_    0.464107 0.961565 0.295025 -0.566068
F12   F     F_    0.033921 0.498884 0.296641 -0.563123
F13   F     F_    0.532797 0.902686 0.724379 -0.516829
F14   F     F_    0.097479 0.630441 0.724737 -0.514826
F15   F     F_    0.368890 0.473985 0.724388 -0.554849
C109  C     C_2   0.657956 0.648859 0.374192 0.688262
O51   O     O_2   0.704937 0.668955 0.413840 -0.443579
O52   O     O_R   0.649925 0.561469 0.346385 -0.486625
H28   H     H_    0.679774 0.518287 0.364134 0.412759
C110  C     C_2   0.348479 0.009658 0.375178 0.685646
O53   O     O_2   0.424185 0.080243 0.351039 -0.299328
O54   O     O_R   0.324787 0.038200 0.420857 -0.659892
H29   H     H_    0.379069 0.116913 0.430437 0.363660
C111  C     C_2   0.988848 0.335859 0.376885 0.692820
O55   O     O_2   0.917330 0.340894 0.353334 -0.287245
O56   O     O_R   0.962162 0.284212 0.422716 -0.649208
H30   H     H_    0.883908 0.260236 0.432935 0.362564
F16   F     F_    0.846248 0.962586 0.694163 -0.500721
F17   F     F_    0.037393 0.884013 0.694155 -0.499609
F18   F     F_    0.120166 0.154690 0.695245 -0.493633
C112  C     C_2   0.771716 0.069715 0.794167 0.565020
O57   O     O_2   0.799630 0.101342 0.836276 -0.464782
O58   O     O_R   0.734623 0.125552 0.764164 -0.630241
H31   H     H_    0.734353 0.189316 0.781543 0.406809
C113  C     C_2   0.931255 0.702268 0.794273 0.565210
O59   O     O_2   0.899756 0.698549 0.836388 -0.464588
O60   O     O_R   0.875726 0.609324 0.764362 -0.632601
H32   H     H_    0.812289 0.545272 0.781808 0.405081
C114  C     C_2   0.298589 0.228918 0.797940 0.581577
O61   O     O_2   0.291468 0.186449 0.837872 -0.406289
O62   O     O_R   0.401470 0.278088 0.774856 -0.581485
H33   H     H_    0.413449 0.333280 0.748560 0.350982
F19   F     F_    0.888010 0.997167 0.782520 -0.504763
F20   F     F_    0.002847 0.890868 0.782508 -0.505240
F21   F     F_    0.111062 0.115107 0.783002 -0.501946
F22   F     F_    0.598736 0.641915 0.722438 -0.450507
F23   F     F_    0.358197 0.956285 0.722326 -0.438783
F24   F     F_    0.039761 0.397243 0.720955 -0.446115
F25   F     F_    0.666419 0.673366 0.809993 -0.473615
F26   F     F_    0.326945 0.994206 0.809611 -0.455786
F27   F     F_    0.006336 0.334263 0.809071 -0.475312

loop_
_geom_bond_atom_site_label_1
_geom_bond_atom_site_label_2
_ccdc_geom_bond_type
C15   C18   T    
C61   C106  S    
C30   C57   A    
C10   C85   T    
C38   C104  S    
C2    C18   S    
C9    H15   S    
C5    H2    S    
C48   C75   A    
Cr1   O16   S    
Cr1   O10   S    
C27   C78   A    
O58   H31   S    
C6    C9    S    
C104  O41   D    
C2    O1    A    
C3    O9    A    
Cr2   O2    S    
C54   C60   A    
O54   H29   S    
O38   H21   S    
C25   C28   A    
Cr2   O16   S    
C41   F8    S    
C69   F15   S    
C33   C39   A    
C31   C43   A    
C79   H10   S    
C60   C63   A    
C82   C94   S    
O34   H19   S    
C84   F21   S    
C52   C55   A    
C98   O30   S    
Cr1   O13   S    
O28   H16   S    
C37   C40   A    
C69   C93   S    
Cr4   O24   S    
C111  O56   S    
C34   C77   S    
C68   F2    S    
C64   C70   A    
C51   C111  S    
C44   H5    S    
C92   C98   S    
C102  O37   D    
C28   C40   A    
C24   O26   A    
C19   O18   A    
C4    H1    S    
Cr1   O1    S    
C33   C45   A    
O44   H24   S    
Cr3   O16   S    
C106  O46   S    
Cr4   O4    S    
C84   C96   S    
C20   O21   A    
C80   C89   S    
C108  O50   S    
C39   C42   A    
C105  O43   D    
C24   O4    A    
C8    C89   S    
C67   F13   S    
C36   C76   S    
C33   C72   A    
C37   C103  S    
C103  O39   D    
C28   C55   A    
C31   C70   A    
C66   C72   A    
C49   C109  S    
C34   O12   A    
C107  O48   S    
C81   H12   S    
C9    F24   S    
C64   C73   A    
C23   O25   A    
O40   H22   S    
C32   C38   A    
Cr3   O9    S    
C84   C114  S    
C91   F4    S    
C62   C65   A    
C45   H6    S    
C56   C71   A    
C58   C61   A    
Cr2   O11   S    
Cr3   O3    S    
C63   C66   A    
O50   H27   S    
C21   C47   S    
C27   C30   A    
C101  O36   S    
C14   C17   T    
C36   O11   A    
C6    F27   S    
C80   C83   S    
C79   C88   S    
C5    C95   S    
Cr5   O23   S    
Cr4   O17   S    
C22   O5    A    
C32   C71   A    
C100  O34   S    
C1    C17   S    
Cr5   O18   S    
C53   C59   A    
C52   C58   A    
C26   C77   A    
C53   C56   A    
Cr3   O12   S    
C63   C108  S    
C109  O51   D    
C55   C70   A    
C7    F22   S    
C98   O29   D    
C58   F10   S    
C38   C41   A    
O52   H28   S    
C22   O24   A    
Cr6   O19   S    
C19   C48   S    
C23   O6    A    
C4    C7    S    
O56   H30   S    
C65   C71   A    
C92   C95   S    
C65   C74   A    
O46   H25   S    
C67   F1    S    
C1    O3    A    
Cr2   O14   S    
C61   C64   A    
C114  O62   S    
C111  O55   D    
Cr1   O7    S    
C14   C89   S    
C74   H8    S    
C5    C8    S    
Cr5   O25   S    
C60   F12   S    
C79   F16   S    
C7    C88   S    
C93   F6    S    
C25   C100  S    
C19   O20   A    
C49   C52   A    
C83   C95   S    
C67   C91   S    
C68   C89   S    
C4    F25   S    
C49   C76   A    
C11   C86   T    
Cr6   O23   S    
C22   C87   S    
C20   O19   A    
C112  O58   S    
C27   C102  S    
C34   O13   A    
O32   H18   S    
C3    O2    A    
C4    C94   S    
C81   C90   S    
Cr3   O15   S    
C97   O28   S    
O36   H20   S    
C110  O54   S    
C99   O32   S    
C50   C110  S    
C107  O47   D    
C93   C96   S    
C6    C96   S    
C82   F19   S    
C101  O35   D    
Cr6   O26   S    
C21   O22   A    
C69   C90   S    
C50   C77   A    
C35   O14   A    
C21   O17   A    
C35   O10   A    
C81   C84   S    
O42   H23   S    
C91   C97   S    
C45   C48   A    
C42   F9    S    
C73   H7    S    
C40   F7    S    
C26   C101  S    
C59   C62   A    
C12   C87   T    
C29   C41   A    
C75   H9    S    
C7    H13   S    
C30   C42   A    
C47   C74   A    
C83   F20   S    
C97   O27   D    
C9    C90   S    
C80   F17   S    
C79   C82   S    
C104  O42   S    
Cr5   O21   S    
C44   C47   A    
C67   C88   S    
C82   C112  S    
C29   C56   A    
C8    F23   S    
C100  O33   D    
C81   F18   S    
C35   C78   S    
C113  O60   S    
Cr5   O5    S    
C92   F5    S    
C51   C54   A    
C25   C76   A    
C36   O15   A    
C51   C78   A    
C114  O61   D    
C83   C113  S    
C91   C94   S    
C59   F11   S    
C102  O38   S    
C6    H3    S    
C66   C75   A    
C13   C88   S    
C110  O53   D    
O62   H33   S    
C68   C92   S    
C103  O40   S    
C69   F3    S    
C108  O49   D    
Cr6   O22   S    
C57   C72   A    
C106  O45   D    
C43   C46   A    
C105  O44   S    
C1    O7    A    
C39   C105  S    
Cr4   O20   S    
C8    H14   S    
O60   H32   S    
O48   H26   S    
C2    O8    A    
C31   C37   A    
C11   C95   S    
C80   H11   S    
C32   C44   A    
C26   C29   A    
C113  O59   D    
C23   C85   S    
C13   C16   T    
C68   F14   S    
C109  O52   S    
C10   C94   S    
O30   H17   S    
C12   C96   S    
C93   C99   S    
C99   O31   D    
Cr2   O8    S    
C62   C107  S    
C5    F26   S    
C24   C86   S    
C112  O57   D    
C43   H4    S    
C46   C73   A    
C20   C46   S    
C3    C16   S    
Cr6   O6    S    
C50   C53   A    
C15   C90   S    
C54   C57   A    
Cr4   O23   S    
