data_mof_unit_59436.cif
_audit_creation_date              2012-10-26T20:50:48-0400
_audit_creation_method            fapswitch 2.2
_symmetry_space_group_name_H-M    P1
_symmetry_Int_Tables_number       1
_space_group_crystal_system       triclinic
_cell_length_a                    11.061838
_cell_length_b                    10.827641
_cell_length_c                    9.545702
_cell_angle_alpha                 89.880219
_cell_angle_beta                  102.833504
_cell_angle_gamma                 90.168757
_cell_volume                      1114.75652026

loop_
_atom_site_label
_atom_site_type_symbol
_atom_type_description
_atom_site_fract_x
_atom_site_fract_y
_atom_site_fract_z
_atom_type_partial_charge
C1    C     C_R   0.501859 0.262386 0.500594 0.539254
C2    C     C_R   0.404471 0.449779 0.049968 -0.026289
C3    C     C_R   0.404487 0.449709 0.901168 -0.017603
C4    C     C_R   0.262762 0.499717 0.441586 0.552923
C5    C     C_R   0.602347 0.537846 0.952345 0.123100
C6    C     C_3   0.663492 0.661102 0.960292 -0.233739
C7    C     C_3   0.661909 0.662762 0.119404 0.132650
C8    C     C_R   0.501380 0.737735 0.500275 0.551574
C9    C     C_R   0.737308 0.498781 0.558726 0.564165
C10   C     C_2   0.127756 0.496594 0.408739 -0.154041
C11   C     C_2   0.068287 0.498709 0.516087 -0.154123
C12   C     C_R   0.512850 0.129371 0.503731 0.007696
C13   C     C_2   0.872848 0.497951 0.594160 0.250505
C14   C     C_2   0.933730 0.490458 0.487589 -0.121631
C15   C     C_R   0.506595 0.063560 0.627747 0.021513
C16   C     C_3   0.825697 0.774166 0.250880 -0.131666
C17   C     C_3   0.949492 0.401798 0.806754 -0.137356
C18   C     C_R   0.534174 0.064921 0.383966 -0.167264
C19   C     C_R   0.533126 0.936289 0.383579 -0.168282
C20   C     C_R   0.511612 0.871040 0.503172 0.008920
C21   C     C_R   0.505989 0.936309 0.627572 0.016200
C22   C     C_3   0.411223 0.930304 0.717345 -0.266519
C23   C     C_3   0.412388 0.070433 0.717825 -0.269599
C24   C     C_R   0.602201 0.538381 0.099577 0.212770
Cu1   Cu    Cu3+1 0.499990 0.499980 0.640670 0.937764
Cu2   Cu    Cu3+1 0.500010 0.500020 0.359330 0.948195
H1    H     H_    0.883708 0.477116 0.377101 0.164870
H2    H     H_    0.545891 0.113252 0.288384 0.133627
H3    H     H_    0.543522 0.888856 0.287562 0.116729
H4    H     H_    0.321651 0.890105 0.658614 0.142253
H5    H     H_    0.448750 0.889943 0.825254 0.128684
H6    H     H_    0.323426 0.111891 0.659628 0.132338
H7    H     H_    0.771643 0.815095 0.324465 0.123468
H8    H     H_    0.823162 0.835580 0.156571 0.107638
H9    H     H_    0.923599 0.767199 0.310794 0.149120
H10   H     H_    0.002334 0.335340 0.754629 0.097258
H11   H     H_    0.858028 0.361827 0.812855 0.136261
H12   H     H_    0.451503 0.110430 0.825590 0.136336
H13   H     H_    0.002914 0.416259 0.918448 0.138455
H14   H     H_    0.326270 0.410740 0.085421 0.120455
H15   H     H_    0.326295 0.410436 0.825855 0.116449
H16   H     H_    0.758011 0.655249 0.938595 0.176124
H17   H     H_    0.603226 0.732744 0.897286 0.106541
H18   H     H_    0.599647 0.733436 0.150044 0.103887
H19   H     H_    0.119638 0.505990 0.626904 0.194805
H20   H     H_    0.077066 0.490757 0.297466 0.115160
N1    N     N_R   0.500780 0.500930 0.148120 -0.256621
N2    N     N_R   0.500790 0.500890 0.852210 -0.242109
O1    O     O_R   0.500000 0.319640 0.618810 -0.503047
O2    O     O_3   0.936051 0.516648 0.735148 -0.576091
O3    O     O_R   0.500010 0.319680 0.381230 -0.511449
O4    O     O_R   0.320680 0.500000 0.575130 -0.508812
O5    O     O_R   0.320690 0.500040 0.337550 -0.501868
O6    O     O_R   0.499990 0.680320 0.618770 -0.498773
O7    O     O_R   0.500000 0.680360 0.381190 -0.505681
O8    O     O_R   0.679310 0.499960 0.662450 -0.485251
O9    O     O_R   0.679320 0.500000 0.424870 -0.498658
O10   O     O_3   0.782053 0.654711 0.208154 -0.571216

loop_
_geom_bond_atom_site_label_1
_geom_bond_atom_site_label_2
_ccdc_geom_bond_type
C17   O2    S    
C10   H20   S    
Cu1   O8    S    
C6    C7    S    
C17   H10   S    
C16   H7    S    
C23   H12   S    
C7    O10   S    
Cu2   O3    S    
C19   C20   A    
C12   C15   A    
Cu2   O7    S    
C15   C23   S    
C2    C3    A    
Cu1   Cu2   S    
Cu1   O4    S    
C9    O8    A    
C16   O10   S    
C7    H18   S    
Cu1   O6    S    
C14   H1    S    
C1    O3    A    
Cu1   N2    S    
C8    C20   S    
C1    C12   S    
Cu2   N1    S    
C4    O4    A    
C8    O7    A    
C21   C22   S    
C5    N2    A    
C9    O9    A    
C6    H17   S    
C16   H9    S    
C6    H16   S    
C5    C6    S    
C2    N1    A    
Cu2   O9    S    
Cu1   O1    S    
C11   H19   S    
C4    O5    A    
C10   C11   D    
C4    C10   S    
C13   O2    S    
C19   H3    S    
Cu2   O5    S    
C2    H14   S    
C3    N2    A    
C15   C21   A    
C18   H2    S    
C20   C21   A    
C18   C19   A    
C17   H13   S    
C8    O6    A    
C11   C14   S    
C9    C13   S    
C22   C23   S    
C5    C24   A    
C17   H11   S    
C22   H4    S    
C16   H8    S    
C22   H5    S    
C13   C14   D    
C24   N1    A    
C1    O1    A    
C3    H15   S    
C7    C24   S    
C23   H6    S    
C12   C18   A    
