data_mof_unit_39880.cif
_audit_creation_date              2012-12-10T16:53:01-0500
_audit_creation_method            fapswitch 2.2
_symmetry_space_group_name_H-M    P1
_symmetry_Int_Tables_number       1
_space_group_crystal_system       triclinic
_cell_length_a                    7.970712
_cell_length_b                    8.602826
_cell_length_c                    11.465623
_cell_angle_alpha                 93.095007
_cell_angle_beta                  84.86078
_cell_angle_gamma                 91.613564
_cell_volume                      781.687460598

loop_
_atom_site_label
_atom_site_type_symbol
_atom_type_description
_atom_site_fract_x
_atom_site_fract_y
_atom_site_fract_z
_atom_type_partial_charge
C1    C     C_R   0.542091 0.792597 0.492777 0.914434
C2    C     C_2   0.446606 0.048657 0.532796 -0.076658
C3    C     C_3   0.660878 0.995224 0.354725 -0.347419
C4    C     C_3   0.659665 0.871920 0.253564 -0.843086
C5    C     C_3   0.339146 0.004939 0.645268 -0.339277
C6    C     C_3   0.340666 0.128160 0.746476 -0.833674
C7    C     C_R   0.457927 0.207425 0.507242 0.914977
C8    C     C_R   0.500413 0.502236 0.717406 0.867939
C9    C     C_R   0.499582 0.497826 0.282597 0.854011
C10   C     C_1   0.500528 0.502165 0.838098 -0.106721
C11   C     C_1   0.499351 0.497744 0.161907 -0.107216
C12   C     C_1   0.500181 0.500894 0.940580 0.017884
C13   C     C_1   0.499617 0.498906 0.059425 0.033277
C14   C     C_2   0.553438 0.951396 0.467209 -0.072946
H1    H     H_    0.734785 0.770614 0.270983 0.287396
H2    H     H_    0.385918 0.899028 0.681576 0.240701
H3    H     H_    0.204999 0.229865 0.244013 0.357500
H4    H     H_    0.902691 0.518572 0.835945 0.372882
H5    H     H_    0.528288 0.834253 0.239449 0.245411
H6    H     H_    0.718154 0.921668 0.171762 0.271462
H7    H     H_    0.613861 0.100999 0.318355 0.237321
H8    H     H_    0.792934 0.018138 0.375840 0.267925
H9    H     H_    0.472111 0.165702 0.760496 0.245860
H10   H     H_    0.265602 0.229553 0.729169 0.287397
H11   H     H_    0.282255 0.078404 0.828297 0.270684
H12   H     H_    0.207042 0.982421 0.624140 0.268612
N1    N     N_2   0.950330 0.457960 0.469510 0.123880
N2    N     N_2   0.049670 0.542040 0.530490 0.122152
O1    O     O_R   0.389250 0.738570 0.507480 -0.633441
O2    O     O_2   0.068783 0.518700 0.253276 -0.302992
O3    O     O_3   0.177127 0.260407 0.327920 -0.548827
O4    O     O_2   0.120961 0.707979 0.720775 -0.314178
O5    O     O_2   0.838052 0.726297 0.667081 -0.302533
O6    O     O_3   0.924472 0.468858 0.756257 -0.546064
O7    O     O_R   0.610750 0.261430 0.492520 -0.631545
O8    O     O_R   0.678390 0.711630 0.487940 -0.580715
O9    O     O_R   0.321610 0.288370 0.512060 -0.564893
O10   O     O_R   0.355420 0.513450 0.675320 -0.580643
O11   O     O_R   0.644580 0.486550 0.324680 -0.578172
O12   O     O_R   0.644570 0.486510 0.655780 -0.542690
O13   O     O_R   0.355430 0.513490 0.344220 -0.545540
O14   O     O_2   0.878026 0.294941 0.278029 -0.311631
S1    S     S_3+6 0.019285 0.385512 0.329840 0.133085
S2    S     S_3+6 0.980125 0.616468 0.669204 0.132336
Zn1   Zn    Zn3+2 0.306940 0.517990 0.513050 1.120036
Zn2   Zn    Zn3+2 0.693060 0.482010 0.486950 1.123701

loop_
_geom_bond_atom_site_label_1
_geom_bond_atom_site_label_2
_ccdc_geom_bond_type
O8    Zn2   S    
C9    C11   S    
O3    S1    S    
C9    O13   A    
C2    C7    S    
C6    H10   S    
C4    H1    S    
C1    O1    A    
O4    S2    D    
C5    H2    S    
C12   C13   S    
O12   Zn2   S    
O7    Zn2   S    
C11   C13   T    
C3    C14   S    
C8    O10   A    
O11   Zn2   S    
H3    O3    S    
C6    H9    S    
C10   C12   T    
N1    Zn2   S    
H4    O6    S    
C7    O9    A    
C5    C6    S    
C2    C14   D    
O5    S2    D    
N2    Zn1   S    
C3    H7    S    
C2    C5    S    
O14   S1    D    
O9    Zn1   S    
C5    H12   S    
C6    H11   S    
N1    S1    S    
C9    O11   A    
O6    S2    S    
O2    S1    D    
C8    C10   S    
N1    N2    D    
O13   Zn1   S    
O10   Zn1   S    
C1    C14   S    
C8    O12   A    
C4    H5    S    
C7    O7    A    
N2    S2    S    
C3    C4    S    
C1    O8    A    
O1    Zn1   S    
C3    H8    S    
C4    H6    S    
