data_mof_unit_34615.cif
_audit_creation_date              2013-03-05T16:47:55-0500
_audit_creation_method            fapswitch 2.2
_symmetry_space_group_name_H-M    P1
_symmetry_Int_Tables_number       1
_space_group_crystal_system       triclinic
_cell_length_a                    8.100559
_cell_length_b                    8.923688
_cell_length_c                    16.926048
_cell_angle_alpha                 89.916671
_cell_angle_beta                  85.510158
_cell_angle_gamma                 90.011596
_cell_volume                      1219.7747929

loop_
_atom_site_label
_atom_site_type_symbol
_atom_site_description
_atom_site_fract_x
_atom_site_fract_y
_atom_site_fract_z
_atom_type_partial_charge
O1    O     O_R   0.363150 0.714660 0.500000 -0.607983
O2    O     O_R   0.636850 0.285340 0.500000 -0.605436
O3    O     O_R   0.636850 0.714660 0.500000 -0.606984
O4    O     O_R   0.363150 0.285340 0.500000 -0.607316
C1    C     C_R   0.499966 0.782024 0.500405 0.943922
C2    C     C_R   0.499982 0.217977 0.500062 0.972913
O5    O     O_R   0.346950 0.500000 0.615800 -0.597447
O6    O     O_R   0.653050 0.500000 0.384200 -0.593212
O7    O     O_R   0.620700 0.500000 0.615800 -0.582564
O8    O     O_R   0.379300 0.500000 0.384200 -0.597977
C3    C     C_R   0.477673 0.507635 0.653070 0.989458
C4    C     C_R   0.521702 0.505208 0.347108 1.007403
Zn1   Zn    Zn3+2 0.317220 0.500000 0.500010 1.101542
Zn2   Zn    Zn3+2 0.682780 0.500000 0.499990 1.106858
N1    N     N_1   0.926360 0.500000 0.499990 0.017025
N2    N     N_1   0.073640 0.500000 0.500010 0.016104
C5    C     C_R   0.461440 0.550780 0.736255 -0.300959
C6    C     C_R   0.528511 0.531165 0.262585 -0.310292
C7    C     C_R   0.564260 0.665340 0.763068 0.175326
C8    C     C_R   0.431094 0.648073 0.235230 0.179284
C9    C     C_R   0.539556 0.716333 0.840967 0.271866
C10   C     C_R   0.400419 0.654531 0.155696 0.274237
C11   C     C_R   0.411517 0.654878 0.891406 -0.158923
C12   C     C_R   0.477612 0.550198 0.102288 -0.166185
C13   C     C_R   0.297844 0.552337 0.862757 0.202845
C14   C     C_R   0.589011 0.442243 0.128422 0.237875
C15   C     C_R   0.325737 0.496703 0.785601 0.185704
C16   C     C_R   0.613099 0.431599 0.209456 0.185343
C17   C     C_2   0.423316 0.670002 0.976614 0.004738
C18   C     C_2   0.435870 0.545811 0.019871 -0.039876
C19   C     C_1   0.500004 0.934795 0.500399 -0.082211
C20   C     C_1   0.499969 0.065197 0.500257 -0.085096
H1    H     H_    0.429636 0.436551 0.991872 0.204403
H2    H     H_    0.449479 0.778882 0.001037 0.226307
N3    N     N_R   0.159452 0.499424 0.913685 0.249590
O9    O     O_R   0.128912 0.356635 0.920699 -0.239741
O10   O     O_R   0.068405 0.593812 0.956276 -0.225765
N4    N     N_R   0.671352 0.339058 0.073273 0.249427
O11   O     O_R   0.665044 0.195536 0.086930 -0.231546
O12   O     O_R   0.751489 0.388187 0.008757 -0.254452
N5    N     N_R   0.277901 0.757200 0.131318 0.229348
O13   O     O_R   0.135188 0.707313 0.112688 -0.258476
O14   O     O_R   0.304643 0.900946 0.132552 -0.261770
N6    N     N_R   0.649974 0.825416 0.870167 0.244156
O15   O     O_R   0.807244 0.796338 0.870812 -0.233020
O16   O     O_R   0.592884 0.953027 0.897482 -0.280264
Br1   Br    Br    0.730087 0.766336 0.693569 -0.324686
Br2   Br    Br    0.330493 0.797155 0.306715 -0.327442
N7    N     N_R   0.720240 0.318384 0.237562 0.251321
O17   O     O_R   0.872808 0.308089 0.207696 -0.254180
O18   O     O_R   0.663997 0.221490 0.290569 -0.349498
N8    N     N_R   0.215594 0.386163 0.757288 0.259232
O19   O     O_R   0.057118 0.411809 0.759876 -0.269528
O20   O     O_R   0.273774 0.260400 0.727935 -0.333400

loop_
_geom_bond_atom_site_label_1
_geom_bond_atom_site_label_2
_geom_bond_distance
_ccdc_geom_bond_type
C2    C20   1.363358 S    
O7    Zn2   1.985186 S    
C17   C18   1.335642 D    
C13   C15   1.399563 A    
C9    N6    1.436011 S    
N5    O14   1.301333 A    
C16   N7    1.436616 S    
C14   C16   1.403519 A    
C19   C20   1.163666 T    
O6    C4    1.277860 A    
N7    O18   1.301432 A    
C11   C13   1.411098 A    
O2    C2    1.261004 A    
N8    O19   1.301395 A    
N4    O12   1.301379 A    
O7    C3    1.276978 A    
C8    Br2   1.936160 S    
O3    Zn2   1.951428 S    
O8    C4    1.270221 A    
C13   N3    1.438774 S    
O1    C1    1.261202 A    
C11   C17   1.459296 S    
C7    C9    1.395022 A    
C12   C14   1.414092 A    
O5    C3    1.276167 A    
C12   C18   1.461474 S    
C9    C11   1.401836 A    
N4    O11   1.301394 A    
O2    Zn2   1.951281 S    
C10   C12   1.410390 A    
Zn1   N2    1.973134 S    
C10   N5    1.434583 S    
O1    Zn1   1.951280 S    
C8    C10   1.389041 A    
C4    C6    1.445726 S    
N1    N2    1.193077 T    
C5    C15   1.412003 A    
O3    C1    1.260962 A    
O5    Zn1   1.993232 S    
C6    C16   1.404878 A    
N6    O15   1.301061 A    
C15   N8    1.437601 S    
C6    C8    1.407698 A    
O4    C2    1.261105 A    
N7    O17   1.301456 A    
N5    O13   1.300521 A    
C7    Br1   1.936359 S    
N3    O10   1.300727 A    
O4    Zn1   1.951429 S    
Zn2   N1    1.973134 S    
C3    C5    1.456219 S    
O6    Zn2   1.993233 S    
N6    O16   1.301028 A    
C18   H1    1.087587 S    
C5    C7    1.415973 A    
C17   H2    1.083803 S    
C14   N4    1.438531 S    
N3    O9    1.301433 A    
N8    O20   1.301392 A    
C1    C19   1.363286 S    
O8    Zn1   1.985186 S    
