data_mof_unit_9454.cif
_audit_creation_date              2012-10-26T21:08:40-0400
_audit_creation_method            fapswitch 2.2
_symmetry_space_group_name_H-M    P1
_symmetry_Int_Tables_number       1
_space_group_crystal_system       triclinic
_cell_length_a                    22.446457
_cell_length_b                    22.436933
_cell_length_c                    14.606747
_cell_angle_alpha                 89.717833
_cell_angle_beta                  90.032014
_cell_angle_gamma                 90.027884
_cell_volume                      7356.29968837

loop_
_atom_site_label
_atom_site_type_symbol
_atom_type_description
_atom_site_fract_x
_atom_site_fract_y
_atom_site_fract_z
_atom_type_partial_charge
C1    C     C_R   0.419705 0.919728 0.500152 0.548505
C2    C     C_1   0.662943 0.837425 0.499927 -0.084423
C3    C     C_3   0.121110 0.909489 0.660490 -0.462233
C4    C     C_3   0.703099 0.639035 0.566411 -0.251076
C5    C     C_3   0.637327 0.642243 0.593873 -0.298687
C6    C     C_3   0.612839 0.580421 0.616093 -0.462855
C7    C     C_3   0.296893 0.360961 0.433557 -0.251074
C8    C     C_3   0.362665 0.357754 0.406091 -0.298683
C9    C     C_3   0.387146 0.419575 0.383844 -0.462858
C10   C     C_3   0.292361 0.644579 0.411003 -0.251149
C11   C     C_3   0.356311 0.650105 0.375365 -0.299330
C12   C     C_3   0.378880 0.590514 0.339515 -0.462232
C13   C     C_1   0.662929 0.162590 0.498974 -0.084461
C14   C     C_3   0.707621 0.355435 0.588945 -0.251150
C15   C     C_3   0.643668 0.349911 0.624568 -0.299330
C16   C     C_3   0.621078 0.409515 0.660334 -0.462235
C17   C     C_3   0.709739 0.774958 0.682121 -0.249622
C18   C     C_3   0.741106 0.738398 0.756698 -0.301018
C19   C     C_3   0.718990 0.756064 0.851540 -0.465721
C20   C     C_3   0.290250 0.225026 0.317883 -0.249617
C21   C     C_3   0.258865 0.261564 0.243298 -0.301014
C22   C     C_3   0.280964 0.243874 0.148455 -0.465719
C23   C     C_3   0.279665 0.787885 0.317772 -0.249959
C24   C     C_1   0.337071 0.837410 0.501029 -0.084460
C25   C     C_3   0.244744 0.755942 0.242377 -0.301575
C26   C     C_3   0.260154 0.781490 0.148247 -0.463048
C27   C     C_3   0.720306 0.212144 0.682233 -0.249959
C28   C     C_3   0.755224 0.244094 0.757626 -0.301573
C29   C     C_3   0.739802 0.218561 0.851761 -0.463047
C30   C     C_3   0.209760 0.274965 0.682120 -0.249613
C31   C     C_3   0.241143 0.238402 0.756681 -0.301038
C32   C     C_3   0.219056 0.256066 0.851538 -0.465732
C33   C     C_3   0.790253 0.725055 0.317886 -0.249610
C34   C     C_3   0.758868 0.761619 0.243329 -0.301037
C35   C     C_1   0.837058 0.662577 0.500080 -0.084416
C36   C     C_3   0.780974 0.743974 0.148473 -0.465738
C37   C     C_3   0.779707 0.287855 0.317775 -0.249963
C38   C     C_3   0.744811 0.255895 0.242369 -0.301554
C39   C     C_3   0.760247 0.281431 0.148242 -0.463062
C40   C     C_3   0.220316 0.712113 0.682220 -0.249963
C41   C     C_3   0.255219 0.744055 0.757634 -0.301562
C42   C     C_3   0.239800 0.718490 0.851749 -0.463060
C43   C     C_3   0.554406 0.105252 0.075370 -0.246072
C44   C     C_3   0.580158 0.150405 0.006901 -0.304856
C45   C     C_3   0.606153 0.204132 0.056635 -0.463644
C46   C     C_1   0.162942 0.337423 0.499920 -0.084417
C47   C     C_3   0.445601 0.894748 0.924630 -0.246069
C48   C     C_3   0.419839 0.849602 0.993100 -0.304852
C49   C     C_3   0.393885 0.795853 0.943374 -0.463643
C50   C     C_3   0.618630 0.004450 0.925047 -0.246638
C51   C     C_3   0.669986 0.006219 0.994224 -0.303502
C52   C     C_3   0.729828 0.011787 0.945461 -0.461796
C53   C     C_3   0.381370 0.995550 0.074946 -0.246638
C54   C     C_3   0.330018 0.993795 0.005763 -0.303499
C55   C     C_3   0.270176 0.988173 0.054513 -0.461799
C56   C     C_3   0.054427 0.605241 0.075353 -0.246065
C57   C     C_1   0.162923 0.662595 0.498970 -0.084467
C58   C     C_3   0.080335 0.650298 0.006873 -0.304857
C59   C     C_3   0.105902 0.704258 0.056529 -0.463646
C60   C     C_3   0.945569 0.394760 0.924636 -0.246062
C61   C     C_3   0.919663 0.349698 0.993107 -0.304855
C62   C     C_3   0.894045 0.295767 0.943434 -0.463641
C63   C     C_3   0.118636 0.504416 0.925073 -0.246630
C64   C     C_3   0.169981 0.506003 0.994280 -0.303488
C65   C     C_3   0.229811 0.511999 0.945601 -0.461807
C66   C     C_3   0.881368 0.495581 0.074935 -0.246625
C67   C     C_3   0.830017 0.494001 0.005737 -0.303488
C68   C     C_1   0.837075 0.337407 0.501028 -0.084466
C69   C     C_3   0.770194 0.487959 0.054425 -0.461804
C70   C     C_1   0.499737 0.000231 0.194136 0.087730
C71   C     C_1   0.500264 0.999771 0.805864 0.087729
C72   C     C_1   0.999736 0.500230 0.194137 0.087726
C73   C     C_R   0.580295 0.080271 0.499848 0.548506
C74   C     C_1   0.000264 0.499769 0.805863 0.087727
C75   C     C_3   0.556924 0.002164 0.970224 0.020746
C76   C     C_3   0.443078 0.997839 0.029776 0.020749
C77   C     C_3   0.526358 0.050452 0.029772 0.020623
C78   C     C_3   0.473645 0.949551 0.970228 0.020619
C79   C     C_3   0.056923 0.502131 0.970225 0.020753
C80   C     C_3   0.943077 0.497866 0.029774 0.020744
C81   C     C_3   0.026381 0.550435 0.029772 0.020621
C82   C     C_3   0.973618 0.449562 0.970227 0.020612
C83   C     C_3   0.731473 0.758996 0.586001 0.028419
C84   C     C_R   0.580304 0.919731 0.500125 0.548367
C85   C     C_3   0.268522 0.240998 0.414002 0.028418
C86   C     C_3   0.263501 0.765058 0.413590 0.028544
C87   C     C_3   0.736485 0.234957 0.586413 0.028545
C88   C     C_3   0.231480 0.259002 0.585992 0.028417
C89   C     C_3   0.768528 0.741008 0.414014 0.028422
C90   C     C_3   0.763521 0.265039 0.413590 0.028543
C91   C     C_3   0.236490 0.734948 0.586411 0.028539
C92   C     C_3   0.226846 0.199469 0.533874 0.027903
C93   C     C_3   0.773159 0.800536 0.466145 0.027901
C94   C     C_3   0.770904 0.202224 0.455727 0.028135
C95   C     C_R   0.419696 0.080269 0.499875 0.548368
C96   C     C_3   0.229102 0.797770 0.544301 0.028133
C97   C     C_3   0.726841 0.699468 0.533870 0.027900
C98   C     C_3   0.273156 0.300532 0.466119 0.027899
C99   C     C_3   0.270890 0.702236 0.455700 0.028133
C100  C     C_3   0.729102 0.297772 0.544276 0.028132
C101  C     C_1   0.374852 0.124953 0.499819 -0.044404
C102  C     C_1   0.625149 0.875049 0.500183 -0.044403
C103  C     C_1   0.625131 0.124960 0.499340 -0.044352
C104  C     C_1   0.374869 0.875040 0.500661 -0.044352
C105  C     C_1   0.874851 0.624952 0.499819 -0.044403
C106  C     C_R   0.919705 0.419728 0.500152 0.548507
C107  C     C_1   0.125149 0.375048 0.500181 -0.044403
C108  C     C_1   0.125127 0.624963 0.499339 -0.044353
C109  C     C_1   0.874872 0.375038 0.500661 -0.044352
C110  C     C_3   0.296393 0.267695 0.552577 -0.105778
C111  C     C_3   0.703612 0.732314 0.447416 -0.105775
C112  C     C_3   0.700834 0.270995 0.456859 -0.106073
C113  C     C_3   0.299171 0.728998 0.543117 -0.106071
C114  C     C_3   0.796389 0.767690 0.552600 -0.105780
C115  C     C_3   0.203609 0.232306 0.447417 -0.105775
C116  C     C_3   0.200821 0.771008 0.456884 -0.106067
C117  C     C_R   0.080294 0.580272 0.499848 0.548507
C118  C     C_3   0.799171 0.229001 0.543142 -0.106071
C119  C     C_3   0.291141 0.208252 0.500008 0.027017
C120  C     C_3   0.708861 0.791752 0.499999 0.027018
C121  C     C_3   0.708863 0.208240 0.499356 0.027042
C122  C     C_3   0.291136 0.791760 0.500647 0.027043
C123  C     C_3   0.791140 0.708251 0.500016 0.027018
C124  C     C_3   0.208860 0.291750 0.499986 0.027019
C125  C     C_3   0.208856 0.708247 0.499353 0.027042
C126  C     C_3   0.791142 0.291755 0.500646 0.027041
C127  C     C_3   0.530197 0.952060 0.031384 0.020593
C128  C     C_R   0.080304 0.419731 0.500125 0.548368
C129  C     C_3   0.469806 0.047944 0.968616 0.020600
C130  C     C_3   0.030170 0.452043 0.031388 0.020597
C131  C     C_3   0.969830 0.547954 0.968611 0.020597
C132  C     C_3   0.499630 0.000342 0.091164 -0.022024
C133  C     C_3   0.500372 0.999661 0.908836 -0.022024
C134  C     C_3   0.999628 0.500341 0.091165 -0.022030
C135  C     C_3   0.000372 0.499657 0.908834 -0.022030
C136  C     C_3   0.437265 0.099473 0.920420 -0.245765
C137  C     C_3   0.409487 0.144507 0.986357 -0.304883
C138  C     C_3   0.375860 0.192687 0.933361 -0.464945
C139  C     C_R   0.919696 0.580269 0.499875 0.548365
C140  C     C_3   0.562738 0.900532 0.079583 -0.245762
C141  C     C_3   0.590519 0.855497 0.013649 -0.304880
C142  C     C_3   0.624149 0.807321 0.066647 -0.464947
C143  C     C_3   0.937286 0.599481 0.920419 -0.245751
C144  C     C_3   0.909666 0.644607 0.986364 -0.304878
C145  C     C_3   0.875677 0.692559 0.933429 -0.464962
C146  C     C_3   0.062705 0.400511 0.079580 -0.245752
C147  C     C_3   0.090346 0.355398 0.013635 -0.304878
C148  C     C_3   0.124285 0.307414 0.066578 -0.464958
C149  C     C_3   0.203108 0.139038 0.566427 -0.251076
C150  C     C_1   0.337059 0.162578 0.500078 -0.084423
C151  C     C_3   0.137337 0.142245 0.593896 -0.298684
C152  C     C_3   0.112855 0.080425 0.616148 -0.462861
C153  C     C_3   0.796902 0.860970 0.433612 -0.251075
C154  C     C_3   0.862673 0.857762 0.406143 -0.298684
C155  C     C_3   0.887164 0.919586 0.383940 -0.462855
C156  C     C_3   0.792387 0.144561 0.411060 -0.251152
C157  C     C_3   0.856340 0.150089 0.375436 -0.299332
C158  C     C_3   0.878937 0.090484 0.339681 -0.462239
C159  C     C_3   0.207630 0.855425 0.589003 -0.251151
C160  C     C_3   0.143679 0.849899 0.624637 -0.299333
Cu1   Cu    Cu3+1 0.500000 0.000000 0.590220 0.960791
Cu2   Cu    Cu3+1 0.500000 0.000000 0.409780 0.960792
Cu3   Cu    Cu3+1 0.000000 0.500000 0.590220 0.960789
Cu4   Cu    Cu3+1 0.000000 0.500000 0.409780 0.960790
H1    H     H_    0.406598 0.216975 0.886701 0.149715
H2    H     H_    0.643827 0.774896 0.018244 0.138651
H3    H     H_    0.308625 0.776883 0.134805 0.148428
H4    H     H_    0.235378 0.756953 0.094502 0.137699
H5    H     H_    0.255630 0.707740 0.242854 0.159445
H6    H     H_    0.196112 0.761059 0.254260 0.157475
H7    H     H_    0.269634 0.836368 0.314773 0.140892
H8    H     H_    0.328260 0.782297 0.306712 0.137255
H9    H     H_    0.691330 0.223176 0.865190 0.148427
H10   H     H_    0.752262 0.170710 0.855719 0.147015
H11   H     H_    0.764576 0.243103 0.905503 0.137696
H12   H     H_    0.803856 0.238969 0.745756 0.157477
H13   H     H_    0.555431 0.833790 0.972141 0.160028
H14   H     H_    0.744344 0.292297 0.757130 0.159439
H15   H     H_    0.671711 0.217741 0.693278 0.137256
H16   H     H_    0.730331 0.163661 0.685250 0.140891
H17   H     H_    0.229029 0.303737 0.864943 0.149651
H18   H     H_    0.170239 0.248669 0.856746 0.147903
H19   H     H_    0.241524 0.228495 0.904556 0.136596
H20   H     H_    0.232215 0.190252 0.746764 0.159941
H21   H     H_    0.290047 0.245827 0.753035 0.157386
H22   H     H_    0.218683 0.323100 0.693500 0.140722
H23   H     H_    0.160850 0.268092 0.685886 0.137186
H24   H     H_    0.622100 0.878002 0.966579 0.160084
H25   H     H_    0.829787 0.751402 0.143278 0.147896
H26   H     H_    0.771032 0.696298 0.135061 0.149661
H27   H     H_    0.758494 0.771534 0.095453 0.136599
H28   H     H_    0.709965 0.754176 0.246955 0.157380
H29   H     H_    0.767778 0.809771 0.253262 0.159944
H30   H     H_    0.839163 0.731935 0.314125 0.137190
H31   H     H_    0.781336 0.676920 0.306496 0.140717
H32   H     H_    0.747758 0.329274 0.144269 0.146952
H33   H     H_    0.808726 0.276844 0.134850 0.148408
H34   H     H_    0.735506 0.256872 0.094483 0.137689
H35   H     H_    0.597919 0.919614 0.124160 0.138453
H36   H     H_    0.755703 0.207695 0.242871 0.159422
H37   H     H_    0.696174 0.261009 0.254216 0.157516
H38   H     H_    0.769670 0.336336 0.314752 0.140904
H39   H     H_    0.828306 0.282271 0.306748 0.137265
H40   H     H_    0.191324 0.723074 0.865167 0.148416
H41   H     H_    0.252287 0.670646 0.855679 0.146948
H42   H     H_    0.264553 0.743030 0.905515 0.137697
H43   H     H_    0.303854 0.738951 0.745766 0.157516
H44   H     H_    0.244321 0.792254 0.757168 0.159424
H45   H     H_    0.171718 0.717693 0.693263 0.137263
H46   H     H_    0.530711 0.877252 0.125324 0.137244
H47   H     H_    0.230353 0.663631 0.685214 0.140907
H48   H     H_    0.665050 0.718857 0.404599 0.092039
H49   H     H_    0.334957 0.281156 0.595387 0.092039
H50   H     H_    0.340002 0.712869 0.578264 0.092074
H51   H     H_    0.660007 0.287118 0.421693 0.092074
H52   H     H_    0.165045 0.218845 0.404607 0.092032
H53   H     H_    0.834951 0.781146 0.595418 0.092035
H54   H     H_    0.839999 0.212879 0.578307 0.092074
H55   H     H_    0.159988 0.787137 0.421740 0.092074
H56   H     H_    0.570965 0.227018 0.096710 0.149295
H57   H     H_    0.906130 0.716764 0.886224 0.149808
H58   H     H_    0.642440 0.189788 0.103556 0.150996
H59   H     H_    0.624727 0.236187 0.006031 0.134921
H60   H     H_    0.616064 0.129688 0.965989 0.160852
H61   H     H_    0.545015 0.166247 0.959410 0.160094
H62   H     H_    0.519978 0.127167 0.118102 0.137346
H63   H     H_    0.590085 0.089990 0.122627 0.136967
H64   H     H_    0.357617 0.810172 0.896399 0.151004
H65   H     H_    0.429099 0.772965 0.903358 0.149287
H66   H     H_    0.375294 0.763808 0.993979 0.134918
H67   H     H_    0.454969 0.833785 0.040634 0.160101
H68   H     H_    0.839046 0.672094 0.893209 0.149913
H69   H     H_    0.383909 0.870316 0.033964 0.160852
H70   H     H_    0.409929 0.910006 0.877359 0.136956
H71   H     H_    0.480035 0.872831 0.881912 0.137350
H72   H     H_    0.736937 0.973147 0.899470 0.148362
H73   H     H_    0.731492 0.053668 0.904639 0.145731
H74   H     H_    0.766289 0.012734 0.996844 0.137013
H75   H     H_    0.664945 0.044659 0.040827 0.160890
H76   H     H_    0.670477 0.964908 0.036043 0.159806
H77   H     H_    0.623671 0.964914 0.880313 0.135935
H78   H     H_    0.620617 0.044319 0.879839 0.137851
H79   H     H_    0.856188 0.725095 0.981836 0.138654
H80   H     H_    0.268522 0.946258 0.095254 0.145718
H81   H     H_    0.263056 0.026773 0.100578 0.148373
H82   H     H_    0.233717 0.987258 0.003125 0.137013
H83   H     H_    0.329509 0.035131 0.964000 0.159796
H84   H     H_    0.335077 0.955385 0.959107 0.160894
H85   H     H_    0.379381 0.955673 0.120140 0.137863
H86   H     H_    0.376329 0.035079 0.119695 0.135926
H87   H     H_    0.070433 0.727157 0.096000 0.149188
H88   H     H_    0.141987 0.690173 0.103998 0.151096
H89   H     H_    0.124638 0.736216 0.005921 0.134918
H90   H     H_    0.878360 0.622143 0.033915 0.160085
H91   H     H_    0.116517 0.629589 0.966525 0.160859
H92   H     H_    0.045370 0.665873 0.958868 0.160115
H93   H     H_    0.019954 0.627221 0.117920 0.137443
H94   H     H_    0.090027 0.589995 0.122764 0.136868
H95   H     H_    0.857950 0.309889 0.896006 0.151091
H96   H     H_    0.929484 0.272858 0.903919 0.149198
H97   H     H_    0.875307 0.263807 0.994036 0.134914
H98   H     H_    0.954639 0.334086 0.041065 0.160105
H99   H     H_    0.883508 0.370412 0.033504 0.160880
H100  H     H_    0.909969 0.410013 0.877232 0.136874
H101  H     H_    0.944883 0.666522 0.027355 0.160037
H102  H     H_    0.980037 0.372782 0.882059 0.137432
H103  H     H_    0.237017 0.473644 0.899087 0.148452
H104  H     H_    0.231371 0.554116 0.905347 0.145627
H105  H     H_    0.266266 0.512743 0.997003 0.137017
H106  H     H_    0.164816 0.544179 0.041361 0.160888
H107  H     H_    0.170598 0.464477 0.035590 0.159792
H108  H     H_    0.123648 0.464950 0.880185 0.135838
H109  H     H_    0.120662 0.544359 0.880020 0.137950
H110  H     H_    0.768656 0.445825 0.094636 0.145623
H111  H     H_    0.762977 0.526290 0.100980 0.148459
H112  H     H_    0.339396 0.172421 0.892550 0.150029
H113  H     H_    0.969265 0.622694 0.874519 0.137150
H114  H     H_    0.733735 0.487221 0.003031 0.137018
H115  H     H_    0.829379 0.535545 0.964471 0.159786
H116  H     H_    0.835194 0.455847 0.958618 0.160903
H117  H     H_    0.879344 0.455637 0.119983 0.137951
H118  H     H_    0.876358 0.535044 0.119830 0.135826
H119  H     H_    0.902021 0.580392 0.876003 0.138546
H120  H     H_    0.160885 0.327853 0.106899 0.149930
H121  H     H_    0.093790 0.283189 0.113692 0.149796
H122  H     H_    0.143813 0.274901 0.018172 0.138643
H123  H     H_    0.055146 0.333512 0.972574 0.160034
H124  H     H_    0.121689 0.377867 0.966148 0.160086
H125  H     H_    0.097958 0.419594 0.124024 0.138534
H126  H     H_    0.030714 0.377290 0.125450 0.137163
H127  H     H_    0.115351 0.051454 0.554833 0.144531
H128  H     H_    0.356184 0.225113 0.981766 0.138646
H129  H     H_    0.138613 0.059731 0.672960 0.149017
H130  H     H_    0.065517 0.084090 0.637395 0.138215
H131  H     H_    0.132207 0.170711 0.655226 0.159489
H132  H     H_    0.110679 0.161877 0.537139 0.158257
H133  H     H_    0.208471 0.106791 0.509491 0.140202
H134  H     H_    0.230311 0.122968 0.625031 0.135182
H135  H     H_    0.861414 0.940302 0.327138 0.149020
H136  H     H_    0.884667 0.948539 0.445277 0.144530
H137  H     H_    0.934503 0.915923 0.362701 0.138213
H138  H     H_    0.889328 0.838107 0.462884 0.158262
H139  H     H_    0.377905 0.122004 0.033427 0.160078
H140  H     H_    0.867798 0.829317 0.344789 0.159482
H141  H     H_    0.769701 0.877050 0.375013 0.135181
H142  H     H_    0.791541 0.893209 0.490560 0.140204
H143  H     H_    0.879657 0.056946 0.395798 0.147537
H144  H     H_    0.849882 0.074278 0.283451 0.147537
H145  H     H_    0.924924 0.095902 0.312937 0.138252
H146  H     H_    0.858187 0.183165 0.318853 0.159842
H147  H     H_    0.886300 0.165258 0.431285 0.158098
H148  H     H_    0.790173 0.108402 0.463249 0.139970
H149  H     H_    0.761839 0.132620 0.354236 0.135651
H150  H     H_    0.444576 0.166212 0.027867 0.160024
H151  H     H_    0.150174 0.925644 0.716745 0.147534
H152  H     H_    0.120401 0.943067 0.604429 0.147541
H153  H     H_    0.075122 0.904072 0.687232 0.138249
H154  H     H_    0.113708 0.834777 0.568772 0.158085
H155  H     H_    0.141825 0.816787 0.681169 0.159853
H156  H     H_    0.238185 0.867348 0.645828 0.135663
H157  H     H_    0.209844 0.891597 0.536835 0.139963
H158  H     H_    0.615337 0.551460 0.554766 0.144530
H159  H     H_    0.638589 0.559713 0.672902 0.149016
H160  H     H_    0.565499 0.584086 0.637330 0.138214
H161  H     H_    0.469293 0.122752 0.874679 0.137248
H162  H     H_    0.632197 0.670697 0.655217 0.159484
H163  H     H_    0.610673 0.661889 0.537124 0.158260
H164  H     H_    0.708463 0.606792 0.509470 0.140203
H165  H     H_    0.730298 0.622961 0.625016 0.135186
H166  H     H_    0.361387 0.440273 0.327037 0.149015
H167  H     H_    0.384653 0.448544 0.445163 0.144529
H168  H     H_    0.434483 0.415912 0.362594 0.138214
H169  H     H_    0.389322 0.338120 0.462847 0.158259
H170  H     H_    0.367795 0.329290 0.344759 0.159481
H171  H     H_    0.269692 0.377022 0.374947 0.135190
H172  H     H_    0.402082 0.080391 0.875845 0.138458
H173  H     H_    0.291528 0.393212 0.490487 0.140204
H174  H     H_    0.379588 0.556936 0.395577 0.147540
H175  H     H_    0.349816 0.574358 0.283260 0.147537
H176  H     H_    0.424869 0.595930 0.312774 0.138245
H177  H     H_    0.358164 0.683215 0.318830 0.159851
H178  H     H_    0.386283 0.665228 0.431228 0.158084
H179  H     H_    0.290149 0.608409 0.463174 0.139962
H180  H     H_    0.261805 0.632653 0.354181 0.135665
H181  H     H_    0.650131 0.425711 0.716573 0.147540
H182  H     H_    0.620365 0.443060 0.604226 0.147535
H183  H     H_    0.660612 0.827590 0.107458 0.150028
H184  H     H_    0.575087 0.404101 0.687071 0.138247
H185  H     H_    0.613707 0.334749 0.568715 0.158095
H186  H     H_    0.641817 0.316831 0.681144 0.159840
H187  H     H_    0.738169 0.367373 0.645770 0.135657
H188  H     H_    0.709838 0.391595 0.536758 0.139969
H189  H     H_    0.728944 0.803740 0.864937 0.149613
H190  H     H_    0.670174 0.748652 0.856721 0.147905
H191  H     H_    0.741453 0.728508 0.904580 0.136571
H192  H     H_    0.732185 0.690246 0.746779 0.159935
H193  H     H_    0.790011 0.745828 0.753085 0.157414
H194  H     H_    0.593412 0.783031 0.113308 0.149716
H195  H     H_    0.718661 0.823094 0.693503 0.140717
H196  H     H_    0.660827 0.768087 0.685867 0.137196
H197  H     H_    0.329776 0.251296 0.143243 0.147909
H198  H     H_    0.271016 0.196193 0.135096 0.149614
H199  H     H_    0.258483 0.271410 0.095408 0.136577
H200  H     H_    0.209960 0.254131 0.246937 0.157408
H201  H     H_    0.267784 0.309720 0.253184 0.159925
H202  H     H_    0.339159 0.231909 0.314120 0.137190
H203  H     H_    0.281338 0.176886 0.306524 0.140724
H204  H     H_    0.247687 0.829340 0.144309 0.147004
N1    N     N_1   0.499980 1.000000 0.274190 -0.200278
N2    N     N_1   0.500020 0.000000 0.725810 -0.200278
N3    N     N_1   0.999980 0.500000 0.274190 -0.200279
N4    N     N_1   0.000020 0.500000 0.725810 -0.200279
O1    O     O_R   0.439540 0.939530 0.576170 -0.491790
O2    O     O_R   0.560470 0.060470 0.576200 -0.492214
O3    O     O_R   0.560470 0.939530 0.576200 -0.492291
O4    O     O_R   0.439530 0.060470 0.423800 -0.492291
O5    O     O_R   0.939530 0.439530 0.423800 -0.492212
O6    O     O_R   0.060470 0.560470 0.576200 -0.492212
O7    O     O_R   0.060470 0.439530 0.576200 -0.492292
O8    O     O_R   0.939530 0.560470 0.423800 -0.492292
O9    O     O_R   0.560460 0.060470 0.423830 -0.491790
O10   O     O_R   0.560460 0.939530 0.423830 -0.491646
O11   O     O_R   0.439540 0.060470 0.576170 -0.491646
O12   O     O_R   0.939540 0.439530 0.576170 -0.491792
O13   O     O_R   0.060460 0.560470 0.423830 -0.491792
O14   O     O_R   0.060460 0.439530 0.423830 -0.491645
O15   O     O_R   0.939540 0.560470 0.576170 -0.491644
O16   O     O_R   0.439530 0.939530 0.423800 -0.492212

loop_
_geom_bond_atom_site_label_1
_geom_bond_atom_site_label_2
_ccdc_geom_bond_type
C157  C158  S    
C130  C146  S    
C36   H27   S    
C144  H101  S    
C81   C134  S    
C4    H165  S    
C138  H1    S    
C151  H131  S    
C45   H58   S    
C6    H159  S    
C7    H173  S    
C92   C119  S    
C16   H184  S    
C5    C6    S    
C145  H57   S    
C143  C144  S    
C26   H204  S    
C143  H113  S    
C145  H79   S    
C112  H51   S    
C136  H172  S    
C73   O2    A    
C91   C96   S    
C113  C122  S    
C128  O14   A    
C21   H201  S    
C58   H92   S    
C93   C120  S    
C95   O4    A    
C13   C103  T    
C22   H197  S    
C44   H61   S    
C139  O8    A    
C156  H148  S    
C148  H122  S    
C21   C22   S    
C83   C114  S    
C46   C124  S    
Cu1   N2    S    
C130  C134  S    
C29   H11   S    
C73   O9    A    
C78   C127  S    
C47   H71   S    
C142  H194  S    
C21   H200  S    
C55   H80   S    
C12   H174  S    
C51   C52   S    
C95   O11   A    
C56   C81   S    
C140  C141  S    
C87   C118  S    
C144  C145  S    
C79   C130  S    
C40   H45   S    
C41   H43   S    
C43   C44   S    
C37   C38   S    
C1    O16   A    
C20   C85   S    
C90   C126  S    
C77   C129  S    
Cu4   O13   S    
C49   H64   S    
C86   C99   S    
C154  C155  S    
C64   H106  S    
C129  C133  S    
C39   H34   S    
C33   H30   S    
Cu2   O4    S    
C20   H202  S    
C106  O12   A    
C131  C143  S    
C52   H72   S    
C146  C147  S    
C67   C69   S    
C91   C125  S    
C4    C5    S    
C14   C100  S    
C143  H119  S    
C30   H23   S    
C34   H28   S    
C8    H170  S    
C30   C31   S    
C18   H192  S    
C14   H188  S    
C19   H190  S    
C93   C114  S    
C3    H153  S    
C10   C99   S    
C10   H179  S    
C73   C103  S    
C23   H7    S    
C20   C21   S    
C92   C149  S    
C159  H157  S    
C158  H144  S    
C96   C116  S    
C17   C83   S    
C65   H104  S    
C149  H134  S    
C71   N2    T    
C139  O15   A    
C18   H193  S    
C59   H89   S    
C84   C102  S    
C42   H40   S    
C147  C148  S    
C88   C124  S    
C112  C121  S    
Cu3   O7    S    
Cu4   O5    S    
C160  H154  S    
C7    C8    S    
C53   C54   S    
C98   C124  S    
C40   H47   S    
C37   C90   S    
Cu2   O9    S    
C100  C126  S    
C76   C78   S    
C149  C151  S    
C57   C125  S    
C38   C39   S    
C81   C131  S    
C2    C102  T    
C4    H164  S    
C42   H41   S    
C66   H118  S    
C49   H66   S    
C85   C119  S    
C111  H48   S    
C63   H109  S    
C15   H185  S    
C37   H38   S    
C137  H139  S    
C51   H76   S    
C48   H69   S    
C52   H74   S    
C147  H123  S    
C66   C67   S    
C17   H195  S    
C5    H163  S    
C4    C97   S    
C31   H21   S    
C113  H50   S    
C62   H97   S    
C78   C133  S    
C69   H111  S    
C26   H3    S    
C157  H146  S    
C32   H17   S    
Cu1   O11   S    
C61   H99   S    
C80   C82   S    
C2    C120  S    
C153  H142  S    
C9    H167  S    
C25   C26   S    
C144  H90   S    
C93   C153  S    
C23   C86   S    
C3    H151  S    
C118  H54   S    
C35   C105  T    
C33   C89   S    
C142  H2    S    
C13   C121  S    
C31   C32   S    
C1    C104  S    
C155  H137  S    
C70   C132  S    
C17   C18   S    
Cu1   O2    S    
C27   C87   S    
C75   C77   S    
C114  C123  S    
C54   H84   S    
C116  C125  S    
C59   H87   S    
C127  C140  S    
C11   H178  S    
C67   H115  S    
C87   C100  S    
C54   C55   S    
C108  C117  S    
C60   H102  S    
C136  C137  S    
C110  C119  S    
C66   C80   S    
C6    H160  S    
C152  H129  S    
Cu3   N4    S    
C97   C123  S    
C94   C118  S    
C149  H133  S    
C69   H114  S    
C56   C58   S    
C34   C36   S    
C53   H86   S    
C40   C91   S    
C89   C93   S    
C61   C62   S    
C10   C11   S    
C63   C64   S    
C96   C159  S    
C12   H175  S    
C45   H56   S    
C19   H191  S    
C14   C15   S    
C47   C78   S    
C22   H198  S    
C62   H95   S    
C95   C101  S    
C106  C109  S    
C25   H6    S    
C98   C110  S    
C68   C126  S    
C31   H20   S    
C41   C42   S    
C60   H100  S    
C32   H19   S    
C56   H93   S    
C29   H10   S    
C50   H77   S    
C74   N4    T    
Cu1   Cu2   S    
C136  H161  S    
C140  H46   S    
C141  H13   S    
C28   C29   S    
C27   H15   S    
Cu3   O12   S    
C97   C111  S    
C146  H125  S    
C142  H183  S    
C128  O7    A    
C155  H135  S    
C101  C150  T    
C86   C116  S    
C80   C134  S    
C18   C19   S    
C82   C135  S    
C138  H128  S    
C48   H67   S    
C55   H82   S    
C86   C122  S    
C151  C152  S    
C44   H60   S    
Cu4   O14   S    
C157  H147  S    
C43   H62   S    
C88   C110  S    
C119  C150  S    
C39   H33   S    
C80   C131  S    
C156  H149  S    
Cu2   N1    S    
C84   O3    A    
C106  O5    A    
C90   C94   S    
Cu2   O16   S    
C151  H132  S    
C45   H59   S    
C85   C115  S    
C137  H150  S    
C87   C121  S    
C28   H12   S    
C1    O1    A    
C58   C59   S    
C60   C61   S    
C83   C120  S    
C66   H117  S    
Cu3   O15   S    
C105  C139  S    
C72   C134  S    
C159  C160  S    
C6    H158  S    
C74   C135  S    
C24   C122  S    
C50   C51   S    
C19   H189  S    
C58   H91   S    
C141  H24   S    
C27   H16   S    
C10   H180  S    
C34   H29   S    
C48   C49   S    
C100  C112  S    
C148  H121  S    
C158  H145  S    
C36   H26   S    
C53   C76   S    
C30   C88   S    
C65   H103  S    
C44   C45   S    
C12   H176  S    
C115  C124  S    
C99   C113  S    
C75   C133  S    
C79   C135  S    
C39   H32   S    
C96   C122  S    
Cu2   O10   S    
C64   C65   S    
C41   H44   S    
C50   C75   S    
C155  H136  S    
C35   C123  S    
C115  H52   S    
C42   H42   S    
C68   C109  T    
C70   N1    T    
C49   H65   S    
C92   C115  S    
C94   C121  S    
C16   H181  S    
C33   H31   S    
C94   C156  S    
C83   C97   S    
C51   H75   S    
C117  O6    A    
C5    H162  S    
C7    C98   S    
C20   H203  S    
C76   C132  S    
Cu3   Cu4   S    
C90   C112  S    
C99   C125  S    
C63   C79   S    
C69   H110  S    
C26   H4    S    
C30   H22   S    
C32   H18   S    
C156  C157  S    
C140  H35   S    
C107  C128  S    
C131  C135  S    
C8    H169  S    
C153  H141  S    
C9    H166  S    
C154  H138  S    
C15   C16   S    
C14   H187  S    
C7    H171  S    
C127  C132  S    
C85   C98   S    
Cu4   N3    S    
C60   C82   S    
C23   H8    S    
C88   C92   S    
C8    C9    S    
C38   H37   S    
C158  H143  S    
Cu1   O1    S    
C154  H140  S    
C82   C130  S    
C65   H105  S    
C75   C127  S    
C47   H70   S    
C84   O10   A    
C11   H177  S    
Cu4   O8    S    
C43   H63   S    
C36   H25   S    
C110  H49   S    
C79   C81   S    
C89   C123  S    
C54   H83   S    
C91   C113  S    
C138  H112  S    
C111  C120  S    
C24   C104  T    
C77   C132  S    
C152  H130  S    
C63   H108  S    
C16   H182  S    
C64   H107  S    
C129  C136  S    
C76   C129  S    
C47   C48   S    
C46   C107  T    
C57   C108  T    
C15   H186  S    
C33   C34   S    
C37   H39   S    
C53   H85   S    
C116  H55   S    
C72   N3    T    
C52   H73   S    
C147  H124  S    
C40   C41   S    
C17   H196  S    
C3    C160  S    
C152  H127  S    
C114  H53   S    
C22   H199  S    
C62   H96   S    
C59   H88   S    
C25   H5    S    
C148  H120  S    
C145  H68   S    
C56   H94   S    
C29   H9    S    
C50   H78   S    
C71   C133  S    
C11   C12   S    
C9    H168  S    
C43   C77   S    
C137  C138  S    
C89   C111  S    
C3    H152  S    
C67   H116  S    
C141  C142  S    
C146  H126  S    
C117  O13   A    
Cu1   O3    S    
C38   H36   S    
C23   C25   S    
C55   H81   S    
C27   C28   S    
C118  C126  S    
C153  C154  S    
C28   H14   S    
C159  H156  S    
Cu3   O6    S    
C61   H98   S    
C160  H155  S    
