data_mof_unit_50749.cif
_audit_creation_date              2012-12-10T19:15:17-0500
_audit_creation_method            fapswitch 2.2
_symmetry_space_group_name_H-M    P1
_symmetry_Int_Tables_number       1
_space_group_crystal_system       triclinic
_cell_length_a                    10.663771
_cell_length_b                    9.673484
_cell_length_c                    23.416166
_cell_angle_alpha                 90.231219
_cell_angle_beta                  89.152595
_cell_angle_gamma                 90.195218
_cell_volume                      2415.21637419

loop_
_atom_site_label
_atom_site_type_symbol
_atom_type_description
_atom_site_fract_x
_atom_site_fract_y
_atom_site_fract_z
_atom_type_partial_charge
C1    C     C_R   0.257867 0.499653 0.501977 0.864777
C2    C     C_R   0.258840 0.538752 0.970866 -0.162605
C3    C     C_R   0.257306 0.538647 0.030257 -0.176576
C4    C     C_R   0.367970 0.514435 0.060308 0.012545
C5    C     C_R   0.481324 0.488669 0.030332 -0.082076
C6    C     C_R   0.593485 0.464868 0.060220 -0.131012
C7    C     C_R   0.706096 0.438082 0.029397 0.487271
C8    C     C_R   0.705837 0.439265 0.969715 -0.272087
C9    C     C_R   0.368375 0.515777 0.119864 0.495781
C10   C     C_R   0.588525 0.468638 0.120135 0.523899
C11   C     C_R   0.474360 0.621353 0.237901 -0.098782
C12   C     C_R   0.495585 0.499696 0.389297 0.867701
C13   C     C_R   0.480272 0.623244 0.297089 -0.238326
C14   C     C_R   0.487511 0.498445 0.327226 -0.046653
C15   C     C_R   0.487189 0.371957 0.297605 -0.224830
C16   C     C_R   0.481555 0.370507 0.238489 -0.115291
C17   C     C_R   0.475775 0.495077 0.208757 0.325597
C18   C     C_R   0.420089 0.402742 0.759749 -0.099434
C19   C     C_R   0.427245 0.405047 0.700673 -0.273001
C20   C     C_R   0.505777 0.500419 0.672604 -0.086127
C21   C     C_R   0.580972 0.593308 0.704476 0.143696
C22   C     C_R   0.567006 0.594135 0.763910 -0.107724
C23   C     C_R   0.742824 0.499971 0.495515 0.850830
C24   C     C_R   0.489229 0.497819 0.791394 0.261727
C25   C     C_3   0.067796 0.593399 0.547104 -0.423855
C26   C     C_3   0.070622 0.350006 0.507148 -0.419177
C27   C     C_3   0.924727 0.593122 0.543596 -0.429385
C28   C     C_3   0.928044 0.351624 0.508008 -0.441928
C29   C     C_3   0.085018 0.557276 0.440814 -0.409054
C30   C     C_3   0.122377 0.499350 0.499547 0.130809
C31   C     C_3   0.880353 0.499675 0.493256 0.155921
C32   C     C_3   0.939897 0.547197 0.432521 0.344165
C33   C     C_3   0.392080 0.080738 0.466716 -0.233554
C34   C     C_3   0.392030 0.917873 0.466735 -0.232049
C35   C     C_3   0.615703 0.081441 0.471817 -0.241131
C36   C     C_3   0.615597 0.918735 0.471821 -0.240881
C37   C     C_3   0.491302 0.081808 0.557575 -0.224306
C38   C     C_3   0.491406 0.919259 0.557573 -0.229835
C39   C     C_R   0.504623 0.500347 0.610550 0.881211
C40   C     C_R   0.594134 0.463852 0.880450 0.532400
C41   C     C_R   0.375301 0.517039 0.880827 0.500672
C42   C     C_R   0.371004 0.514252 0.940499 0.001986
C43   C     C_R   0.482383 0.488127 0.970280 -0.023104
C44   C     C_R   0.594952 0.463060 0.940051 -0.079117
H1    H     H_    0.172099 0.558640 0.948895 0.195873
H2    H     H_    0.370531 0.332625 0.676721 0.154734
H3    H     H_    0.619950 0.666791 0.789432 0.149505
H4    H     H_    0.103149 0.701257 0.542550 0.177278
H5    H     H_    0.104472 0.282240 0.471645 0.172915
H6    H     H_    0.096828 0.555498 0.589750 0.171222
H7    H     H_    0.104196 0.304845 0.547832 0.176873
H8    H     H_    0.885688 0.552507 0.584585 0.173108
H9    H     H_    0.893803 0.320656 0.551328 0.183394
H10   H     H_    0.888257 0.699796 0.540962 0.183332
H11   H     H_    0.891824 0.271476 0.478355 0.179217
H12   H     H_    0.121148 0.664204 0.437282 0.188121
H13   H     H_    0.138431 0.500739 0.406760 0.128675
H14   H     H_    0.395012 0.119086 0.421994 0.145127
H15   H     H_    0.394861 0.878652 0.422016 0.145032
H16   H     H_    0.169379 0.558530 0.052500 0.200996
H17   H     H_    0.302478 0.118324 0.485923 0.144486
H18   H     H_    0.302371 0.880055 0.485944 0.146226
H19   H     H_    0.625503 0.119813 0.427258 0.142109
H20   H     H_    0.625086 0.879632 0.427244 0.146498
H21   H     H_    0.571427 0.120544 0.583063 0.153335
H22   H     H_    0.571696 0.881889 0.582968 0.141912
H23   H     H_    0.404578 0.120174 0.579272 0.142684
H24   H     H_    0.404865 0.880444 0.579345 0.150229
H25   H     H_    0.699301 0.119311 0.495034 0.147245
H26   H     H_    0.698990 0.881592 0.495116 0.161920
H27   H     H_    0.793617 0.423077 0.946809 0.202871
H28   H     H_    0.470598 0.717630 0.214561 0.132870
H29   H     H_    0.480109 0.721940 0.319105 0.150089
H30   H     H_    0.492645 0.274400 0.319963 0.152178
H31   H     H_    0.483163 0.272981 0.215620 0.128774
H32   H     H_    0.360846 0.327120 0.781020 0.155028
N1    N     N_R   0.485808 0.492340 0.852259 -0.351485
N2    N     N_R   0.477401 0.493322 0.148068 -0.365179
N3    N     N_3   0.499750 0.138610 0.498760 -0.032374
N4    N     N_3   0.499750 0.861390 0.498760 -0.033511
O1    O     O_R   0.314910 0.616040 0.499990 -0.634389
O2    O     O_R   0.314910 0.383960 0.499990 -0.634425
O3    O     O_R   0.500080 0.616070 0.416130 -0.631393
O4    O     O_R   0.500080 0.383930 0.416130 -0.628995
O5    O     O_R   0.685320 0.616040 0.499970 -0.638935
O6    O     O_R   0.685320 0.383960 0.499970 -0.636778
O7    O     O_R   0.500150 0.616010 0.583820 -0.632883
O8    O     O_R   0.500150 0.383990 0.583820 -0.622269
O9    O     O_2   0.700542 0.435678 0.850723 -0.564092
O10   O     O_2   0.270586 0.545947 0.851532 -0.563286
O11   O     O_2   0.260963 0.538900 0.149563 -0.560220
O12   O     O_2   0.693209 0.448451 0.150656 -0.510343
Zn1   Zn    Zn3+2 0.500150 0.654960 0.499970 0.897284
Zn2   Zn    Zn3+2 0.500150 0.345040 0.499970 0.899658
C45   C     C_3   0.679907 0.687683 0.677908 -0.463806
C46   C     C_3   0.811292 0.652668 0.698693 -0.834842
H33   H     H_    0.820003 0.674434 0.745035 0.278342
H34   H     H_    0.832300 0.541891 0.690460 0.264541
H35   H     H_    0.881796 0.716769 0.675436 0.241066
H36   H     H_    0.684064 0.680289 0.630830 0.224629
H37   H     H_    0.657811 0.796747 0.689095 0.206813
C47   C     C_3   0.885788 0.687644 0.408384 -0.353912
C48   C     C_3   0.939873 0.826207 0.429433 -0.961097
H38   H     H_    0.961127 0.827629 0.475253 0.260006
H39   H     H_    0.026908 0.852562 0.405149 0.253245
H40   H     H_    0.872059 0.910225 0.420983 0.245451
H41   H     H_    0.900228 0.690132 0.361255 0.214865
H42   H     H_    0.782807 0.690649 0.413796 0.211761
C49   C     C_3   0.922807 0.434873 0.383881 -0.477367
C50   C     C_3   0.789252 0.402721 0.365744 -0.881565
H43   H     H_    0.739253 0.342079 0.398791 0.270926
H44   H     H_    0.738529 0.498867 0.355778 0.253480
H45   H     H_    0.791999 0.338299 0.326382 0.265706
H46   H     H_    0.973388 0.470843 0.344698 0.224561
H47   H     H_    0.969161 0.335992 0.394389 0.212029
O13   O     O_3   0.818820 0.422101 0.057096 -0.561211
C51   C     C_3   0.852507 0.281053 0.055767 0.113838
H48   H     H_    0.871114 0.245289 0.011190 0.125856
H49   H     H_    0.777362 0.215694 0.075524 0.145391
C52   C     C_3   0.971749 0.261790 0.089630 -0.722333
H50   H     H_    0.956308 0.296090 0.134514 0.279503
H51   H     H_    0.998663 0.150975 0.089387 0.194773
H52   H     H_    0.049365 0.323308 0.070228 0.250021

loop_
_geom_bond_atom_site_label_1
_geom_bond_atom_site_label_2
_ccdc_geom_bond_type
C33   H14   S    
O2    Zn2   S    
C16   H31   S    
C41   C42   A    
C19   C20   A    
C39   O7    A    
C9    O11   S    
C10   N2    A    
C19   H2    S    
C7    C8    A    
C52   H50   S    
C37   N3    S    
C37   C38   S    
C18   C24   A    
C29   C32   S    
C51   H49   S    
C41   N1    A    
C5    C6    A    
C38   H24   S    
C1    O1    A    
C15   C16   A    
O3    Zn1   S    
C46   H35   S    
O7    Zn1   S    
C34   H18   S    
O13   C51   S    
C12   O4    A    
C18   C19   A    
C50   H43   S    
C17   N2    S    
O6    Zn2   S    
C34   N4    S    
C25   H6    S    
O5    Zn1   S    
N4    Zn1   S    
C38   H22   S    
C52   H51   S    
C16   C17   A    
C23   O6    A    
C37   H21   S    
C47   H42   S    
C40   O9    S    
C52   H52   S    
C3    H16   S    
C22   H3    S    
C5    C43   A    
C10   O12   S    
C13   C14   A    
C39   O8    A    
C28   H11   S    
C36   H26   S    
C2    H1    S    
O8    Zn2   S    
C27   H10   S    
C32   C49   S    
C27   C31   S    
N3    Zn2   S    
C36   N4    S    
C51   C52   S    
C20   C39   S    
C45   H36   S    
C33   N3    S    
C21   C45   S    
C1    O2    A    
C12   O3    A    
C46   H34   S    
C35   C36   S    
C23   C31   S    
C7    O13   S    
C43   C44   A    
C29   C30   S    
O1    Zn1   S    
C31   C32   S    
C50   H45   S    
C46   H33   S    
C14   C15   A    
C33   C34   S    
C47   H41   S    
C48   H39   S    
O4    Zn2   S    
C25   H4    S    
C49   H46   S    
C13   H29   S    
C26   C30   S    
C34   H15   S    
C22   C24   A    
C26   H5    S    
C26   H7    S    
C42   C43   A    
C3    C4    A    
C48   H38   S    
C27   H8    S    
C25   C30   S    
C11   C17   A    
C8    H27   S    
C18   H32   S    
C11   H28   S    
C28   C31   S    
C8    C44   A    
C29   H13   S    
C4    C5    A    
C6    C10   A    
C28   H9    S    
C6    C7    A    
C29   H12   S    
C25   C27   S    
C26   C28   S    
C2    C3    A    
C12   C14   S    
C36   H20   S    
C51   H48   S    
C11   C13   A    
C38   N4    S    
C2    C42   A    
C37   H23   S    
C35   N3    S    
C1    C30   S    
C41   O10   S    
C48   H40   S    
C32   C47   S    
C9    N2    A    
C47   C48   S    
C50   H44   S    
C49   H47   S    
C24   N1    S    
C40   C44   A    
C15   H30   S    
C20   C21   A    
C35   H25   S    
C33   H17   S    
C23   O5    A    
C49   C50   S    
C45   C46   S    
C40   N1    A    
C35   H19   S    
C4    C9    A    
C21   C22   A    
C45   H37   S    
