data_mof_unit_35975.cif
_audit_creation_date              2013-03-05T16:18:53-0500
_audit_creation_method            fapswitch 2.2
_symmetry_space_group_name_H-M    P1
_symmetry_Int_Tables_number       1
_space_group_crystal_system       triclinic
_cell_length_a                    8.433822
_cell_length_b                    18.907593
_cell_length_c                    22.874292
_cell_angle_alpha                 101.001807
_cell_angle_beta                  89.766146
_cell_angle_gamma                 92.081268
_cell_volume                      3578.19355415

loop_
_atom_site_label
_atom_site_type_symbol
_atom_site_description
_atom_site_fract_x
_atom_site_fract_y
_atom_site_fract_z
_atom_type_partial_charge
P1    P     P_3+3 0.935930 0.665430 0.555670 0.478585
O1    O     O_2   0.110690 0.676100 0.539200 -0.377388
O2    O     O_3   0.863220 0.586720 0.534720 -0.379322
O3    O     O_3   0.368310 0.629070 0.432760 -0.375331
O4    O     O_2   0.261527 0.755654 0.483678 -0.405707
O5    O     O_3   0.932121 0.686621 0.633454 -0.566322
O6    O     O_3   0.334541 0.744927 0.373147 -0.583819
H1    H     H_    0.508890 0.672308 0.337386 -0.066745
C1    C     C_3   0.355591 0.691683 0.269705 -0.944561
H2    H     H_    0.297057 0.638438 0.270800 0.253785
H3    H     H_    0.263526 0.729600 0.262313 0.256384
P2    P     P_3+3 0.382700 0.439650 0.365620 0.456728
P3    P     P_3+3 0.940807 0.589056 0.325212 0.517370
O7    O     O_2   0.210480 0.460990 0.358130 -0.292729
O8    O     O_3   0.959520 0.592090 0.401630 -0.358951
O9    O     O_2   0.073579 0.540972 0.294514 -0.357819
O10   O     O_3   0.353057 0.346536 0.356088 -0.543870
O11   O     O_3   0.988977 0.674880 0.310872 -0.527667
C2    C     C_3   0.929994 0.726393 0.357715 0.470235
H4    H     H_    0.998211 0.726831 0.399284 0.133852
H5    H     H_    0.802041 0.715388 0.365578 0.041625
C3    C     C_3   0.948764 0.800796 0.341865 -0.898381
H6    H     H_    0.898302 0.841696 0.377725 0.219809
H7    H     H_    0.076270 0.814864 0.336585 0.250046
C4    C     C_3   0.908035 0.315283 0.317018 1.279304
C5    C     C_3   0.843669 0.256632 0.263982 -1.089745
H8    H     H_    0.716118 0.244954 0.267329 0.241002
H9    H     H_    0.860132 0.272616 0.220043 0.258544
H10   H     H_    0.904624 0.205368 0.263356 0.254145
Ba1   Ba    Ba6+2 0.157800 0.534120 0.474430 1.612956
C6    C     C_3   0.017184 0.636652 0.657005 0.359464
H11   H     H_    0.142656 0.639717 0.643505 0.048477
H12   H     H_    0.966498 0.581209 0.641405 0.076643
C7    C     C_3   0.007910 0.655918 0.724779 0.111457
H13   H     H_    0.035803 0.714700 0.739255 0.166217
H14   H     H_    0.099090 0.625913 0.744008 0.045166
C8    C     C_3   0.490951 0.311629 0.337404 0.353608
H15   H     H_    0.591696 0.337011 0.364956 0.147431
H16   H     H_    0.511774 0.314085 0.289907 0.094655
C9    C     C_3   0.466635 0.233446 0.344759 -0.965969
H17   H     H_    0.430009 0.231536 0.391166 0.239532
H18   H     H_    0.576836 0.203306 0.335477 0.231027
H19   H     H_    0.372184 0.206275 0.313855 0.263470
P4    P     P_3+3 0.874370 0.334570 0.444280 0.541412
O12   O     O_2   0.699610 0.323860 0.460780 -0.383235
O13   O     O_3   0.947090 0.413280 0.465240 -0.323753
O14   O     O_3   0.442000 0.370930 0.567190 -0.394015
O15   O     O_3   0.851992 0.290397 0.368199 -0.670644
P5    P     P_3+3 0.865870 0.420368 0.676784 0.486746
O16   O     O_3   0.359410 0.538600 0.570730 -0.435719
O17   O     O_3   0.850780 0.407910 0.598320 -0.363786
O18   O     O_2   0.712307 0.456904 0.701486 -0.421707
O19   O     O_3   0.847454 0.337599 0.702179 -0.575620
Ba2   Ba    Ba6+2 0.652390 0.465870 0.525520 1.611574
P6    P     P_3+3 0.391354 0.722572 0.440602 0.424209
C10   C     C_3   0.444931 0.719569 0.328204 1.110326
H20   H     H_    0.439358 0.685665 0.232104 0.265790
O20   O     O_3   0.450900 0.461390 0.429220 -0.446948
C11   C     C_3   0.483422 0.687845 0.621771 0.283321
H21   H     H_    0.588452 0.661428 0.598921 0.068304
H22   H     H_    0.385072 0.684373 0.589153 0.105543
C12   C     C_3   0.529375 0.767249 0.644740 -0.105091
H23   H     H_    0.648436 0.771099 0.666092 0.157402
H24   H     H_    0.537205 0.796126 0.606775 0.039496
P7    P     P_3+3 0.421907 0.562019 0.645480 0.464915
O21   O     O_2   0.599830 0.538970 0.641850 -0.309715
O22   O     O_3   0.434710 0.655544 0.669664 -0.532205
H25   H     H_    0.885408 0.801707 0.299573 0.281178
C13   C     C_3   0.887582 0.278577 0.657401 0.825971
H26   H     H_    0.847204 0.284486 0.612455 0.017633
C14   C     C_3   0.806394 0.208959 0.669556 -0.976989
H27   H     H_    0.677619 0.208473 0.661331 0.251620
H28   H     H_    0.852761 0.161510 0.638762 0.244272
H29   H     H_    0.827426 0.203095 0.716275 0.285094
P8    P     P_3+3 0.414381 0.277054 0.564198 0.484058
C15   C     C_3   0.474616 0.323090 0.675616 0.536092
H30   H     H_    0.400262 0.369302 0.673095 0.125118
O23   O     O_2   0.559971 0.240546 0.531936 -0.443720
O24   O     O_3   0.424675 0.259706 0.636714 -0.504067
H31   H     H_    0.594125 0.337381 0.663001 0.121416
H32   H     H_    0.346870 0.299280 0.752278 0.309184
C16   C     C_3   0.470498 0.311792 0.739739 -0.837223
H33   H     H_    0.514421 0.361747 0.769910 0.219447
H34   H     H_    0.545844 0.266832 0.745579 0.253581
C17   C     C_R   0.994543 0.951490 0.525815 0.008216
C18   C     C_R   0.085083 0.904855 0.552343 0.105637
C19   C     C_R   0.236114 0.928486 0.575298 -0.126196
C20   C     C_R   0.295974 0.997765 0.572575 -0.181947
C21   C     C_R   0.205045 0.045429 0.547755 0.105884
C22   C     C_R   0.053639 0.022451 0.524252 0.010600
C23   C     C_R   0.262834 0.115810 0.546981 -0.091053
C24   C     C_R   0.169776 0.165397 0.524732 -0.101901
C25   C     C_R   0.017797 0.142357 0.499989 -0.025009
C26   C     C_R   0.961402 0.070311 0.499468 0.010902
C27   C     C_R   0.221111 0.238188 0.528757 0.157710
C28   C     C_R   0.116850 0.286582 0.510922 0.208821
C29   C     C_R   0.972668 0.265200 0.481920 0.139112
C30   C     C_R   0.922090 0.190932 0.475841 -0.112254
C31   C     C_R   0.844605 0.927515 0.501550 -0.019703
C32   C     C_R   0.788219 0.855437 0.500986 -0.008043
C33   C     C_R   0.881614 0.807460 0.526341 -0.079864
C34   C     C_R   0.024961 0.835081 0.554916 -0.101134
H35   H     H_    0.309156 0.893066 0.594753 0.166246
H36   H     H_    0.413249 0.014295 0.590406 0.146867
H37   H     H_    0.379623 0.131757 0.565230 0.172896
H38   H     H_    0.093808 0.802318 0.578198 0.204026
C35   C     C_R   0.777612 0.163623 0.448094 -0.090437
C36   C     C_R   0.719275 0.093341 0.449691 0.110190
C37   C     C_R   0.811100 0.046416 0.475436 0.009827
C38   C     C_R   0.752430 0.975344 0.476775 0.015518
C39   C     C_R   0.568147 0.069636 0.426863 -0.188458
C40   C     C_R   0.508999 0.000169 0.429279 -0.215396
C41   C     C_R   0.600800 0.952395 0.453603 0.119327
C42   C     C_R   0.637979 0.831897 0.475400 0.009281
C43   C     C_R   0.543612 0.881914 0.454259 -0.209940
C44   C     C_R   0.587465 0.758853 0.471146 0.176074
C45   C     C_R   0.685194 0.710882 0.492445 -0.552959
C46   C     C_R   0.829126 0.733618 0.521497 0.244415
H39   H     H_    0.705496 0.197184 0.426909 0.177895
H40   H     H_    0.494636 0.105104 0.407637 0.133524
H41   H     H_    0.391650 0.983561 0.411561 0.131304
H42   H     H_    0.425677 0.866464 0.437171 0.174826
H43   H     H_    0.644675 0.655235 0.488738 0.181083
H44   H     H_    0.322207 0.326834 0.042454 0.172263
H45   H     H_    0.238108 0.322676 0.940624 0.177875
C47   C     C_R   0.635664 0.527787 0.335972 -0.307733
C48   C     C_R   0.389312 0.561076 0.946751 -0.226288
C49   C     C_R   0.343529 0.556019 0.886342 0.550508
O25   O     O_2   0.361594 0.608235 0.862465 -0.536779
N1    N     N_R   0.278551 0.492323 0.853731 -0.171994
C50   C     C_R   0.258316 0.432034 0.879439 0.521652
O26   O     O_2   0.201061 0.376116 0.850226 -0.574950
C51   C     C_R   0.305447 0.434246 0.938927 -0.027957
C52   C     C_R   0.371861 0.498834 0.972610 -0.034035
C53   C     C_R   0.455223 0.625599 0.981996 0.376465
C54   C     C_R   0.506474 0.626041 0.040163 -0.204543
C55   C     C_R   0.489661 0.564548 0.066005 -0.085947
C56   C     C_R   0.421408 0.500900 0.032411 -0.013900
C57   C     C_R   0.288682 0.372972 0.965356 -0.111688
C58   C     C_R   0.337332 0.375314 0.024001 -0.116991
C59   C     C_R   0.404137 0.439056 0.058282 -0.046084
C60   C     C_R   0.454278 0.442188 0.117782 0.535369
N2    N     N_R   0.516763 0.506011 0.151526 -0.167193
C61   C     C_R   0.538083 0.566199 0.125249 0.535479
C62   C     C_2   0.081867 0.472811 0.773069 -0.137468
C63   C     C_3   0.033414 0.481660 0.711052 0.218846
C64   C     C_1   0.308806 0.512532 0.693596 0.193398
C65   C     C_2   0.353234 0.509680 0.748495 -0.193812
C66   C     C_2   0.233727 0.489350 0.791864 0.104147
C67   C     C_R   0.706459 0.543092 0.236354 -0.142466
C68   C     C_R   0.743432 0.552597 0.297007 0.241020
C69   C     C_R   0.499666 0.486746 0.314108 0.238772
C70   C     C_R   0.457689 0.481468 0.253801 -0.219329
C71   C     C_R   0.560049 0.510270 0.214072 0.155602
O27   O     O_2   0.444594 0.387656 0.139107 -0.596034
O28   O     O_2   0.598880 0.621797 0.153495 -0.611428
C72   C     C_2   0.174712 0.481566 0.670587 -0.395497
H46   H     H_    0.556439 0.675989 0.065792 0.206406
H47   H     H_    0.792866 0.560531 0.206480 0.165613
H48   H     H_    0.475225 0.522808 0.762532 0.179499
H49   H     H_    0.991373 0.461143 0.804113 0.149797
H50   H     H_    0.345687 0.455541 0.237937 0.151986
H51   H     H_    0.665192 0.534915 0.382773 0.167996
H52   H     H_    0.160747 0.463467 0.622874 0.210084
O29   O     O_3   0.853699 0.638107 0.742990 -0.583170
C73   C     C_3   0.847154 0.650731 0.805681 0.012001
H53   H     H_    0.874040 0.708459 0.825122 0.154651
H54   H     H_    0.928979 0.615591 0.824118 0.095212
H55   H     H_    0.724908 0.637294 0.819193 0.178304
O30   O     O_3   0.561890 0.774062 0.323142 -0.665758
C74   C     C_3   0.497130 0.834576 0.305236 -0.233423
H56   H     H_    0.385573 0.851762 0.328939 0.145410
H57   H     H_    0.477023 0.823619 0.256345 0.172089
H58   H     H_    0.584644 0.880479 0.315546 0.176330
N3    N     N_R   0.413497 0.801394 0.687677 0.286450
O31   O     O_R   0.265474 0.802991 0.672460 -0.423914
O32   O     O_R   0.457455 0.829667 0.741786 -0.308256
N4    N     N_R   0.058508 0.272654 0.657138 0.217501
O33   O     O_R   0.143875 0.326631 0.646068 -0.457488
O34   O     O_R   0.126794 0.219390 0.674371 -0.379810
O35   O     O_3   0.154503 0.358167 0.524529 -0.637554
C75   C     C_3   0.253225 0.373890 0.479372 0.162028
H59   H     H_    0.187961 0.374853 0.438377 0.157564
H60   H     H_    0.351549 0.336318 0.466752 0.084753
H61   H     H_    0.304195 0.426915 0.498446 0.228313
N5    N     N_R   0.467691 0.692096 0.960607 0.264577
O36   O     O_R   0.602918 0.728039 0.964064 -0.372966
O37   O     O_R   0.339306 0.723956 0.950373 -0.311961
N6    N     N_R   0.844613 0.385311 0.315028 0.153949
O38   O     O_R   0.772551 0.396261 0.267543 -0.517340
O39   O     O_R   0.882564 0.439582 0.356992 -0.384756
O40   O     O_3   0.076177 0.319242 0.315386 -0.617379
C76   C     C_3   0.133233 0.327516 0.257996 -0.090516
H62   H     H_    0.066910 0.367286 0.238591 0.145060
H63   H     H_    0.133544 0.274567 0.227054 0.121311
H64   H     H_    0.257625 0.347069 0.260071 0.165784

loop_
_geom_bond_atom_site_label_1
_geom_bond_atom_site_label_2
_geom_bond_distance
_ccdc_geom_bond_type
C19   C20   1.399076 A    
H45   C57   1.083284 S    
C25   C26   1.424355 A    
C27   C28   1.407392 A    
P2    C69   1.865922 S    
C2    H4    1.111919 S    
C48   C52   1.417358 A    
O6    P6    1.748922 S    
C28   O35   1.355910 S    
C74   H56   1.111557 S    
O3    Ba1   2.773342 S    
O19   C13   1.413289 S    
C49   O25   1.220824 D    
H1    C10   1.114066 S    
C42   C43   1.412082 A    
P8    C27   1.884287 S    
C53   C54   1.399082 A    
N3    O32   1.300736 A    
C63   C72   1.505782 S    
C17   C18   1.409142 A    
C44   C45   1.402015 A    
Ba1   Ba2   4.630006 S    
C5    H8    1.095609 S    
O29   C73   1.409283 S    
P8    O24   1.754281 S    
P3    O11   1.749313 S    
C33   C46   1.433171 A    
C2    H5    1.112012 S    
C8    H15   1.099434 S    
C48   C53   1.423474 A    
C7    H13   1.114189 S    
C8    C9    1.525856 S    
C62   C63   1.519117 S    
O2    Ba2   2.819839 S    
P6    C44   1.854301 S    
N2    C61   1.390681 Am   
C29   C30   1.433740 A    
C36   C37   1.409538 A    
C13   C14   1.533457 S    
P1    O1    1.535539 D    
C65   H48   1.084882 S    
N6    O39   1.295960 A    
C23   H37   1.081242 S    
C75   H59   1.092736 S    
C24   C25   1.422778 A    
C12   H24   1.111089 S    
C64   C65   1.323430 D    
C11   O22   1.405497 S    
C47   C69   1.399916 A    
C9    H19   1.111056 S    
C6    H11   1.103735 S    
P7    O22   1.748692 S    
P2    O10   1.741136 S    
C35   C36   1.407190 A    
C15   O24   1.401734 S    
C60   O27   1.221977 D    
P7    C64   1.821090 S    
C7    O29   1.412723 S    
C1    H2    1.109627 S    
C53   N5    1.433877 S    
C7    H14   1.111928 S    
C76   H62   1.111438 S    
C47   H51   1.082078 S    
P1    C46   1.886638 S    
C54   H46   1.083937 S    
C76   H64   1.097757 S    
C9    H18   1.106492 S    
O5    C6    1.394329 S    
Ba1   O16   2.774804 S    
C10   O30   1.420839 S    
C11   H21   1.111780 S    
C43   H42   1.079775 S    
C73   H54   1.112725 S    
C13   H26   1.111252 S    
C59   C60   1.416627 A    
O6    C10   1.410672 S    
O7    Ba1   2.795960 S    
P8    O23   1.545476 D    
C35   H39   1.074812 S    
C40   C41   1.403975 A    
C20   H36   1.083743 S    
P4    O13   1.576252 S    
C22   C26   1.412774 A    
C74   H58   1.109241 S    
C11   H22   1.109695 S    
C67   H47   1.082237 S    
P1    O5    1.748047 S    
C33   C34   1.411334 A    
N4    O33   1.291434 A    
C2    C3    1.521034 S    
C32   C42   1.418384 A    
C58   C59   1.406565 A    
P3    C68   1.848805 S    
C47   C68   1.400907 A    
C15   C16   1.522141 S    
C23   C24   1.411669 A    
C14   H28   1.111754 S    
C18   C19   1.404427 A    
O11   C2    1.405957 S    
N2    C71   1.464528 S    
P5    O17   1.769565 S    
C4    C5    1.563456 S    
O35   C75   1.393122 S    
C31   C38   1.411944 A    
C56   C59   1.410596 A    
C24   C27   1.413799 A    
H32   C16   1.109455 S    
C30   C35   1.410573 A    
H44   C58   1.083252 S    
C39   H40   1.082827 S    
P1    O2    1.576195 S    
C75   H61   1.087926 S    
C76   H63   1.110399 S    
C61   O28   1.220568 D    
O2    Ba1   2.948123 S    
C12   H23   1.112326 S    
C17   C31   1.407378 A    
C13   N4    1.449845 S    
C74   H57   1.110387 S    
P4    C29   1.914346 S    
C42   C44   1.415873 A    
C31   C32   1.424724 A    
C38   C41   1.407853 A    
C57   C58   1.396560 A    
P5    O18   1.543977 D    
C28   C29   1.396683 A    
O13   Ba2   2.948840 S    
N1    C66   1.456433 S    
C6    H12   1.111266 S    
C6    C7    1.525693 S    
C1    C10   1.531789 S    
O10   C8    1.383764 S    
C15   H30   1.104246 S    
C1    H3    1.110514 S    
C72   H52   1.085209 S    
C3    H25   1.110375 S    
C73   H55   1.109682 S    
O14   Ba2   2.772586 S    
C19   H35   1.082586 S    
C9    H17   1.111174 S    
C55   C61   1.411258 A    
P2    O7    1.540396 D    
O12   Ba2   2.848926 S    
C51   C57   1.407970 A    
C21   C22   1.408724 A    
C16   H34   1.107958 S    
P3    O8    1.745578 S    
O3    P6    1.746339 S    
C67   C71   1.413637 A    
C73   H53   1.112700 S    
C3    H7    1.110034 S    
C21   C23   1.403761 A    
N5    O37   1.301292 A    
C50   O26   1.222056 D    
C18   C34   1.407769 A    
P4    O12   1.535832 D    
O8    Ba1   2.761051 S    
Ba2   O20   2.774183 S    
C11   C12   1.529244 S    
C39   C40   1.398904 A    
P2    Ba1   3.390253 S    
C60   N2    1.389720 Am   
O4    P6    1.538416 D    
C15   H31   1.086173 S    
C54   C55   1.403931 A    
C50   C51   1.411695 A    
C4    O40   1.418049 S    
C49   N1    1.385537 Am   
C52   C56   1.424929 A    
C14   H29   1.110871 S    
N4    O34   1.302631 A    
C17   C22   1.421079 A    
C48   C49   1.420881 A    
Ba2   O21   2.796188 S    
C55   C56   1.403718 A    
C26   C37   1.407996 A    
C5    H9    1.110182 S    
C67   C68   1.399541 A    
C36   C39   1.404531 A    
Ba1   O13   2.819101 S    
C70   H50   1.079598 S    
O1    Ba1   2.848522 S    
O17   Ba2   2.761526 S    
O40   C76   1.430787 S    
N1    C50   1.383925 Am   
C70   C71   1.419875 A    
P2    O20   1.541972 S    
C14   H27   1.102401 S    
O16   Ba2   2.957905 S    
N3    O31   1.300338 A    
C4    N6    1.454637 S    
C45   C46   1.399860 A    
C51   C52   1.411882 A    
C62   H49   1.085612 S    
P5    O19   1.771801 S    
C12   N3    1.460314 S    
Ba1   O20   2.958765 S    
P1    Ba1   3.415686 S    
P5    C63   1.870154 S    
C34   H38   1.076606 S    
C1    H20   1.102433 S    
C65   C66   1.502325 S    
C45   H43   1.082145 S    
N6    O38   1.300906 A    
O16   P7    1.760377 S    
C75   H60   1.112748 S    
O14   P8    1.770085 S    
P4    Ba2   3.416095 S    
C40   H41   1.083735 S    
C20   C21   1.404152 A    
C5    H10   1.111233 S    
C8    H16   1.109279 S    
P7    O21   1.575187 D    
O30   C74   1.414672 S    
P3    O9    1.548353 D    
C3    H6    1.109477 S    
C32   C33   1.426946 A    
C69   C70   1.409648 A    
C16   H33   1.110637 S    
N5    O36   1.301041 A    
C37   C38   1.420867 A    
C4    O15   1.415980 S    
C25   C30   1.432239 A    
C62   C66   1.359068 D    
P4    O15   1.788380 S    
C41   C43   1.403437 A    
C64   C72   1.318317 D    
