data_mof_unit_18520.cif
_audit_creation_date              2013-03-05T15:51:28-0500
_audit_creation_method            fapswitch 2.2
_symmetry_space_group_name_H-M    P1
_symmetry_Int_Tables_number       1
_space_group_crystal_system       triclinic
_cell_length_a                    12.069371
_cell_length_b                    12.793752
_cell_length_c                    16.429007
_cell_angle_alpha                 91.865332
_cell_angle_beta                  81.169473
_cell_angle_gamma                 94.976736
_cell_volume                      2496.84758372

loop_
_atom_site_label
_atom_site_type_symbol
_atom_site_description
_atom_site_fract_x
_atom_site_fract_y
_atom_site_fract_z
_atom_type_partial_charge
O1    O     O_R   0.421320 0.658850 0.503920 -0.613492
O2    O     O_R   0.578680 0.341150 0.496080 -0.608818
O3    O     O_R   0.609840 0.646370 0.494500 -0.598619
O4    O     O_R   0.390160 0.353630 0.505500 -0.627896
C1    C     C_R   0.523357 0.700380 0.498950 0.903483
C2    C     C_R   0.476645 0.299640 0.501215 0.891911
O5    O     O_R   0.394600 0.506990 0.621070 -0.605084
O6    O     O_R   0.605400 0.493010 0.378930 -0.605090
O7    O     O_R   0.583120 0.494520 0.611640 -0.585412
O8    O     O_R   0.416880 0.505480 0.388360 -0.633940
C3    C     C_R   0.483588 0.498361 0.654471 0.859361
C4    C     C_R   0.515320 0.495595 0.345544 0.860810
Zn1   Zn    Zn3+2 0.374120 0.508330 0.506290 0.952409
Zn2   Zn    Zn3+2 0.625880 0.491670 0.493710 0.980177
C5    C     C_R   0.465739 0.464962 0.739358 -0.143701
C6    C     C_R   0.521297 0.462137 0.259848 -0.149674
C7    C     C_R   0.522619 0.515795 0.799910 0.227970
C8    C     C_R   0.464957 0.511207 0.204960 0.219463
C9    C     C_R   0.504474 0.473607 0.878605 -0.172050
C10   C     C_R   0.464837 0.467863 0.126151 -0.182867
C11   C     C_R   0.437999 0.378650 0.895786 -0.057205
C12   C     C_R   0.513987 0.373327 0.102926 -0.053733
C13   C     C_R   0.381780 0.327836 0.834768 0.379296
C14   C     C_R   0.568148 0.322822 0.158851 0.385214
C15   C     C_R   0.394804 0.373101 0.757416 -0.263651
C16   C     C_R   0.573225 0.369511 0.236328 -0.282928
C17   C     C_2   0.424419 0.339283 0.980355 0.206034
C18   C     C_2   0.517777 0.336628 0.016569 0.209199
H1    H     H_    0.612500 0.330133 0.280506 0.183506
H2    H     H_    0.353626 0.333557 0.709383 0.184484
H3    H     H_    0.427204 0.509191 0.082194 0.163200
H4    H     H_    0.541897 0.515127 0.927452 0.154805
C19   C     C_R   0.461007 0.187915 0.504630 -0.132780
C20   C     C_R   0.539109 0.812162 0.495861 -0.134715
C21   C     C_R   0.634352 0.968934 0.432804 0.342620
C22   C     C_R   0.365513 0.031093 0.567375 0.346775
C23   C     C_R   0.628185 0.861160 0.442878 -0.274836
C24   C     C_R   0.371980 0.138971 0.557728 -0.277354
C25   C     C_R   0.455768 0.868506 0.540010 -0.189420
C26   C     C_R   0.544209 0.131557 0.460311 -0.177909
C27   C     C_R   0.454593 0.974528 0.527100 0.016934
C28   C     C_R   0.545434 0.025563 0.473239 0.017926
H5    H     H_    0.609101 0.172296 0.417065 0.196453
H6    H     H_    0.390707 0.827747 0.583106 0.196896
H7    H     H_    0.307955 0.184697 0.591667 0.195415
H8    H     H_    0.691713 0.815477 0.408464 0.186976
N1    N     N_R   0.206400 0.519440 0.514690 -0.132918
N2    N     N_R   0.793600 0.480560 0.485310 -0.117022
C29   C     C_R   0.957294 0.395775 0.427908 -0.248150
C30   C     C_R   0.042184 0.604283 0.573453 -0.277590
C31   C     C_R   0.842138 0.406210 0.434581 0.012283
C32   C     C_R   0.158094 0.594557 0.565078 0.039178
C33   C     C_R   0.856615 0.548756 0.529861 0.308942
C34   C     C_R   0.141197 0.449356 0.472450 0.290573
C35   C     C_R   0.973898 0.538537 0.527277 -0.013634
C36   C     C_R   0.024344 0.460281 0.475784 0.027409
H9    H     H_    0.209671 0.646735 0.599792 0.169489
H10   H     H_    0.791223 0.355223 0.398533 0.171382
H11   H     H_    0.992756 0.337644 0.384729 0.209040
H12   H     H_    0.007632 0.663519 0.615968 0.179091
N3    N     N_2   0.592105 0.611409 0.783973 -0.304354
H13   H     H_    0.588690 0.646697 0.729008 0.221123
C37   C     C_3   0.705164 0.612709 0.803646 -0.661663
H14   H     H_    0.752693 0.688595 0.785137 0.237920
H15   H     H_    0.749488 0.547758 0.770207 0.241255
H16   H     H_    0.703774 0.605263 0.870865 0.261994
N4    N     N_2   0.412750 0.606109 0.226469 -0.299880
H17   H     H_    0.443214 0.650650 0.272900 0.232079
C38   C     C_3   0.291139 0.595481 0.235920 -0.640054
H18   H     H_    0.256270 0.542446 0.287555 0.235112
H19   H     H_    0.262252 0.563884 0.178275 0.260740
H20   H     H_    0.258431 0.673630 0.249678 0.246003
N5    N     N_R   0.626178 0.324285 0.967571 0.223569
O9    O     O_R   0.717840 0.366068 0.992181 -0.331224
O10   O     O_R   0.634097 0.265697 0.900981 -0.306964
N6    N     N_R   0.313208 0.328826 0.028085 0.221959
O11   O     O_R   0.230155 0.370474 0.002929 -0.327790
O12   O     O_R   0.292755 0.270963 0.093273 -0.312812
N7    N     N_R   0.314108 0.230032 0.849304 0.240046
O13   O     O_R   0.342253 0.159939 0.896275 -0.283105
O14   O     O_R   0.230183 0.206268 0.809108 -0.297722
N8    N     N_R   0.614985 0.223630 0.139227 0.236560
O15   O     O_R   0.569130 0.154936 0.091639 -0.290867
O16   O     O_R   0.695711 0.196609 0.176307 -0.310436
N9    N     N_R   0.730487 0.018898 0.381717 0.208680
O17   O     O_R   0.771865 0.973785 0.312946 -0.318617
O18   O     O_R   0.789032 0.097715 0.410846 -0.393577
N10   N     N_R   0.268421 0.980752 0.617174 0.199373
O19   O     O_R   0.225200 0.025484 0.685582 -0.293177
O20   O     O_R   0.210898 0.902066 0.586958 -0.407896
N11   N     N_2   0.189772 0.364812 0.425185 -0.326521
H21   H     H_    0.271130 0.376165 0.396389 0.275328
C39   C     C_3   0.155889 0.259448 0.454681 -0.683143
H22   H     H_    0.230182 0.220865 0.466498 0.246347
H23   H     H_    0.118120 0.212170 0.406551 0.262129
H24   H     H_    0.093987 0.259248 0.512312 0.252689
N12   N     N_2   0.803214 0.630604 0.576718 -0.284208
H25   H     H_    0.813858 0.632593 0.637716 0.207595
C40   C     C_3   0.825679 0.732903 0.539547 -0.680056
H26   H     H_    0.911579 0.767348 0.545714 0.240022
H27   H     H_    0.764276 0.786471 0.570907 0.246554
H28   H     H_    0.817928 0.727192 0.473050 0.248774

loop_
_geom_bond_atom_site_label_1
_geom_bond_atom_site_label_2
_geom_bond_distance
_ccdc_geom_bond_type
C35   C36   1.407561 A    
C37   H15   1.111600 S    
C39   H22   1.105366 S    
C20   C23   1.392029 A    
C27   C28   1.423712 A    
N10   O20   1.301492 A    
N12   H25   1.028942 S    
C25   C27   1.381326 A    
N9    O17   1.301309 A    
C22   N10   1.437491 S    
O5    C3    1.293181 A    
O1    C1    1.289973 A    
C9    C11   1.408163 A    
N6    O12   1.301795 A    
C5    C15   1.404406 A    
C18   N5    1.445298 S    
C38   H19   1.110796 S    
N5    O9    1.301463 A    
O4    Zn1   2.004716 S    
N3    C37   1.448400 S    
C21   C28   1.415136 A    
C14   N8    1.440771 S    
C24   H7    1.084056 S    
C7    N3    1.429577 S    
C3    C5    1.450695 S    
C26   H5    1.082718 S    
C4    C6    1.451059 S    
C29   C31   1.394995 A    
C30   C32   1.400535 A    
N3    H13   1.030603 S    
N9    O18   1.301492 A    
C11   C17   1.473852 S    
C37   H16   1.108966 S    
C39   H23   1.109331 S    
C12   C18   1.475076 S    
N5    O10   1.301832 A    
C22   C27   1.415221 A    
O2    C2    1.289683 A    
C9    H4    1.082635 S    
N12   C40   1.448785 S    
C33   C35   1.426855 A    
C6    C16   1.403972 A    
N2    C33   1.374620 A    
C34   C36   1.421827 A    
N2    C31   1.355639 A    
C19   C26   1.387592 A    
N4    H17   1.031152 S    
N6    O11   1.301430 A    
O4    C2    1.292674 A    
N11   H21   1.022851 S    
N7    O14   1.301309 A    
Zn2   N2    2.024798 S    
C33   N12   1.420140 S    
C8    N4    1.425657 S    
C20   C25   1.387544 A    
N4    C38   1.446966 S    
C38   H20   1.110373 S    
O7    Zn2   1.926951 S    
N11   C39   1.450927 S    
C40   H26   1.108794 S    
O6    C4    1.294014 A    
C1    C20   1.427764 S    
C31   H10   1.082089 S    
O7    C3    1.299664 A    
N1    C32   1.358684 A    
O3    Zn2   2.004717 S    
O8    C4    1.298488 A    
N1    C34   1.381880 A    
C40   H27   1.110073 S    
C10   C12   1.408987 A    
C39   H24   1.112343 S    
N8    O16   1.301644 A    
C11   C13   1.406373 A    
C12   C14   1.409016 A    
N7    O13   1.301324 A    
O1    Zn1   1.960143 S    
C17   N6    1.444630 S    
Zn1   N1    2.024800 S    
C15   H2    1.084653 S    
C5    C7    1.404982 A    
O6    Zn2   1.939921 S    
C21   C23   1.388306 A    
C19   C24   1.392365 A    
C14   C16   1.396018 A    
O3    C1    1.292579 A    
O8    Zn1   1.926954 S    
C25   H6    1.082637 S    
C29   C36   1.411355 A    
C30   C35   1.411535 A    
C29   H11   1.080367 S    
C2    C19   1.427253 S    
C30   H12   1.080302 S    
C22   C24   1.388469 A    
C34   N11   1.425556 S    
C21   N9    1.437552 S    
C26   C28   1.381097 A    
C7    C9    1.396007 A    
C8    C10   1.391978 A    
C13   C15   1.394928 A    
C38   H18   1.111518 S    
O2    Zn2   1.960143 S    
C32   H9    1.081900 S    
C37   H14   1.110472 S    
O5    Zn1   1.939917 S    
C40   H28   1.110224 S    
N10   O19   1.301017 A    
C16   H1    1.084493 S    
C6    C8    1.403148 A    
N8    O15   1.301407 A    
C17   C18   1.355916 D    
C13   N7    1.439465 S    
C23   H8    1.082731 S    
C10   H3    1.083803 S    
