data_mof_unit_40171.cif
_audit_creation_date              2012-12-11T17:23:08-0500
_audit_creation_method            fapswitch 2.2
_symmetry_space_group_name_H-M    P1
_symmetry_Int_Tables_number       1
_space_group_crystal_system       triclinic
_cell_length_a                    22.333007
_cell_length_b                    7.105157
_cell_length_c                    19.413613
_cell_angle_alpha                 89.994998
_cell_angle_beta                  99.738859
_cell_angle_gamma                 89.986658
_cell_volume                      3036.14890962

loop_
_atom_site_label
_atom_site_type_symbol
_atom_type_description
_atom_site_fract_x
_atom_site_fract_y
_atom_site_fract_z
_atom_type_partial_charge
O1    O     O_R   0.443980 0.494320 0.557430 -0.544514
O2    O     O_R   0.556020 0.994320 0.442570 -0.544873
O3    O     O_R   0.441210 0.822520 0.414610 -0.548304
O4    O     O_R   0.558790 0.322520 0.585390 -0.547882
C1    C     C_R   0.427203 0.654714 0.388222 0.832445
C2    C     C_R   0.572939 0.154609 0.611636 0.831838
O5    O     O_R   0.436920 0.823940 0.555180 -0.526494
O6    O     O_R   0.563080 0.323940 0.444820 -0.526510
O7    O     O_R   0.551700 0.995760 0.584140 -0.532935
O8    O     O_R   0.448300 0.495760 0.415860 -0.533199
C3    C     C_R   0.421718 0.655476 0.574952 0.736527
C4    C     C_R   0.578416 0.155422 0.425237 0.734638
O9    O     O_3   0.537660 0.661290 0.509340 -0.379678
O10   O     O_3   0.462340 0.161290 0.490660 -0.379712
V1    V     V_3+5 0.493010 0.935560 0.498270 1.450579
V2    V     V_3+5 0.506990 0.435560 0.501730 1.451413
H1    H     H_    0.655861 0.915493 0.228858 0.124791
H2    H     H_    0.344100 0.407321 0.770409 0.131194
C5    C     C_R   0.739836 0.984204 0.192744 0.106941
C6    C     C_R   0.261206 0.478873 0.808034 0.110768
C7    C     C_R   0.793461 0.094119 0.204888 0.007890
C8    C     C_R   0.208440 0.593750 0.797643 0.015251
C9    C     C_R   0.802667 0.219698 0.262110 0.433237
C10   C     C_R   0.200352 0.725457 0.742318 0.430470
C11   C     C_R   0.759680 0.230963 0.307409 -0.227883
C12   C     C_R   0.243098 0.737215 0.696723 -0.232337
H3    H     H_    0.767909 0.325262 0.351871 0.149970
H4    H     H_    0.235504 0.835626 0.653476 0.148668
C13   C     C_R   0.706580 0.122238 0.295500 0.028848
C14   C     C_R   0.295047 0.623305 0.706641 0.031759
C15   C     C_R   0.696957 0.999478 0.238167 -0.159950
C16   C     C_R   0.303868 0.495460 0.762435 -0.170981
C17   C     C_1   0.838746 0.080957 0.158742 0.013001
C18   C     C_1   0.162662 0.580694 0.843115 0.012010
C19   C     C_1   0.661843 0.136059 0.341932 -0.006395
C20   C     C_1   0.339281 0.636640 0.659555 -0.006707
C21   C     C_1   0.624069 0.146002 0.380180 -0.162969
C22   C     C_1   0.376561 0.646266 0.620668 -0.163401
C23   C     C_1   0.876414 0.071371 0.120378 -0.181308
C24   C     C_1   0.124390 0.571351 0.880706 -0.183531
C25   C     C_R   0.628231 0.041446 0.802118 0.080638
C26   C     C_R   0.372025 0.550628 0.196728 0.081768
C27   C     C_R   0.613909 0.138593 0.680048 -0.302094
C28   C     C_R   0.386246 0.639361 0.319718 -0.301204
C29   C     C_R   0.911763 0.124339 0.760845 0.379481
C30   C     C_R   0.088238 0.619245 0.239363 0.379179
C31   C     C_R   0.876017 0.114719 0.693963 -0.020049
C32   C     C_R   0.124184 0.608294 0.306060 -0.018993
C33   C     C_R   0.812852 0.085540 0.686672 0.465672
C34   C     C_R   0.187442 0.581376 0.312975 0.464938
C35   C     C_R   0.783460 0.081003 0.746818 -0.040798
C36   C     C_R   0.216755 0.581099 0.252696 -0.041138
C37   C     C_R   0.821832 0.055246 0.812678 -0.111120
C38   C     C_R   0.178308 0.558082 0.186749 -0.111458
C39   C     C_R   0.718125 0.089674 0.744160 -0.075828
C40   C     C_R   0.282070 0.591868 0.255203 -0.076378
C41   C     C_R   0.692948 0.029994 0.804227 -0.026577
C42   C     C_R   0.307279 0.537869 0.194429 -0.026950
C43   C     C_R   0.733916 0.963953 0.864195 0.209668
C44   C     C_R   0.266302 0.476312 0.133655 0.210909
C45   C     C_R   0.796093 0.996896 0.869690 -0.137204
C46   C     C_R   0.204041 0.506188 0.128980 -0.134085
C47   C     C_R   0.676909 0.159126 0.684644 0.375130
C48   C     C_R   0.323232 0.658462 0.315273 0.375734
C49   C     C_R   0.589566 0.088442 0.739169 0.376946
C50   C     C_R   0.410646 0.593711 0.260184 0.376184
C51   C     C_R   0.885957 0.077802 0.819745 -0.219899
C52   C     C_R   0.114102 0.577345 0.180116 -0.219223
H5    H     H_    0.825263 0.962490 0.918492 0.106893
H6    H     H_    0.174804 0.475095 0.079888 0.104324
O11   O     O_R   0.051730 0.724670 0.084120 -0.536676
O12   O     O_R   0.948270 0.224670 0.915880 -0.535886
O13   O     O_R   0.063080 0.393540 0.944820 -0.537783
O14   O     O_R   0.936920 0.893540 0.055180 -0.537816
C53   C     C_R   0.078346 0.562080 0.925186 0.699831
C54   C     C_R   0.921844 0.062067 0.075075 0.699375
O15   O     O_R   0.058800 0.395030 0.085390 -0.542872
O16   O     O_R   0.941200 0.895030 0.914610 -0.543356
O17   O     O_R   0.943980 0.223310 0.057440 -0.527686
O18   O     O_R   0.056020 0.723310 0.942560 -0.526723
C55   C     C_R   0.072683 0.564218 0.111647 0.782163
C56   C     C_R   0.927262 0.064285 0.888351 0.782163
O19   O     O_3   0.962360 0.556290 0.990650 -0.374570
O20   O     O_3   0.037640 0.056290 0.009350 -0.373852
V3    V     V_3+5 0.006980 0.281990 0.001730 1.435425
V4    V     V_3+5 0.993020 0.781990 0.998270 1.434446
O21   O     O_3   0.782456 0.047300 0.620021 -0.509488
C57   C     C_3   0.768763 0.854144 0.614774 -0.192836
H7    H     H_    0.810120 0.765625 0.629630 0.107857
H8    H     H_    0.749466 0.822044 0.559566 0.160713
H9    H     H_    0.733952 0.817495 0.647111 0.114775
O22   O     O_3   0.218064 0.541732 0.379382 -0.509181
C58   C     C_3   0.232181 0.348845 0.383820 -0.193553
H10   H     H_    0.266910 0.314010 0.351133 0.115289
H11   H     H_    0.190979 0.259770 0.368878 0.107391
H12   H     H_    0.251752 0.315675 0.438860 0.160439
C59   C     C_3   0.904826 0.126025 0.628995 -0.650386
H13   H     H_    0.954996 0.138705 0.640711 0.227867
H14   H     H_    0.894357 0.996516 0.597251 0.214670
H15   H     H_    0.886442 0.249751 0.597363 0.206774
C60   C     C_3   0.095523 0.615764 0.371208 -0.650013
H16   H     H_    0.045317 0.627384 0.359727 0.227513
H17   H     H_    0.106409 0.485219 0.402236 0.214379
H18   H     H_    0.113647 0.738675 0.403453 0.207006
C61   C     C_3   0.727646 0.852086 0.131369 -0.780775
H19   H     H_    0.725623 0.933434 0.082292 0.211363
H20   H     H_    0.764623 0.746492 0.134842 0.203486
H21   H     H_    0.683931 0.776022 0.129290 0.207583
C62   C     C_3   0.274168 0.337858 0.866729 -0.799293
H22   H     H_    0.237652 0.330056 0.898825 0.213014
H23   H     H_    0.279599 0.195692 0.844858 0.205128
H24   H     H_    0.317055 0.376513 0.901649 0.213917
O23   O     O_3   0.855616 0.323588 0.276704 -0.545041
C63   C     C_3   0.844837 0.502531 0.245706 -0.206454
H25   H     H_    0.808448 0.579434 0.266857 0.131452
H26   H     H_    0.833307 0.491279 0.187801 0.128734
H27   H     H_    0.887047 0.587081 0.258037 0.186812
O24   O     O_3   0.148408 0.834761 0.729807 -0.544623
C64   C     C_3   0.162270 0.014496 0.758961 -0.203225
H28   H     H_    0.178033 0.005771 0.816438 0.131572
H29   H     H_    0.120341 0.101182 0.750237 0.185966
H30   H     H_    0.196676 0.087759 0.733305 0.131612
O25   O     O_3   0.527015 0.075489 0.734650 -0.548129
C65   C     C_3   0.502722 0.257569 0.740273 -0.262138
H31   H     H_    0.501836 0.339063 0.691413 0.144848
H32   H     H_    0.527844 0.338109 0.785327 0.129027
H33   H     H_    0.455054 0.243118 0.748777 0.160307
O26   O     O_3   0.473217 0.581929 0.264633 -0.548297
C66   C     C_3   0.497280 0.764770 0.260180 -0.262904
H34   H     H_    0.498747 0.842861 0.309853 0.146252
H35   H     H_    0.471649 0.848052 0.216186 0.129072
H36   H     H_    0.544729 0.751713 0.250753 0.159952
C67   C     C_3   0.715820 0.839382 0.920480 -0.797080
H37   H     H_    0.755718 0.767922 0.951688 0.199199
H38   H     H_    0.694743 0.921860 0.958302 0.209222
H39   H     H_    0.685917 0.724112 0.896373 0.213249
C68   C     C_3   0.284416 0.360486 0.074983 -0.795259
H40   H     H_    0.244609 0.290507 0.043040 0.196259
H41   H     H_    0.304634 0.449075 0.038032 0.213476
H42   H     H_    0.314748 0.243653 0.096764 0.212737
C69   C     C_3   0.598824 0.020779 0.866710 -0.710349
H43   H     H_    0.622399 0.112171 0.909096 0.191349
H44   H     H_    0.550867 0.067381 0.858796 0.229417
H45   H     H_    0.597666 0.871699 0.882857 0.206011
C70   C     C_3   0.401533 0.535456 0.132009 -0.711036
H46   H     H_    0.378101 0.630081 0.090612 0.191510
H47   H     H_    0.449518 0.581755 0.140497 0.229316
H48   H     H_    0.402714 0.387823 0.114254 0.205430
O27   O     O_3   0.696614 0.247303 0.629402 -0.517921
C71   C     C_3   0.705047 0.439321 0.645258 -0.189092
H49   H     H_    0.744054 0.461154 0.688416 0.118081
H50   H     H_    0.663188 0.505916 0.658273 0.117135
H51   H     H_    0.715525 0.509729 0.597872 0.149127
O28   O     O_3   0.303497 0.743203 0.371158 -0.517824
C72   C     C_3   0.294219 0.935462 0.356355 -0.189520
H52   H     H_    0.255171 0.957474 0.313253 0.117722
H53   H     H_    0.335826 0.004661 0.343805 0.116796
H54   H     H_    0.283342 0.003032 0.404081 0.149587
O29   O     O_3   0.973748 0.155421 0.768424 -0.551032
C73   C     C_3   0.984001 0.351335 0.766809 -0.208582
H55   H     H_    0.963192 0.414432 0.715940 0.134932
H56   H     H_    0.033666 0.376115 0.773495 0.157728
H57   H     H_    0.966758 0.424886 0.810090 0.139610
O30   O     O_3   0.026121 0.647286 0.232163 -0.552401
C74   C     C_3   0.014909 0.842604 0.234231 -0.214659
H58   H     H_    0.035419 0.905340 0.285268 0.137052
H59   H     H_    0.965127 0.865085 0.227583 0.157416
H60   H     H_    0.031783 0.918141 0.191131 0.140637

loop_
_geom_bond_atom_site_label_1
_geom_bond_atom_site_label_2
_ccdc_geom_bond_type
O21   C57   S    
C74   H58   S    
C48   O28   S    
C72   H53   S    
C39   C41   A    
C33   O21   S    
C28   C50   A    
O1    C3    A    
C54   O17   A    
C5    C15   A    
O26   C66   S    
C26   C42   A    
C2    O7    A    
O12   V3    S    
C27   C47   A    
O25   C65   S    
C31   C33   A    
C28   C48   A    
O5    C3    A    
C68   H41   S    
C17   C23   T    
O14   C54   A    
C18   C24   T    
C52   C55   S    
C8    C10   A    
O30   C74   S    
C5    C7    A    
O20   V4    S    
C66   H34   S    
C62   H23   S    
C41   C43   A    
C7    C17   S    
C42   C44   A    
C59   H13   S    
C46   H6    S    
C44   C46   A    
C4    C21   S    
O24   C64   S    
C47   O27   S    
O18   V4    S    
C59   H14   S    
C30   C52   A    
C37   C45   A    
C50   O26   S    
C33   C35   A    
C71   H51   S    
C29   O29   S    
C29   C51   A    
C67   H39   S    
C34   C36   A    
C40   C48   A    
C53   O18   A    
C27   C49   A    
C44   C68   S    
C66   H36   S    
O16   V4    S    
C29   C31   A    
C68   H40   S    
O2    C4    A    
C74   H59   S    
C30   O30   S    
C72   H54   S    
O13   C53   A    
C70   H47   S    
C36   C38   A    
C70   H46   S    
C64   H29   S    
C11   C13   A    
C8    C18   S    
C68   H42   S    
C30   C32   A    
C43   C45   A    
C60   H16   S    
C26   C50   A    
O20   V3    S    
O4    C2    A    
C69   H45   S    
C25   C49   A    
O5    V1    S    
C38   C46   A    
C23   C54   S    
C11   H3    S    
C43   C67   S    
C39   C47   A    
C35   C37   A    
C73   H56   S    
O4    V2    S    
C3    C22   S    
C73   H57   S    
C25   C69   S    
C9    O23   S    
O11   V4    S    
C61   H20   S    
O16   C56   A    
O29   C73   S    
C57   H9    S    
O15   C55   A    
O6    C4    A    
O19   V4    S    
O1    V2    S    
C61   H21   S    
O14   V4    S    
O2    V1    S    
O13   V3    S    
O28   C72   S    
C65   H33   S    
C5    C61   S    
C34   O22   S    
C74   H60   S    
O19   V3    S    
C1    C28   S    
C57   H8    S    
C12   C14   A    
C58   H12   S    
C2    C27   S    
C7    C9    A    
C67   H37   S    
H1    C15   S    
C71   H50   S    
C62   H24   S    
H2    C16   S    
C20   C22   T    
O17   V3    S    
C59   H15   S    
O3    V1    S    
C70   H48   S    
C65   H32   S    
O23   C63   S    
C6    C16   A    
C64   H30   S    
C45   H5    S    
C19   C21   T    
C71   H49   S    
C10   O24   S    
C10   C12   A    
C6    C8    A    
O3    C1    A    
C63   H26   S    
C64   H28   S    
C63   H25   S    
C60   H18   S    
C61   H19   S    
C13   C19   S    
C12   H4    S    
C31   C59   S    
C24   C53   S    
C14   C20   S    
C73   H55   S    
C58   H10   S    
C69   H44   S    
O7    V1    S    
C25   C41   A    
C1    O8    A    
C13   C15   A    
O8    V2    S    
O27   C71   S    
C14   C16   A    
C58   H11   S    
C32   C60   S    
C32   C34   A    
O22   C58   S    
C40   C42   A    
C35   C39   A    
C49   O25   S    
C37   C51   A    
C63   H27   S    
O15   V3    S    
C6    C62   S    
C9    C11   A    
C38   C52   A    
C57   H7    S    
C51   C56   S    
O6    V2    S    
O9    V2    S    
C62   H22   S    
C72   H52   S    
C67   H38   S    
O10   V1    S    
C66   H35   S    
C69   H43   S    
C26   C70   S    
O12   C56   A    
C36   C40   A    
C65   H31   S    
O11   C55   A    
C60   H17   S    
