data_mof_unit_13377.cif
_audit_creation_date              2012-12-10T17:11:03-0500
_audit_creation_method            fapswitch 2.2
_symmetry_space_group_name_H-M    P1
_symmetry_Int_Tables_number       1
_space_group_crystal_system       triclinic
_cell_length_a                    11.697622
_cell_length_b                    12.98328
_cell_length_c                    13.396849
_cell_angle_alpha                 92.539688
_cell_angle_beta                  76.616176
_cell_angle_gamma                 99.981812
_cell_volume                      1949.38782153

loop_
_atom_site_label
_atom_site_type_symbol
_atom_type_description
_atom_site_fract_x
_atom_site_fract_y
_atom_site_fract_z
_atom_type_partial_charge
C1    C     C_R   0.521481 0.700782 0.499898 0.895965
C2    C     C_R   0.451065 0.484522 0.972358 0.041436
C3    C     C_R   0.465433 0.532947 0.875874 -0.029018
C4    C     C_R   0.535691 0.519123 0.032984 0.076733
C5    C     C_R   0.633797 0.598914 0.995267 0.105301
C6    C     C_R   0.639019 0.651844 0.905699 -0.310822
C7    C     C_R   0.549522 0.626388 0.851539 0.358662
C8    C     C_R   0.523560 0.480370 0.131918 -0.216840
C9    C     C_R   0.703243 0.594915 0.151976 -0.196224
C10   C     C_R   0.395080 0.485673 0.807763 -0.054548
C11   C     C_R   0.465690 0.185825 0.503846 -0.045621
C12   C     C_R   0.436300 0.497004 0.696051 0.879353
C13   C     C_R   0.534457 0.814185 0.497587 0.001365
C14   C     C_R   0.659399 0.983964 0.466195 -0.209095
C15   C     C_R   0.647975 0.875865 0.471571 -0.156157
C16   C     C_R   0.432318 0.861045 0.519867 -0.207559
C17   C     C_R   0.442958 0.969084 0.515247 0.166218
C18   C     C_R   0.557375 0.030982 0.487441 0.172146
C19   C     C_R   0.567880 0.138941 0.481470 -0.251027
C20   C     C_R   0.352500 0.124321 0.533239 -0.198874
C21   C     C_R   0.341049 0.016216 0.538212 -0.193041
C22   C     C_R   0.942124 0.589260 0.603855 -0.325603
C23   C     C_R   0.478624 0.299190 0.499978 0.800844
C24   C     C_R   0.823793 0.580508 0.593500 0.090859
C25   C     C_R   0.859561 0.463554 0.453726 0.037928
C26   C     C_R   0.978923 0.469138 0.462091 0.033365
C27   C     C_R   0.021161 0.533068 0.537734 0.067520
C28   C     C_R   0.141187 0.538551 0.545220 -0.042737
C29   C     C_R   0.173812 0.416292 0.408857 0.480245
C30   C     C_R   0.056263 0.411508 0.397201 -0.383228
C31   C     C_R   0.563773 0.505343 0.304046 0.783914
C32   C     C_R   0.719559 0.632559 0.053025 -0.155087
C33   C     C_R   0.601706 0.522594 0.193246 -0.047983
C34   C     C_R   0.295497 0.408886 0.843695 -0.190191
C35   C     C_R   0.272709 0.370352 0.942329 -0.135203
C36   C     C_R   0.351682 0.404211 0.004706 -0.147673
Cu1   Cu    Cu3+1 0.386470 0.492430 0.492410 0.973897
Cu2   Cu    Cu3+1 0.613530 0.507570 0.507590 0.968239
H1    H     H_    0.764791 0.628180 0.198695 0.148929
H2    H     H_    0.273186 0.159859 0.554518 0.148676
H3    H     H_    0.747604 0.030610 0.445168 0.134971
H4    H     H_    0.252936 0.969700 0.560808 0.138225
H5    H     H_    0.727659 0.840434 0.454016 0.155456
H6    H     H_    0.344519 0.813545 0.541147 0.151796
H7    H     H_    0.174879 0.588614 0.602431 0.151161
H8    H     H_    0.971041 0.638854 0.663582 0.143069
H9    H     H_    0.025470 0.361934 0.338228 0.144653
H10   H     H_    0.763406 0.622530 0.646047 0.166865
H11   H     H_    0.706136 0.720827 0.884112 0.158065
H12   H     H_    0.826496 0.414237 0.395733 0.116918
H13   H     H_    0.795072 0.693094 0.024314 0.137725
H14   H     H_    0.450370 0.421645 0.166380 0.130585
H15   H     H_    0.239437 0.373420 0.793122 0.147212
H16   H     H_    0.332011 0.365208 0.077334 0.115456
H17   H     H_    0.197163 0.309181 0.968501 0.140305
H18   H     H_    0.655626 0.186367 0.459295 0.146452
N1    N     N_R   0.215880 0.481050 0.481000 -0.197083
N2    N     N_R   0.784100 0.518950 0.519000 -0.185945
O1    O     O_R   0.419710 0.645650 0.494620 -0.597650
O2    O     O_R   0.611450 0.658430 0.507430 -0.553357
O3    O     O_R   0.357340 0.490460 0.641450 -0.582612
O4    O     O_R   0.549080 0.503250 0.654260 -0.580487
O5    O     O_R   0.388550 0.341570 0.492570 -0.562238
O6    O     O_R   0.580290 0.354350 0.505380 -0.592267
O7    O     O_R   0.450920 0.496750 0.345740 -0.562610
O8    O     O_R   0.642660 0.509540 0.358550 -0.599820
N3    N     N_2   0.249595 0.355211 0.343244 -0.379586
H19   H     H_    0.264638 0.376781 0.267672 0.219567
C37   C     C_3   0.212379 0.243328 0.355070 -0.698018
H20   H     H_    0.185056 0.221923 0.437441 0.232535
H21   H     H_    0.287715 0.203143 0.317578 0.235106
H22   H     H_    0.136320 0.215988 0.318487 0.202114
S1    S     S_3+6 0.524611 0.731381 0.782985 -0.009920
O9    O     O_2   0.413646 0.705241 0.742315 -0.304479
O10   O     O_2   0.510977 0.822719 0.855236 -0.279164
O11   O     O_3   0.642954 0.767689 0.686092 -0.555548
H23   H     H_    0.704006 0.809661 0.718343 0.337492

loop_
_geom_bond_atom_site_label_1
_geom_bond_atom_site_label_2
_ccdc_geom_bond_type
C19   H18   S    
C31   O8    A    
S1    O9    D    
C14   C18   A    
C35   C36   A    
C4    C8    A    
C7    S1    S    
C28   N1    A    
C11   C19   A    
C26   C27   A    
C29   C30   A    
C18   C19   A    
C3    C7    A    
C1    O1    A    
C5    C6    A    
C20   H2    S    
C9    H1    S    
C34   C35   A    
C37   H21   S    
C25   H12   S    
C9    C32   A    
Cu2   N2    S    
Cu2   O8    S    
C16   C17   A    
Cu1   O7    S    
C31   C33   S    
C8    H14   S    
C5    C32   A    
C23   O5    A    
C29   N3    S    
C9    C33   A    
S1    O10   D    
Cu1   O5    S    
Cu2   O6    S    
C11   C20   A    
C28   H7    S    
C35   H17   S    
N3    H19   S    
C24   H10   S    
C30   H9    S    
O11   H23   S    
C1    O2    A    
C25   C26   A    
C17   C21   A    
N3    C37   S    
C37   H22   S    
C2    C4    A    
C32   H13   S    
Cu1   Cu2   S    
C12   O4    A    
C17   C18   A    
C10   C34   A    
Cu1   O1    S    
C10   C12   S    
C14   H3    S    
Cu2   O2    S    
C23   O6    A    
C22   H8    S    
C29   N1    A    
C26   C30   A    
C22   C27   A    
C13   C15   A    
S1    O11   S    
C22   C24   A    
C1    C13   S    
C25   N2    A    
C2    C36   A    
C31   O7    A    
C16   H6    S    
C4    C5    A    
Cu1   O3    S    
C6    C7    A    
C2    C3    A    
C15   H5    S    
C3    C10   A    
C12   O3    A    
C11   C23   S    
C8    C33   A    
C6    H11   S    
C37   H20   S    
C36   H16   S    
C21   H4    S    
C20   C21   A    
C34   H15   S    
C24   N2    A    
C13   C16   A    
C27   C28   A    
C14   C15   A    
Cu1   N1    S    
Cu2   O4    S    
