data_mof_unit_14770.cif
_audit_creation_date              2012-12-10T19:07:36-0500
_audit_creation_method            fapswitch 2.2
_symmetry_space_group_name_H-M    P1
_symmetry_Int_Tables_number       1
_space_group_crystal_system       triclinic
_cell_length_a                    10.826186
_cell_length_b                    10.867236
_cell_length_c                    9.54588
_cell_angle_alpha                 89.787338
_cell_angle_beta                  90.539491
_cell_angle_gamma                 89.709496
_cell_volume                      1123.00748123

loop_
_atom_site_label
_atom_site_type_symbol
_atom_type_description
_atom_site_fract_x
_atom_site_fract_y
_atom_site_fract_z
_atom_type_partial_charge
C1    C     C_R   0.501650 0.262647 0.500070 0.804387
C2    C     C_R   0.938572 0.450041 0.618123 0.129696
C3    C     C_3   0.938404 0.500577 0.763289 -0.494591
C4    C     C_3   0.077978 0.488143 0.763289 -0.461681
C5    C     C_R   0.469410 0.062259 0.616344 0.052063
C6    C     C_R   0.499853 0.129936 0.498438 -0.079230
C7    C     C_R   0.521391 0.064388 0.373746 -0.215818
C8    C     C_R   0.516301 0.935451 0.373397 -0.186408
C9    C     C_R   0.485368 0.870254 0.496437 -0.122986
C10   C     C_R   0.451535 0.939480 0.612868 0.010303
C11   C     C_3   0.416752 0.934676 0.765783 0.289716
C12   C     C_R   0.262629 0.493754 0.499268 0.787851
C13   C     C_3   0.444101 0.073649 0.768166 -0.464511
C14   C     C_R   0.536900 0.601807 0.073686 0.270539
C15   C     C_R   0.449697 0.405717 0.074229 -0.087205
C16   C     C_R   0.449450 0.405937 0.925455 -0.084550
C17   C     C_R   0.536707 0.601836 0.926270 0.254660
C18   C     C_3   0.660440 0.660424 0.921837 -0.516323
C19   C     C_3   0.660505 0.661094 0.080615 -0.502442
C20   C     C_R   0.494164 0.737330 0.499536 0.790765
C21   C     C_R   0.738004 0.497647 0.500252 0.806091
C22   C     C_R   0.065742 0.443574 0.616439 0.128568
C23   C     C_R   0.130197 0.475740 0.495865 -0.099467
C24   C     C_R   0.063852 0.489759 0.369499 -0.217695
C25   C     C_R   0.935199 0.493362 0.370673 -0.208664
C26   C     C_R   0.871571 0.483854 0.498172 -0.106807
Cu1   Cu    Cu3+1 0.499990 0.499980 0.640670 0.931118
Cu2   Cu    Cu3+1 0.500010 0.500020 0.359330 0.939242
H1    H     H_    0.110595 0.506694 0.271532 0.169751
H2    H     H_    0.479601 0.879033 0.833518 0.089497
H3    H     H_    0.361849 0.132524 0.787806 0.209417
H4    H     H_    0.528329 0.097710 0.829456 0.153334
H5    H     H_    0.410622 0.328337 0.129472 0.144975
H6    H     H_    0.409613 0.329378 0.869924 0.138944
H7    H     H_    0.730222 0.597301 0.878419 0.217004
H8    H     H_    0.657948 0.753870 0.874445 0.186291
H9    H     H_    0.732545 0.600238 0.127343 0.210605
H10   H     H_    0.656307 0.755240 0.125123 0.186637
H11   H     H_    0.886745 0.510779 0.273008 0.158570
H12   H     H_    0.908426 0.598479 0.765304 0.193813
H13   H     H_    0.893063 0.438029 0.839278 0.202627
H14   H     H_    0.126688 0.577180 0.771327 0.194214
H15   H     H_    0.113119 0.414998 0.835229 0.197290
H16   H     H_    0.544872 0.111879 0.277716 0.158860
H17   H     H_    0.539057 0.887505 0.277868 0.154900
N1    N     N_R   0.500790 0.500930 0.147930 -0.186978
N2    N     N_R   0.500790 0.500890 0.852020 -0.186392
O1    O     O_R   0.500000 0.319640 0.618810 -0.584196
O2    O     O_R   0.500010 0.319680 0.381230 -0.593866
O3    O     O_R   0.319650 0.499970 0.618810 -0.590115
O4    O     O_R   0.319660 0.500010 0.381230 -0.584302
O5    O     O_R   0.499990 0.680320 0.618770 -0.600459
O6    O     O_R   0.500000 0.680360 0.381190 -0.577613
O7    O     O_R   0.680340 0.499990 0.618770 -0.574655
O8    O     O_R   0.680350 0.500030 0.381190 -0.584529
O9    O     O_3   0.289559 0.920213 0.797601 -0.596368
C27   C     C_3   0.229333 0.828849 0.718172 0.078999
H18   H     H_    0.165312 0.780843 0.789693 0.149695
H19   H     H_    0.292527 0.757650 0.676605 0.151362
C28   C     C_3   0.151864 0.889550 0.601445 -0.357259
H20   H     H_    0.080432 0.949630 0.649188 0.224762
H21   H     H_    0.211022 0.948088 0.534512 0.230819
C29   C     C_3   0.088589 0.794130 0.509281 -0.909432
H22   H     H_    0.029035 0.841177 0.430161 0.259374
H23   H     H_    0.159033 0.738894 0.453478 0.256532
H24   H     H_    0.030042 0.732635 0.573476 0.261274

loop_
_geom_bond_atom_site_label_1
_geom_bond_atom_site_label_2
_ccdc_geom_bond_type
Cu1   O1    S    
C2    C22   A    
C12   O3    A    
C23   C24   A    
C29   H23   S    
C1    O1    A    
C6    C7    A    
C19   H10   S    
C4    C22   S    
C18   H7    S    
C25   H11   S    
C9    C20   S    
C5    C13   S    
C14   C17   A    
Cu1   O3    S    
C21   C26   S    
C17   C18   S    
C29   H24   S    
C5    C10   A    
C2    C26   A    
C7    H16   S    
O9    C27   S    
Cu2   O6    S    
C11   C13   S    
C12   C23   S    
Cu2   N1    S    
C27   H18   S    
C5    C6    A    
C4    H14   S    
C28   H20   S    
C28   C29   S    
C15   C16   A    
C16   N2    A    
C4    H15   S    
Cu2   O8    S    
C13   H3    S    
C3    H12   S    
C2    C3    S    
Cu1   O7    S    
C22   C23   A    
C21   O7    A    
Cu2   O4    S    
C27   H19   S    
C10   C11   S    
C11   O9    S    
C1    C6    S    
C20   O5    A    
C17   N2    A    
C7    C8    A    
C12   O4    A    
C24   C25   A    
Cu1   O5    S    
C28   H21   S    
C18   C19   S    
C9    C10   A    
Cu1   N2    S    
Cu1   Cu2   S    
C21   O8    A    
C8    H17   S    
C20   O6    A    
C27   C28   S    
C19   H9    S    
C15   N1    A    
C16   H6    S    
C25   C26   A    
C24   H1    S    
C13   H4    S    
C18   H8    S    
C14   C19   S    
C15   H5    S    
C3    H13   S    
C3    C4    S    
C29   H22   S    
C11   H2    S    
C8    C9    A    
C14   N1    A    
Cu2   O2    S    
C1    O2    A    
