data_mof_unit_42612.cif
_audit_creation_date              2012-12-10T17:45:32-0500
_audit_creation_method            fapswitch 2.2
_symmetry_space_group_name_H-M    P1
_symmetry_Int_Tables_number       1
_space_group_crystal_system       triclinic
_cell_length_a                    11.518045
_cell_length_b                    10.627851
_cell_length_c                    9.939613
_cell_angle_alpha                 89.865203
_cell_angle_beta                  90.083185
_cell_angle_gamma                 91.923394
_cell_volume                      1216.03853999

loop_
_atom_site_label
_atom_site_type_symbol
_atom_type_description
_atom_site_fract_x
_atom_site_fract_y
_atom_site_fract_z
_atom_type_partial_charge
C1    C     C_R   0.501687 0.260921 0.500230 0.853340
C2    C     C_R   0.810984 0.075521 0.617815 -0.040601
C3    C     C_R   0.812229 0.942621 0.610261 0.016502
C4    C     C_R   0.710418 0.875503 0.571501 -0.203874
C5    C     C_R   0.607713 0.937781 0.537540 0.056696
C6    C     C_R   0.608556 0.068996 0.539466 0.110591
C7    C     C_R   0.506649 0.128920 0.500841 -0.111525
C8    C     C_R   0.405670 0.063459 0.462977 -0.198443
C9    C     C_R   0.401999 0.933805 0.463850 -0.020148
C10   C     C_R   0.503897 0.872167 0.499600 -0.168265
C11   C     C_R   0.343616 0.338123 0.139282 -0.201019
C12   C     C_R   0.282111 0.499504 0.500004 0.866846
C13   C     C_R   0.263514 0.260510 0.069152 0.021456
C14   C     C_R   0.266948 0.259499 0.929134 -0.223110
C15   C     C_R   0.346296 0.336620 0.860051 -0.158003
C16   C     C_R   0.424152 0.419413 0.927768 0.166149
C17   C     C_R   0.423624 0.419710 0.072052 0.156088
C18   C     C_R   0.572942 0.576814 0.071346 -0.099928
C19   C     C_R   0.572812 0.576900 0.928411 -0.093847
C20   C     C_R   0.500768 0.739265 0.499843 0.834139
C21   C     C_R   0.717893 0.500408 0.500031 0.874720
C22   C     C_1   0.161629 0.500188 0.500220 -0.185783
C23   C     C_1   0.059365 0.500421 0.500248 0.019814
C24   C     C_1   0.940669 0.500285 0.499982 0.038287
C25   C     C_1   0.838397 0.500247 0.500004 -0.161702
C26   C     C_R   0.710406 0.136912 0.578974 -0.271297
H1    H     H_    0.329161 0.114569 0.434971 0.176444
H2    H     H_    0.205995 0.200848 0.872133 0.193012
H3    H     H_    0.342832 0.329676 0.753383 0.210726
H4    H     H_    0.632305 0.639920 0.874805 0.164550
H5    H     H_    0.711737 0.238643 0.582598 0.139195
H6    H     H_    0.712879 0.774022 0.565405 0.172171
H7    H     H_    0.632553 0.639731 0.124765 0.151354
H8    H     H_    0.341285 0.331850 0.246069 0.200855
N1    N     N_R   0.498930 0.498800 0.142780 -0.115769
N2    N     N_R   0.498900 0.498720 0.857170 -0.120646
O1    O     O_R   0.500000 0.316780 0.614690 -0.633699
O2    O     O_R   0.499990 0.316750 0.385360 -0.627853
O3    O     O_R   0.334450 0.500030 0.614670 -0.618558
O4    O     O_R   0.334440 0.500000 0.385330 -0.640428
O5    O     O_R   0.500010 0.683250 0.614640 -0.602425
O6    O     O_R   0.500000 0.683220 0.385310 -0.618139
O7    O     O_R   0.665560 0.500000 0.614670 -0.602263
O8    O     O_R   0.665550 0.499970 0.385330 -0.608348
Zn1   Zn    Zn3+2 0.500010 0.500020 0.653130 0.953388
Zn2   Zn    Zn3+2 0.499990 0.499980 0.346870 0.938701
C27   C     C_2   0.909765 0.155078 0.669507 0.350046
H9    H     H_    0.915014 0.254602 0.644830 0.078097
O9    O     O_2   0.982650 0.113242 0.745133 -0.598964
C28   C     C_2   0.919307 0.872100 0.635263 0.439962
H10   H     H_    0.004352 0.917762 0.624868 0.146095
O10   O     O_2   0.913798 0.760798 0.666111 -0.586546
C29   C     C_2   0.290914 0.864519 0.431100 0.408616
H11   H     H_    0.287254 0.763008 0.421656 0.073494
O11   O     O_2   0.200941 0.920377 0.415979 -0.596005
C30   C     C_R   0.172658 0.184538 0.141689 0.115643
C31   C     C_R   0.111523 0.237583 0.248785 -0.167120
C32   C     C_R   0.021482 0.169263 0.312547 -0.103950
C33   C     C_R   0.991426 0.047247 0.270287 -0.046956
C34   C     C_R   0.051764 0.993211 0.164370 -0.043834
C35   C     C_R   0.142023 0.061215 0.100339 -0.097279
H12   H     H_    0.131312 0.333150 0.280411 0.136715
H13   H     H_    0.974110 0.211654 0.393608 0.115452
H14   H     H_    0.921509 0.994585 0.319628 0.116837
H15   H     H_    0.028678 0.898487 0.131925 0.135109
H16   H     H_    0.187879 0.017508 0.018714 0.135236

loop_
_geom_bond_atom_site_label_1
_geom_bond_atom_site_label_2
_ccdc_geom_bond_type
N2    Zn1   S    
C20   O6    A    
C23   C24   S    
C12   O4    A    
C6    C7    A    
C2    C27   S    
C29   H11   S    
C21   O8    A    
C11   C13   A    
C9    C10   A    
C28   O10   D    
C27   H9    S    
C14   C15   A    
C19   H4    S    
C1    O1    A    
O3    Zn1   S    
C13   C30   S    
C14   H2    S    
C12   O3    A    
C28   H10   S    
C31   C32   A    
C7    C8    A    
C2    C26   A    
C6    C26   A    
C13   C14   A    
C16   N2    A    
O4    Zn2   S    
O7    Zn1   S    
C33   H14   S    
C4    H6    S    
C1    O2    A    
C20   O5    A    
C4    C5    A    
C5    C10   A    
C3    C28   S    
O8    Zn2   S    
C34   H15   S    
C15   H3    S    
C2    C3    A    
C19   N2    A    
C29   O11   D    
O6    Zn2   S    
C5    C6    A    
C18   H7    S    
O2    Zn2   S    
C9    C29   S    
C30   C31   A    
O1    Zn1   S    
C15   C16   A    
C12   C22   S    
C33   C34   A    
C24   C25   T    
C27   O9    D    
C18   C19   A    
C18   N1    A    
C32   H13   S    
C8    H1    S    
C21   C25   S    
C30   C35   A    
C34   C35   A    
C1    C7    S    
O5    Zn1   S    
C17   N1    A    
C31   H12   S    
C32   C33   A    
C22   C23   T    
N1    Zn2   S    
C26   H5    S    
C35   H16   S    
C11   H8    S    
C21   O7    A    
C3    C4    A    
C16   C17   A    
C10   C20   S    
C8    C9    A    
C11   C17   A    
