data_mof_unit_47364.cif
_audit_creation_date              2012-10-26T19:54:46-0400
_audit_creation_method            fapswitch 2.2
_symmetry_space_group_name_H-M    P1
_symmetry_Int_Tables_number       1
_space_group_crystal_system       triclinic
_cell_length_a                    17.696473
_cell_length_b                    16.460926
_cell_length_c                    10.644479
_cell_angle_alpha                 91.005827
_cell_angle_beta                  89.256486
_cell_angle_gamma                 89.529596
_cell_volume                      3099.89105276

loop_
_atom_site_label
_atom_site_type_symbol
_atom_type_description
_atom_site_fract_x
_atom_site_fract_y
_atom_site_fract_z
_atom_type_partial_charge
C1    C     C_R   0.354064 0.500497 0.500360 0.529800
C2    C     C_R   0.546897 0.171465 0.582317 -0.044748
C3    C     C_R   0.544796 0.742336 0.583036 0.355228
C4    C     C_R   0.454870 0.257125 0.418198 0.337707
C5    C     C_R   0.455471 0.742504 0.418104 0.345930
C6    C     C_R   0.544590 0.258153 0.582594 0.358151
C7    C     C_R   0.499301 0.873111 0.503724 -0.012489
C8    C     C_R   0.497085 0.127133 0.504630 -0.012169
C9    C     C_1   0.498213 0.962956 0.504802 -0.020672
C10   C     C_1   0.497559 0.037306 0.505154 -0.021161
C11   C     C_R   0.508064 0.499083 0.260070 0.544590
C12   C     C_R   0.644731 0.499636 0.506213 0.531719
C13   C     C_R   0.486714 0.500918 0.737240 0.525065
C14   C     C_R   0.552979 0.643709 0.101111 0.046698
C15   C     C_R   0.427727 0.359242 0.888332 0.042994
C16   C     C_R   0.449889 0.652432 0.902060 0.052593
C17   C     C_R   0.529475 0.345858 0.088036 0.059446
C18   C     C_R   0.532011 0.720770 0.053849 0.026534
C19   C     C_R   0.445705 0.281266 0.934802 0.029661
C20   C     C_R   0.476997 0.725138 0.958128 0.028045
C21   C     C_R   0.499863 0.274471 0.031295 0.028536
C22   C     C_R   0.477842 0.576246 0.942366 -0.001572
C23   C     C_R   0.884092 0.497388 0.575390 0.038383
C24   C     C_R   0.502838 0.423690 0.051929 0.001495
C25   C     C_R   0.515996 0.572550 0.056562 -0.002732
C26   C     C_R   0.465180 0.428731 0.937392 -0.000705
C27   C     C_R   0.468010 0.503013 0.873580 -0.053891
C28   C     C_R   0.516877 0.497328 0.120458 -0.053394
C29   C     C_R   0.834435 0.533137 0.665564 0.013688
C30   C     C_R   0.151412 0.427314 0.558991 0.017402
C31   C     C_R   0.152431 0.575499 0.581614 0.020934
C32   C     C_R   0.856322 0.459561 0.465320 0.025143
C33   C     C_R   0.755315 0.530634 0.645950 0.000636
C34   C     C_R   0.113996 0.501204 0.587947 0.041180
C35   C     C_R   0.227310 0.427872 0.515303 -0.020365
C36   C     C_R   0.228495 0.576649 0.538186 -0.020995
C37   C     C_R   0.777828 0.461881 0.441871 -0.007354
C38   C     C_R   0.727300 0.498406 0.530907 0.029506
C39   C     C_R   0.268872 0.501894 0.515636 -0.011337
C40   C     C_3   0.528328 0.192043 0.073543 -0.414165
C41   C     C_3   0.447090 0.806196 0.912617 -0.412673
C42   C     C_3   0.411055 0.205115 0.878114 -0.405150
C43   C     C_3   0.565955 0.798332 0.106919 -0.405566
C44   C     C_3   0.621532 0.636388 0.184251 -0.361971
C45   C     C_1   0.964726 0.500854 0.593467 -0.036206
C46   C     C_3   0.363786 0.369275 0.796105 -0.363682
C47   C     C_3   0.384909 0.656690 0.810589 -0.357480
C48   C     C_3   0.598681 0.338548 0.168605 -0.361939
C49   C     C_3   0.867804 0.572441 0.782420 -0.397297
C50   C     C_3   0.110197 0.347411 0.574704 -0.403789
C51   C     C_3   0.112198 0.653795 0.622048 -0.399255
C52   C     C_3   0.909803 0.416558 0.372247 -0.396813
C53   C     C_3   0.701850 0.558257 0.751007 -0.353120
C54   C     C_3   0.260844 0.351184 0.455774 -0.362375
C55   C     C_3   0.263580 0.657433 0.504933 -0.361971
C56   C     C_1   0.032554 0.501862 0.597625 -0.037878
C57   C     C_3   0.746489 0.425826 0.322260 -0.400446
C58   C     C_3   0.603536 0.873247 0.666772 -0.422610
C59   C     C_3   0.390535 0.126493 0.345918 -0.425913
C60   C     C_3   0.392175 0.874819 0.349257 -0.420569
C61   C     C_3   0.603676 0.125829 0.660243 -0.415417
C62   C     C_R   0.547903 0.829198 0.583201 -0.047573
C63   C     C_R   0.449006 0.170605 0.423761 -0.049748
C64   C     C_R   0.450734 0.829106 0.423497 -0.046337
Cu1   Cu    Cu3+1 0.500000 0.580420 0.500000 1.012351
Cu2   Cu    Cu3+1 0.500000 0.419580 0.500000 1.016970
H1    H     H_    0.527791 0.189635 0.177559 0.138484
H2    H     H_    0.606658 0.789057 0.183335 0.126840
H3    H     H_    0.596148 0.830828 0.031022 0.119503
H4    H     H_    0.520481 0.837794 0.147672 0.128205
H5    H     H_    0.610246 0.665216 0.277736 0.169346
H6    H     H_    0.638622 0.572467 0.197747 0.102917
H7    H     H_    0.670700 0.666107 0.138963 0.106764
H8    H     H_    0.349159 0.433785 0.779427 0.112558
H9    H     H_    0.379272 0.339788 0.704827 0.157433
H10   H     H_    0.311648 0.341207 0.834172 0.111823
H11   H     H_    0.403303 0.687971 0.724178 0.151351
H12   H     H_    0.494123 0.140097 0.040898 0.119807
H13   H     H_    0.362707 0.596110 0.783862 0.118184
H14   H     H_    0.336653 0.690663 0.854279 0.104545
H15   H     H_    0.623247 0.398658 0.187058 0.110155
H16   H     H_    0.584851 0.309188 0.258932 0.164213
H17   H     H_    0.643290 0.302528 0.118311 0.105033
H18   H     H_    0.898568 0.525818 0.836476 0.131390
H19   H     H_    0.908131 0.620394 0.754373 0.127840
H20   H     H_    0.825910 0.601949 0.846656 0.120250
H21   H     H_    0.091144 0.324207 0.481926 0.122891
H22   H     H_    0.147916 0.301963 0.618411 0.124538
H23   H     H_    0.587024 0.181893 0.038437 0.122064
H24   H     H_    0.060170 0.353193 0.638204 0.134931
H25   H     H_    0.149737 0.691253 0.682079 0.123233
H26   H     H_    0.095471 0.688411 0.538122 0.128309
H27   H     H_    0.060735 0.643156 0.679835 0.129846
H28   H     H_    0.909966 0.448908 0.281591 0.126161
H29   H     H_    0.969174 0.412780 0.403020 0.136762
H30   H     H_    0.891478 0.352793 0.357322 0.125526
H31   H     H_    0.715592 0.525748 0.838475 0.111574
H32   H     H_    0.707148 0.624687 0.767465 0.146992
H33   H     H_    0.641989 0.544894 0.732719 0.189822
H34   H     H_    0.453917 0.809471 0.809152 0.135271
H35   H     H_    0.218008 0.306217 0.426791 0.105027
H36   H     H_    0.290206 0.366961 0.367017 0.190321
H37   H     H_    0.299674 0.320991 0.521585 0.157263
H38   H     H_    0.222543 0.708175 0.498637 0.106219
H39   H     H_    0.305964 0.675531 0.575378 0.147082
H40   H     H_    0.289184 0.652390 0.409601 0.199343
H41   H     H_    0.789053 0.403935 0.252493 0.122304
H42   H     H_    0.710560 0.373312 0.346155 0.151539
H43   H     H_    0.713305 0.473236 0.275006 0.103029
H44   H     H_    0.607349 0.938980 0.648206 0.138925
H45   H     H_    0.386249 0.812544 0.937694 0.121597
H46   H     H_    0.586851 0.866804 0.766945 0.113333
H47   H     H_    0.661105 0.847368 0.651060 0.136370
H48   H     H_    0.383488 0.062208 0.371947 0.139762
H49   H     H_    0.334435 0.156225 0.360230 0.126174
H50   H     H_    0.406485 0.127592 0.244858 0.116109
H51   H     H_    0.359925 0.916695 0.413299 0.131304
H52   H     H_    0.420409 0.910770 0.275215 0.124058
H53   H     H_    0.349518 0.834899 0.305333 0.131752
H54   H     H_    0.635585 0.081916 0.599084 0.134658
H55   H     H_    0.646667 0.165440 0.703856 0.139615
H56   H     H_    0.475858 0.860021 0.952123 0.121283
H57   H     H_    0.573787 0.092236 0.735270 0.120377
H58   H     H_    0.603059 0.730154 0.736447 0.300161
H59   H     H_    0.396456 0.266356 0.263987 0.304920
H60   H     H_    0.414332 0.728280 0.252021 0.308394
H61   H     H_    0.586309 0.277278 0.746673 0.304532
H62   H     H_    0.371824 0.216139 0.800165 0.120859
H63   H     H_    0.456404 0.164860 0.838691 0.130656
H64   H     H_    0.378793 0.172668 0.951695 0.120649
N1    N     N_R   0.500000 0.701220 0.500000 -0.187252
N2    N     N_R   0.500000 0.298780 0.500000 -0.188646
O1    O     O_R   0.391260 0.567930 0.500000 -0.479059
O2    O     O_3   0.415290 0.301835 0.332259 -0.678971
O3    O     O_3   0.415341 0.698004 0.331520 -0.677426
O4    O     O_3   0.588202 0.303301 0.663487 -0.652878
O5    O     O_R   0.608740 0.432070 0.500000 -0.464578
O6    O     O_R   0.608740 0.567930 0.500000 -0.470817
O7    O     O_R   0.391260 0.432070 0.500000 -0.480483
O8    O     O_R   0.500000 0.567910 0.319660 -0.447292
O9    O     O_R   0.500000 0.432090 0.680340 -0.455740
O10   O     O_R   0.500000 0.567910 0.680340 -0.465444
O11   O     O_R   0.500000 0.432090 0.319660 -0.449590
O12   O     O_3   0.587933 0.696810 0.663094 -0.670854

loop_
_geom_bond_atom_site_label_1
_geom_bond_atom_site_label_2
_ccdc_geom_bond_type
H59   O2    S    
C58   C62   S    
C34   C56   S    
C23   C45   S    
C14   C18   A    
C54   H35   S    
C17   C48   S    
C47   H13   S    
C46   H10   S    
C20   C41   S    
C52   H30   S    
C4    N2    A    
Cu2   O9    S    
C29   C49   S    
C53   H33   S    
C25   C28   A    
C15   C19   A    
Cu2   O5    S    
C4    C63   A    
C26   C27   A    
C30   C35   A    
C55   H39   S    
C58   H46   S    
C23   C29   A    
C49   H18   S    
C14   C44   S    
C19   C21   A    
C24   C26   A    
C31   C36   A    
C29   C33   A    
H58   O12   S    
C48   H15   S    
C52   H29   S    
C61   H55   S    
C32   C52   S    
C6    O4    S    
C51   H25   S    
Cu1   O8    S    
C50   H24   S    
C57   H43   S    
Cu2   O7    S    
C45   C56   T    
C43   H2    S    
C40   H1    S    
C58   H47   S    
C60   H52   S    
C13   O9    A    
C40   H23   S    
C9    C10   T    
C13   C27   S    
C1    O7    A    
C19   C42   S    
C42   H62   S    
C30   C50   S    
C43   H3    S    
C35   C54   S    
C2    C6    A    
C47   H14   S    
C1    O1    A    
C16   C47   S    
C46   H9    S    
Cu1   N1    S    
Cu2   N2    S    
C33   C53   S    
C41   H34   S    
C17   C24   A    
C30   C34   A    
C55   H40   S    
C49   H19   S    
C54   H37   S    
H61   O4    S    
C6    N2    A    
C59   H50   S    
C15   C26   A    
Cu2   O11   S    
C53   H31   S    
C13   O10   A    
C55   H38   S    
C22   C25   A    
C17   C21   A    
C3    N1    A    
C5    C64   A    
C44   H5    S    
C41   H56   S    
C35   C39   A    
C11   O8    A    
C7    C62   A    
C37   C38   A    
C51   H26   S    
C16   C20   A    
C31   C34   A    
C60   H51   S    
C42   H64   S    
C32   C37   A    
C52   H28   S    
C50   H21   S    
C51   H27   S    
Cu1   O6    S    
C8    C10   S    
C57   H41   S    
H60   O3    S    
C43   H4    S    
C22   C27   A    
C12   O6    A    
C47   H11   S    
C46   H8    S    
C4    O2    S    
C3    C62   A    
C5    O3    S    
C16   C22   A    
C58   H44   S    
C49   H20   S    
C54   H36   S    
C36   C39   A    
C2    C8    A    
C3    O12   S    
C24   C28   A    
C31   C51   S    
C18   C20   A    
C2    C61   S    
C50   H22   S    
C53   H32   S    
C59   C63   S    
C33   C38   A    
C48   H17   S    
C61   H57   S    
C60   C64   S    
C23   C32   A    
C36   C55   S    
C18   C43   S    
Cu1   O10   S    
C21   C40   S    
C11   C28   S    
C59   H48   S    
C48   H16   S    
C44   H6    S    
C42   H63   S    
C40   H12   S    
C14   C25   A    
C12   C38   S    
C44   H7    S    
C37   C57   S    
C7    C64   A    
C1    C39   S    
C8    C63   A    
C7    C9    S    
C5    N1    A    
C57   H42   S    
C59   H49   S    
Cu1   Cu2   S    
C41   H45   S    
C12   O5    A    
C60   H53   S    
C15   C46   S    
C11   O11   A    
Cu1   O1    S    
C61   H54   S    
