data_mof_unit_24850.cif
_audit_creation_date              2012-12-10T18:11:44-0500
_audit_creation_method            fapswitch 2.2
_symmetry_space_group_name_H-M    P1
_symmetry_Int_Tables_number       1
_space_group_crystal_system       triclinic
_cell_length_a                    10.496607
_cell_length_b                    12.67618
_cell_length_c                    13.049728
_cell_angle_alpha                 81.156585
_cell_angle_beta                  91.763559
_cell_angle_gamma                 102.288581
_cell_volume                      1676.4007569

loop_
_atom_site_label
_atom_site_type_symbol
_atom_type_description
_atom_site_fract_x
_atom_site_fract_y
_atom_site_fract_z
_atom_type_partial_charge
C1    C     C_R   0.490000 0.438493 0.691447 0.836694
C2    C     C_R   0.503655 0.447971 0.974962 0.083748
C3    C     C_R   0.549374 0.465915 0.872236 0.095746
C4    C     C_R   0.741910 0.500111 0.501181 0.838505
C5    C     C_R   0.547158 0.530629 0.036996 0.083972
C6    C     C_R   0.650435 0.620300 0.002539 0.181482
C7    C     C_R   0.706957 0.628138 0.905759 -0.258782
C8    C     C_R   0.657084 0.551858 0.841222 -0.207621
C9    C     C_R   0.489508 0.526984 0.132262 -0.255427
C10   C     C_R   0.646784 0.687045 0.166416 -0.209278
C11   C     C_R   0.484108 0.398569 0.802300 -0.112578
C12   C     C_3   0.066723 0.595586 0.523860 -0.140132
C13   C     C_R   0.267689 0.080521 0.396798 -0.296572
C14   C     C_R   0.667391 0.800830 0.620732 0.031535
C15   C     C_R   0.701429 0.903746 0.650489 -0.251400
C16   C     C_R   0.516783 0.561418 0.308766 0.867443
C17   C     C_R   0.631939 0.983173 0.611686 -0.174884
C18   C     C_R   0.527122 0.959686 0.542812 -0.014962
C19   C     C_R   0.494326 0.853228 0.514880 0.129355
C20   C     C_R   0.456794 0.038916 0.496907 -0.018831
C21   C     C_R   0.338388 0.004824 0.444726 0.139859
C22   C     C_R   0.298449 0.897134 0.430663 -0.321982
C23   C     C_3   0.965502 0.514574 0.596406 -0.185715
C24   C     C_R   0.388831 0.829950 0.444537 0.215190
C25   C     C_R   0.501131 0.151350 0.496414 -0.041240
C26   C     C_R   0.318284 0.190256 0.396639 0.015533
C27   C     C_R   0.257840 0.499216 0.500528 0.866986
C28   C     C_3   0.932386 0.402488 0.480490 -0.128081
C29   C     C_3   0.023557 0.417901 0.574512 -0.178755
C30   C     C_3   0.122056 0.498711 0.501765 0.027620
C31   C     C_3   0.033495 0.483513 0.407884 -0.188393
C32   C     C_3   0.975634 0.580162 0.429816 -0.194139
C33   C     C_3   0.293236 0.739132 0.295153 -0.795474
C34   C     C_3   0.877219 0.499502 0.502344 0.045587
C35   C     C_R   0.697413 0.699419 0.066707 -0.200676
C36   C     C_R   0.545346 0.598247 0.199710 -0.061624
C37   C     C_R   0.396499 0.301024 0.839053 -0.197025
C38   C     C_R   0.366557 0.274379 0.943945 -0.152551
C39   C     C_R   0.416531 0.348085 0.011315 -0.191359
H1    H     H_    0.047682 0.351823 0.633158 0.132898
H2    H     H_    0.588836 0.184722 0.535795 0.121041
H3    H     H_    0.721371 0.739089 0.650788 0.126590
H4    H     H_    0.873975 0.323456 0.462860 0.141117
H5    H     H_    0.659912 0.061376 0.638282 0.133828
H6    H     H_    0.781371 0.921838 0.703801 0.141534
H7    H     H_    0.065776 0.470886 0.331283 0.130824
H8    H     H_    0.951463 0.646251 0.371178 0.131626
H9    H     H_    0.124948 0.674602 0.541650 0.153564
H10   H     H_    0.933055 0.527419 0.672879 0.125055
H11   H     H_    0.691387 0.742589 0.218950 0.145247
H12   H     H_    0.404601 0.465231 0.158734 0.138378
H13   H     H_    0.788371 0.694141 0.879235 0.138921
H14   H     H_    0.777125 0.767503 0.041682 0.131859
H15   H     H_    0.486572 0.808775 0.319690 0.225237
H16   H     H_    0.316468 0.680593 0.247293 0.228601
H17   H     H_    0.272961 0.810859 0.241863 0.222687
H18   H     H_    0.205779 0.698082 0.341907 0.241809
H19   H     H_    0.347401 0.247513 0.786244 0.157088
H20   H     H_    0.388007 0.323612 0.091611 0.132219
H21   H     H_    0.299648 0.198657 0.972429 0.139393
H22   H     H_    0.704382 0.559990 0.767054 0.147551
H23   H     H_    0.264270 0.250334 0.361736 0.128767
H24   H     H_    0.210044 0.874659 0.386936 0.163676
H25   H     H_    0.176645 0.055330 0.357016 0.137192
N1    N     N_R   0.432930 0.222190 0.444670 -0.103556
N2    N     N_R   0.566370 0.776980 0.554790 -0.123325
N3    N     N_2   0.402870 0.772505 0.361898 -0.228137
O1    O     O_R   0.467970 0.366730 0.627150 -0.612765
O2    O     O_R   0.510820 0.544830 0.662520 -0.606913
O3    O     O_R   0.664630 0.410960 0.482340 -0.625098
O4    O     O_R   0.707470 0.589060 0.517710 -0.635483
O5    O     O_R   0.489180 0.455170 0.337480 -0.610053
O6    O     O_R   0.532030 0.633270 0.372850 -0.603475
O7    O     O_R   0.292530 0.410940 0.482290 -0.628602
O8    O     O_R   0.335370 0.589040 0.517660 -0.593122
Zn1   Zn    Zn3+2 0.471390 0.381080 0.476380 0.931222
Zn2   Zn    Zn3+2 0.528610 0.618920 0.523620 0.940828

loop_
_geom_bond_atom_site_label_1
_geom_bond_atom_site_label_2
_ccdc_geom_bond_type
C33   H16   S    
C35   H14   S    
O2    Zn2   S    
C9    H12   S    
O5    Zn1   S    
C4    O3    A    
C7    C8    A    
C12   C23   S    
C37   C38   A    
N1    Zn1   S    
O7    Zn1   S    
C23   C29   S    
C28   C29   S    
C7    H13   S    
C5    C6    A    
C23   H10   S    
C20   C25   A    
C1    O1    A    
C6    C35   A    
C19   N2    A    
C18   C19   A    
C11   C37   A    
C24   N3    S    
C22   H24   S    
C2    C39   A    
C31   H7    S    
C16   O5    A    
C9    C36   A    
C10   C35   A    
C27   O7    A    
C37   H19   S    
C12   H9    S    
C8    H22   S    
C14   H3    S    
C33   H17   S    
C28   C34   S    
C21   C22   A    
C12   C32   S    
C27   C30   S    
C27   O8    A    
C4    C34   S    
C16   O6    A    
C25   N1    A    
C3    C8    A    
C25   H2    S    
H15   N3    S    
C1    O2    A    
C32   C34   S    
C5    C9    A    
C29   C30   S    
C31   C32   S    
C30   C31   S    
C23   C34   S    
C39   H20   S    
C17   C18   A    
C14   N2    A    
C13   C21   A    
O8    Zn2   S    
C38   H21   S    
O3    Zn1   S    
C32   H8    S    
C22   C24   A    
C13   C26   A    
C2    C5    A    
C15   H6    S    
C10   H11   S    
O4    Zn2   S    
C33   N3    S    
C15   C17   A    
N2    Zn2   S    
C33   H18   S    
C12   C30   S    
C26   N1    A    
C28   C31   S    
C6    C7    A    
O1    Zn1   S    
C28   H4    S    
C2    C3    A    
C26   H23   S    
C17   H5    S    
C16   C36   S    
C38   C39   A    
C13   H25   S    
C29   H1    S    
C19   C24   A    
C18   C20   A    
C3    C11   A    
C20   C21   A    
O6    Zn2   S    
C14   C15   A    
C10   C36   A    
C1    C11   S    
C4    O4    A    
