data_mof_unit_48981.cif
_audit_creation_date              2012-12-11T14:29:40-0500
_audit_creation_method            fapswitch 2.2
_symmetry_space_group_name_H-M    P1
_symmetry_Int_Tables_number       1
_space_group_crystal_system       triclinic
_cell_length_a                    6.934601
_cell_length_b                    14.752079
_cell_length_c                    16.263111
_cell_angle_alpha                 90.435268
_cell_angle_beta                  89.856122
_cell_angle_gamma                 89.935355
_cell_volume                      1663.65835786

loop_
_atom_site_label
_atom_site_type_symbol
_atom_type_description
_atom_site_fract_x
_atom_site_fract_y
_atom_site_fract_z
_atom_type_partial_charge
O1    O     O_R   0.494400 0.416610 0.413880 -0.539340
O2    O     O_R   0.823920 0.406790 0.585520 -0.549557
O3    O     O_R   0.994250 0.583390 0.586120 -0.541450
C1    C     C_R   0.654257 0.383070 0.611566 0.737814
O4    O     O_R   0.824110 0.405730 0.414490 -0.543655
O5    O     O_R   0.994440 0.582310 0.413870 -0.546362
C2    C     C_R   0.654660 0.383420 0.386671 0.767857
O6    O     O_R   0.494210 0.417690 0.586130 -0.540053
O7    O     O_3   0.660810 0.557940 0.500000 -0.367844
V1    V     V_3+5 0.935650 0.489250 0.500000 1.451164
O8    O     O_R   0.324160 0.593210 0.414480 -0.522049
C3    C     C_R   0.156260 0.612357 0.384431 0.700341
O9    O     O_R   0.323970 0.594270 0.585510 -0.537288
C4    C     C_R   0.154220 0.616015 0.613954 0.691003
V2    V     V_3+5 0.435660 0.510750 0.500000 1.492326
O10   O     O_3   0.160630 0.442060 0.500000 -0.379061
C5    C     C_R   0.050845 0.562723 0.779542 -0.241331
C6    C     C_R   0.023755 0.532184 0.859609 0.315364
C7    C     C_R   0.069690 0.588701 0.926063 0.273032
C8    C     C_R   0.130158 0.678062 0.911597 -0.190208
C9    C     C_R   0.118323 0.715257 0.831302 -0.017832
C10   C     C_R   0.101641 0.653705 0.763821 0.019845
C11   C     C_R   0.128213 0.810312 0.816102 -0.143885
C12   C     C_R   0.153052 0.840757 0.734031 0.074610
C13   C     C_R   0.165368 0.777068 0.667790 0.058687
C14   C     C_R   0.140265 0.683306 0.682667 -0.130682
C15   C     C_R   0.168630 0.934266 0.716419 -0.167682
C16   C     C_R   0.197834 0.964156 0.636251 -0.162124
C17   C     C_R   0.211905 0.901928 0.571634 0.019430
C18   C     C_R   0.195647 0.809252 0.587069 -0.180341
H1    H     H_    0.028121 0.514629 0.730001 0.152469
H2    H     H_    0.159053 0.985413 0.764304 0.109929
H3    H     H_    0.209516 0.036204 0.624709 0.119405
H4    H     H_    0.204619 0.762880 0.535228 0.094497
C19   C     C_2   0.995686 0.715576 0.286522 -0.150809
C20   C     C_2   0.154496 0.668585 0.309328 0.129448
H5    H     H_    0.865795 0.710402 0.323647 0.139302
C21   C     C_2   0.979943 0.772154 0.211333 -0.055844
C22   C     C_2   0.122933 0.826347 0.185248 -0.232580
H6    H     H_    0.841529 0.773549 0.180273 0.169059
H7    H     H_    0.256327 0.830215 0.219718 0.178289
C23   C     C_2   0.763732 0.198689 0.772419 -0.151394
C24   C     C_2   0.616747 0.190036 0.826771 0.149082
H8    H     H_    0.879668 0.149094 0.772981 0.110063
C25   C     C_2   0.785650 0.274154 0.712971 -0.048252
C26   C     C_2   0.636270 0.308933 0.671304 -0.271009
H9    H     H_    0.930898 0.297613 0.700007 0.158540
H10   H     H_    0.493475 0.280346 0.679236 0.164352
C27   C     C_2   0.779688 0.197867 0.225167 -0.014132
C28   C     C_2   0.620381 0.181626 0.178184 -0.295276
H11   H     H_    0.491471 0.222109 0.186984 0.153677
C29   C     C_2   0.790688 0.271564 0.288237 -0.141727
C30   C     C_2   0.637189 0.313557 0.321625 -0.285842
H12   H     H_    0.933492 0.289453 0.310539 0.143704
H13   H     H_    0.492297 0.295026 0.303254 0.140372
O11   O     O_R   0.770210 0.079270 0.910680 -0.548022
O12   O     O_R   0.440150 0.091160 0.082270 -0.526228
O13   O     O_R   0.269970 0.914530 0.082860 -0.528504
C31   C     C_R   0.609441 0.112142 0.111585 0.762381
O14   O     O_R   0.440480 0.090100 0.911240 -0.527478
O15   O     O_R   0.270310 0.913460 0.910610 -0.543192
C32   C     C_R   0.609438 0.113484 0.884710 0.690398
O16   O     O_R   0.769870 0.080340 0.082930 -0.537732
O17   O     O_3   0.603660 0.938980 0.996790 -0.371337
V3    V     V_3+5 0.328750 0.007610 0.996740 1.553575
O18   O     O_R   0.940600 0.902510 0.911180 -0.541976
C33   C     C_R   0.111119 0.878235 0.884648 0.674911
O19   O     O_R   0.940270 0.903570 0.082200 -0.549335
C34   C     C_R   0.108659 0.885135 0.112523 0.763891
V4    V     V_3+5 0.828770 0.986010 0.996670 1.507594
O20   O     O_3   0.103730 0.054750 0.996710 -0.358151
C35   C     C_1   0.241124 0.933192 0.488833 0.282300
N1    N     N_1   0.264498 0.958201 0.422271 -0.344862
Br1   Br    Br    0.380453 0.657532 0.240064 -0.492694
Br2   Br    Br    0.422071 0.282137 0.843308 -0.453321
C36   C     C_1   0.953164 0.143703 0.216923 0.342096
N2    N     N_1   0.092045 0.100561 0.210780 -0.358385
Br3   Br    Br    0.939967 0.409886 0.875733 -0.399355
Br4   Br    Br    0.062225 0.542268 0.036684 -0.365766
C37   C     C_1   0.254685 0.718285 0.972612 0.382668
N3    N     N_1   0.360367 0.747253 0.020952 -0.279530

loop_
_geom_bond_atom_site_label_1
_geom_bond_atom_site_label_2
_ccdc_geom_bond_type
C7    C8    A    
C12   C15   A    
C1    O6    A    
C22   H7    S    
C1    C26   S    
C25   C26   D    
C28   C31   S    
C16   C17   A    
C19   H5    S    
O5    C3    A    
C21   C22   D    
O12   C31   A    
C16   H3    S    
V2    O10   S    
O14   C32   A    
C6    C7    A    
C11   C33   S    
O8    V2    S    
C19   C20   D    
O19   C34   A    
C11   C12   A    
V4    O20   S    
O1    V2    S    
O17   V4    S    
C3    C20   S    
O7    V1    S    
C17   C35   S    
C25   H9    S    
O18   C33   A    
O9    C4    A    
C23   H8    S    
C29   H12   S    
C28   H11   S    
C30   H13   S    
C24   Br2   S    
C26   H10   S    
C8    C37   S    
C19   C21   S    
C36   N2    T    
O4    C2    A    
C18   H4    S    
C37   N3    T    
C13   C14   A    
V3    O20   S    
C4    C14   S    
C23   C25   S    
O2    C1    A    
C17   C18   A    
O15   C33   A    
O13   V3    S    
O16   V4    S    
C6    Br3   S    
C27   C29   S    
C5    C6    A    
C22   C34   S    
C27   C36   S    
C12   C13   A    
C7    Br4   S    
O3    C4    A    
C20   Br1   S    
O14   V3    S    
O6    V2    S    
O11   V4    S    
O9    V2    S    
C5    H1    S    
O11   C32   A    
C23   C24   D    
C2    C30   S    
O2    V1    S    
C29   C30   D    
C13   C18   A    
C15   H2    S    
O1    C2    A    
O12   V3    S    
C35   N1    T    
O5    V1    S    
O8    C3    A    
O13   C34   A    
C31   O16   A    
C5    C10   A    
O17   V3    S    
C9    C11   A    
O7    V2    S    
O4    V1    S    
O3    V1    S    
V1    O10   S    
C21   H6    S    
O18   V4    S    
O15   V3    S    
C8    C9    A    
O19   V4    S    
C27   C28   D    
C10   C14   A    
C15   C16   A    
C9    C10   A    
C24   C32   S    
