data_mof_unit_30539.cif
_audit_creation_date              2012-12-10T20:34:53-0500
_audit_creation_method            fapswitch 2.2
_symmetry_space_group_name_H-M    P1
_symmetry_Int_Tables_number       1
_space_group_crystal_system       triclinic
_cell_length_a                    10.802989
_cell_length_b                    10.762229
_cell_length_c                    10.005448
_cell_angle_alpha                 86.806512
_cell_angle_beta                  90.18075
_cell_angle_gamma                 89.449853
_cell_volume                      1161.40790259

loop_
_atom_site_label
_atom_site_type_symbol
_atom_type_description
_atom_site_fract_x
_atom_site_fract_y
_atom_site_fract_z
_atom_type_partial_charge
C1    C     C_R   0.508272 0.260267 0.502775 0.932724
C2    C     C_R   0.442832 0.931783 0.591754 0.021075
C3    C     C_3   0.307052 0.933626 0.618515 0.658769
C4    C     C_R   0.257124 0.503317 0.499236 0.942768
C5    C     C_3   0.320154 0.070987 0.637030 0.241291
C6    C     C_R   0.415575 0.432651 0.073940 0.188807
C7    C     C_R   0.581442 0.570216 0.068010 0.426381
C8    C     C_R   0.584343 0.567238 0.925822 -0.062922
C9    C     C_R   0.414137 0.435085 0.932226 -0.058010
C10   C     C_3   0.396185 0.298482 0.932010 0.106877
C11   C     C_3   0.398800 0.294603 0.083902 0.684524
C12   C     C_3   0.876371 0.489490 0.501928 -0.083341
C13   C     C_R   0.499019 0.739311 0.496989 0.929748
C14   C     C_R   0.740950 0.491935 0.500805 0.956975
C15   C     C_3   0.069160 0.436128 0.635751 0.286443
C16   C     C_3   0.927055 0.452269 0.642950 0.356958
C17   C     C_3   0.060334 0.638248 0.481650 -0.391566
C18   C     C_3   0.067791 0.427055 0.372964 0.294645
C19   C     C_3   0.118268 0.502762 0.496766 -0.221450
C20   C     C_2   0.115184 0.481893 0.768886 0.825644
C21   C     C_2   0.111919 0.726433 0.370904 1.042181
C22   C     C_2   0.692654 0.124712 0.322840 0.984303
C23   C     C_3   0.918272 0.625013 0.464820 -0.655984
C24   C     C_2   0.688471 0.633774 0.859106 1.031193
C25   C     C_2   0.076923 0.500431 0.234854 0.842341
C26   C     C_3   0.928574 0.395476 0.401994 0.202487
C27   C     C_R   0.455351 0.057747 0.603327 -0.030600
C28   C     C_R   0.525047 0.126998 0.508809 -0.148291
C29   C     C_R   0.601433 0.063699 0.416556 -0.025870
C30   C     C_R   0.589568 0.934546 0.411744 -0.246117
C31   C     C_R   0.504738 0.871127 0.493594 -0.043938
H1    H     H_    0.872722 0.401703 0.308455 0.174034
H2    H     H_    0.078947 0.866504 0.231946 0.364956
H3    H     H_    0.822093 0.104117 0.179994 0.353357
H4    H     H_    0.147856 0.932506 0.532140 0.362913
H5    H     H_    0.286951 0.773682 0.712092 0.378088
H6    H     H_    0.355013 0.051401 0.829786 0.394667
H7    H     H_    0.640499 0.654841 0.220081 0.377772
H8    H     H_    0.188596 0.299328 0.648482 0.344827
H9    H     H_    0.870939 0.671879 0.867387 0.356188
H10   H     H_    0.575083 0.268037 0.906670 0.371917
H11   H     H_    0.271460 0.172830 0.122039 0.333018
H12   H     H_    0.887018 0.649986 0.360780 0.290526
H13   H     H_    0.485883 0.140085 0.129093 0.341687
H14   H     H_    0.877753 0.345261 0.796888 0.369231
H15   H     H_    0.185601 0.592005 0.099153 0.352044
H16   H     H_    0.105568 0.271078 0.289539 0.354144
H17   H     H_    0.928362 0.215156 0.384187 0.347908
H18   H     H_    0.644855 0.882612 0.343429 0.210039
H19   H     H_    0.268303 0.131281 0.562126 0.155185
H20   H     H_    0.305074 0.277525 0.889370 0.225207
H21   H     H_    0.902487 0.530815 0.705810 0.061529
H22   H     H_    0.077093 0.685927 0.575132 0.210624
H23   H     H_    0.871085 0.691943 0.529388 0.227799
H24   H     H_    0.138652 0.437308 0.965512 0.367649
N1    N     N_R   0.499150 0.499140 0.142800 -0.158029
N2    N     N_R   0.499150 0.499180 0.857150 -0.157808
O1    O     O_R   0.500020 0.316790 0.614690 -0.566616
O2    O     O_R   0.106502 0.400477 0.882061 -0.763526
O3    O     O_2   0.222582 0.727749 0.346341 -0.572705
O4    O     O_R   0.033487 0.811897 0.301129 -0.748446
O5    O     O_2   0.706321 0.237037 0.316905 -0.599683
O6    O     O_R   0.764002 0.052452 0.239396 -0.780684
O7    O     O_3   0.234153 0.911655 0.507095 -0.785773
O8    O     O_3   0.273438 0.861512 0.733729 -0.712684
O9    O     O_3   0.297362 0.100502 0.769394 -0.705209
O10   O     O_3   0.665886 0.644861 0.127607 -0.703595
O11   O     O_3   0.097894 0.308117 0.636205 -0.598056
O12   O     O_R   0.500000 0.316760 0.385350 -0.527690
O13   O     O_2   0.669912 0.718342 0.775221 -0.607411
O14   O     O_R   0.808607 0.610692 0.907459 -0.739670
O15   O     O_3   0.495621 0.234083 0.875131 -0.699899
O16   O     O_3   0.286046 0.260547 0.143029 -0.747630
O17   O     O_3   0.500288 0.229644 0.141597 -0.729322
O18   O     O_3   0.870500 0.343465 0.698100 -0.619829
O19   O     O_2   0.984060 0.534980 0.172302 -0.597543
O20   O     O_R   0.191652 0.530256 0.179327 -0.734772
O21   O     O_3   0.137512 0.316147 0.366156 -0.693799
O22   O     O_3   0.916572 0.272695 0.457189 -0.606102
O23   O     O_R   0.314800 0.500000 0.614670 -0.648201
O24   O     O_R   0.314790 0.499960 0.385330 -0.498145
O25   O     O_R   0.500000 0.683240 0.614650 -0.592749
O26   O     O_R   0.499980 0.683210 0.385310 -0.639280
O27   O     O_R   0.685210 0.500040 0.614670 -0.623412
O28   O     O_R   0.685200 0.500000 0.385330 -0.629273
O29   O     O_2   0.149881 0.588493 0.780148 -0.644980
Zn1   Zn    Zn3+2 0.500010 0.500020 0.653130 1.029367
Zn2   Zn    Zn3+2 0.499990 0.499980 0.346870 1.089798

loop_
_geom_bond_atom_site_label_1
_geom_bond_atom_site_label_2
_ccdc_geom_bond_type
C26   H1    S    
C22   C29   S    
H24   O2    S    
C16   O18   S    
H8    O11   S    
C18   C26   S    
O27   Zn1   S    
C14   O27   A    
O1    Zn1   S    
C6    C9    A    
C24   O13   D    
C7    C8    A    
C3    O7    S    
C15   C19   S    
C12   C23   S    
C17   C23   S    
C25   O20   S    
H17   O22   S    
C28   C29   A    
H9    O14   S    
C4    O23   A    
O23   Zn1   S    
C30   C31   A    
N1    Zn2   S    
C15   C16   S    
C23   H12   S    
C18   C19   S    
C17   C19   S    
C22   O6    S    
C5    C27   S    
C4    C19   S    
C4    O24   A    
C12   C16   S    
C20   O29   D    
C1    C28   S    
C2    C27   A    
C9    C10   S    
C21   O4    S    
O26   Zn2   S    
C3    O8    S    
C18   C25   S    
C7    N1    A    
C10   H20   S    
C15   C20   S    
C21   O3    D    
C11   O16   S    
C6    C11   S    
H5    O8    S    
C13   O25   A    
C1    O12   A    
N2    Zn1   S    
C12   C26   S    
C2    C31   A    
C29   C30   A    
C8    N2    A    
C22   O5    D    
C18   O21   S    
H6    O9    S    
C20   O2    S    
H13   O17   S    
H4    O7    S    
O12   Zn2   S    
H10   O15   S    
C30   H18   S    
C12   C14   S    
C5    H19   S    
C17   H22   S    
C23   H23   S    
O28   Zn2   S    
H11   O16   S    
C13   C31   S    
C16   H21   S    
C14   O28   A    
C6    N1    A    
C5    O9    S    
C3    C5    S    
C11   O17   S    
H15   O20   S    
C13   O26   A    
C26   O22   S    
H14   O18   S    
C25   O19   D    
C2    C3    S    
C1    O1    A    
C15   O11   S    
H3    O6    S    
C8    C24   S    
C9    N2    A    
C17   C21   S    
O24   Zn2   S    
C10   C11   S    
C7    O10   S    
H7    O10   S    
H2    O4    S    
C27   C28   A    
H16   O21   S    
O25   Zn1   S    
C24   O14   S    
C10   O15   S    
