data_mof_unit_22329.cif
_audit_creation_date              2012-12-11T14:04:05-0500
_audit_creation_method            fapswitch 2.2
_symmetry_space_group_name_H-M    P1
_symmetry_Int_Tables_number       1
_space_group_crystal_system       triclinic
_cell_length_a                    18.967907
_cell_length_b                    10.991415
_cell_length_c                    18.700833
_cell_angle_alpha                 89.616076
_cell_angle_beta                  90.470689
_cell_angle_gamma                 90.328058
_cell_volume                      3898.54526444

loop_
_atom_site_label
_atom_site_type_symbol
_atom_type_description
_atom_site_fract_x
_atom_site_fract_y
_atom_site_fract_z
_atom_type_partial_charge
C1    C     C_R   0.226966 0.512772 0.637448 0.568653
C2    C     C_R   0.760443 0.467025 0.353337 0.560727
C3    C     C_R   0.738782 0.968542 0.645827 0.570761
C4    C     C_R   0.260492 0.967049 0.353382 0.561174
C5    C     C_2   0.289281 0.843072 0.537376 -0.166896
C6    C     C_2   0.702936 0.859001 0.459316 -0.164639
C7    C     C_2   0.788451 0.341720 0.537068 -0.160706
C8    C     C_2   0.192143 0.394076 0.451110 -0.161107
C9    C     C_R   0.005417 0.658096 0.427099 0.006586
C10   C     C_R   0.988860 0.667451 0.576553 -0.004992
C11   C     C_R   0.506848 0.158658 0.426358 0.005339
C12   C     C_R   0.489931 0.167302 0.575825 -0.003255
C13   C     C_R   0.038043 0.875169 0.426432 0.276008
C14   C     C_R   0.990276 0.892735 0.569371 0.298135
C15   C     C_R   0.538998 0.375648 0.425816 0.276274
C16   C     C_R   0.491505 0.392896 0.568857 0.302230
C17   C     C_R   0.041281 0.986159 0.463030 -0.165979
C18   C     C_R   0.014261 0.996435 0.531497 -0.161366
C19   C     C_R   0.542809 0.486309 0.462641 -0.166556
C20   C     C_R   0.515962 0.496502 0.531173 -0.161731
C21   C     C_R   0.996459 0.777330 0.536620 -0.015346
C22   C     C_R   0.012278 0.770813 0.462588 -0.017398
C23   C     C_R   0.497554 0.277475 0.536026 -0.013173
C24   C     C_R   0.513322 0.271261 0.461939 -0.015727
C25   C     C_R   0.978380 0.557549 0.539781 -0.007020
C26   C     C_R   0.000168 0.549899 0.468616 0.000851
C27   C     C_R   0.480453 0.057308 0.538748 -0.001642
C28   C     C_R   0.502865 0.050450 0.467768 0.004145
C29   C     C_R   0.953697 0.451551 0.574877 -0.065338
C30   C     C_R   0.013422 0.433167 0.440331 -0.083581
C31   C     C_R   0.455865 0.950645 0.573200 -0.064616
C32   C     C_R   0.517322 0.934413 0.439277 -0.077114
C33   C     C_R   0.961625 0.337856 0.543818 -0.127928
C34   C     C_R   0.993564 0.328429 0.477475 -0.149110
C35   C     C_R   0.464464 0.837412 0.541721 -0.130683
C36   C     C_R   0.497398 0.829056 0.475791 -0.146648
C37   C     C_2   0.256153 0.927444 0.916884 -0.088412
C38   C     C_2   0.741459 0.938347 0.086376 -0.089065
C39   C     C_2   0.756156 0.427453 0.916880 -0.088982
C40   C     C_2   0.241456 0.438352 0.086378 -0.088787
C41   C     C_2   0.253935 0.937608 0.073316 -0.064459
C42   C     C_2   0.729253 0.986592 0.933397 -0.081279
C43   C     C_2   0.753940 0.437621 0.073311 -0.064435
C44   C     C_2   0.229245 0.486609 0.933400 -0.082326
C45   C     C_R   0.227104 0.874579 0.647560 0.550951
C46   C     C_R   0.772385 0.875863 0.351705 0.557004
C47   C     C_R   0.727087 0.374528 0.647535 0.555063
C48   C     C_R   0.271477 0.378801 0.349963 0.558134
C49   C     C_2   0.228232 0.024012 0.028948 -0.109743
C50   C     C_2   0.761610 0.062554 0.978927 -0.148328
C51   C     C_2   0.728233 0.524023 0.028945 -0.109860
C52   C     C_2   0.261604 0.562569 0.978930 -0.148799
C53   C     C_2   0.216597 0.004346 0.953415 -0.105243
C54   C     C_2   0.777179 0.027138 0.052940 -0.138919
C55   C     C_2   0.716600 0.504358 0.953411 -0.105877
C56   C     C_2   0.277173 0.527149 0.052943 -0.138563
C57   C     C_2   0.069339 0.656008 0.934401 0.354089
C58   C     C_2   0.006703 0.664342 0.080983 0.366726
C59   C     C_2   0.569341 0.156007 0.934402 0.354700
C60   C     C_2   0.506701 0.164341 0.080982 0.366723
C61   C     C_2   0.045729 0.572862 0.054738 0.386192
C62   C     C_2   0.057524 0.559919 0.977520 0.374812
C63   C     C_2   0.545728 0.072860 0.054737 0.386154
C64   C     C_2   0.557525 0.059918 0.977519 0.375104
C65   C     C_R   0.025904 0.655903 0.646788 0.567865
C66   C     C_R   0.973023 0.654204 0.354264 0.577387
C67   C     C_R   0.526086 0.155888 0.646583 0.576408
C68   C     C_R   0.473301 0.154313 0.354044 0.576130
C69   C     C_R   0.224613 0.518086 0.858490 0.549252
C70   C     C_R   0.761617 0.469847 0.147661 0.536807
C71   C     C_R   0.724615 0.018077 0.858491 0.546125
C72   C     C_R   0.261614 0.969836 0.147665 0.536640
C73   C     C_R   0.228777 0.875369 0.851650 0.564008
C74   C     C_R   0.771089 0.877059 0.148599 0.568856
C75   C     C_R   0.728778 0.375372 0.851649 0.561291
C76   C     C_R   0.271089 0.377059 0.148598 0.567579
C77   C     C_R   0.067427 0.646968 0.856476 0.592449
C78   C     C_R   0.972010 0.652980 0.149837 0.579139
C79   C     C_R   0.567427 0.146967 0.856476 0.592065
C80   C     C_R   0.472007 0.152978 0.149835 0.579123
C81   C     C_2   0.248779 0.915864 0.577237 -0.107511
C82   C     C_2   0.749460 0.922554 0.420074 -0.104890
C83   C     C_2   0.748679 0.415452 0.577111 -0.110033
C84   C     C_2   0.244063 0.441915 0.411556 -0.104463
C85   C     C_2   0.246298 0.907617 0.421027 -0.095413
C86   C     C_2   0.750103 0.913601 0.576568 -0.106541
C87   C     C_2   0.745978 0.407565 0.420886 -0.094281
C88   C     C_2   0.236032 0.470825 0.564916 -0.104998
C89   C     C_2   0.299315 0.865849 0.461393 -0.170086
C90   C     C_2   0.694587 0.882736 0.535400 -0.168381
C91   C     C_2   0.798668 0.364499 0.461118 -0.168741
C92   C     C_2   0.181078 0.435281 0.524502 -0.167703
Cr1   Cr    Cr6+3 0.113970 0.508630 0.747920 1.046460
Cr2   Cr    Cr6+3 0.886030 0.508630 0.252080 1.050159
Cr3   Cr    Cr6+3 0.613970 0.008630 0.747920 1.045667
Cr4   Cr    Cr6+3 0.386030 0.008630 0.252080 1.050343
Cr5   Cr    Cr6+3 0.269200 0.666740 0.749850 0.987670
Cr6   Cr    Cr6+3 0.730800 0.666740 0.250150 1.017991
Cr7   Cr    Cr6+3 0.769200 0.166740 0.749850 0.991871
Cr8   Cr    Cr6+3 0.230800 0.166740 0.250150 1.019187
Cr9   Cr    Cr6+3 0.112300 0.820070 0.749800 1.036570
Cr10  Cr    Cr6+3 0.887700 0.820070 0.250200 1.031210
Cr11  Cr    Cr6+3 0.612300 0.320070 0.749800 1.040428
Cr12  Cr    Cr6+3 0.387700 0.320070 0.250200 1.031167
H1    H     H_    0.351442 0.852713 0.439418 0.170665
H2    H     H_    0.641616 0.877702 0.556939 0.168795
H3    H     H_    0.850602 0.350113 0.439009 0.170247
H4    H     H_    0.128564 0.428732 0.546920 0.168654
H5    H     H_    0.170718 0.047547 0.929321 0.186700
H6    H     H_    0.823560 0.068007 0.077618 0.170904
H7    H     H_    0.670722 0.547560 0.929316 0.186286
H8    H     H_    0.323555 0.568018 0.077623 0.170838
H9    H     H_    0.272822 0.850409 0.054721 0.096163
H10   H     H_    0.707468 0.899626 0.950132 0.143147
H11   H     H_    0.772830 0.350424 0.054716 0.096291
H12   H     H_    0.207457 0.399647 0.950136 0.143524
H13   H     H_    0.304285 0.889930 0.939701 0.113292
H14   H     H_    0.692546 0.902214 0.064612 0.170397
H15   H     H_    0.804288 0.389939 0.939698 0.113465
H16   H     H_    0.192544 0.402219 0.064614 0.170516
H17   H     H_    0.314782 0.763335 0.560107 0.148942
H18   H     H_    0.671954 0.785290 0.436386 0.148610
H19   H     H_    0.813245 0.261201 0.559648 0.155945
H20   H     H_    0.161081 0.317262 0.432184 0.144803
H21   H     H_    0.193691 0.915781 0.442958 0.143434
H22   H     H_    0.803189 0.915180 0.555072 0.128957
H23   H     H_    0.693478 0.416735 0.442910 0.143387
H24   H     H_    0.289304 0.471528 0.543921 0.124734
H25   H     H_    0.224020 0.996336 0.554428 0.111677
H26   H     H_    0.778416 0.998787 0.442920 0.109784
H27   H     H_    0.724471 0.496550 0.554453 0.107456
H28   H     H_    0.272902 0.521972 0.429498 0.108336
H29   H     H_    0.065773 0.065330 0.439239 0.100282
H30   H     H_    0.014609 0.085796 0.554826 0.092503
H31   H     H_    0.567715 0.565180 0.438966 0.098728
H32   H     H_    0.516806 0.585711 0.554679 0.090051
H33   H     H_    0.039031 0.422365 0.389252 0.140311
H34   H     H_    0.930464 0.456507 0.627518 0.134993
H35   H     H_    0.543041 0.924879 0.388144 0.138998
H36   H     H_    0.431929 0.954756 0.625540 0.134850
H37   H     H_    0.943792 0.257312 0.571798 0.090802
H38   H     H_    0.000978 0.240469 0.453598 0.101037
H39   H     H_    0.446339 0.756435 0.569063 0.089943
H40   H     H_    0.505304 0.741495 0.451623 0.099919
H41   H     H_    0.210055 0.110743 0.049282 0.165128
H42   H     H_    0.784307 0.147361 0.959363 0.145560
H43   H     H_    0.710052 0.610750 0.049279 0.164967
H44   H     H_    0.284305 0.647373 0.959366 0.145248
O1    O     O_R   0.043230 0.549300 0.667990 -0.538871
O2    O     O_R   0.956770 0.549300 0.332010 -0.531803
O3    O     O_R   0.543230 0.049300 0.667990 -0.530568
O4    O     O_R   0.456770 0.049300 0.332010 -0.531394
O5    O     O_R   0.262920 0.788600 0.824420 -0.521820
O6    O     O_R   0.737080 0.788600 0.175580 -0.486887
O7    O     O_R   0.762920 0.288600 0.824420 -0.522495
O8    O     O_R   0.237080 0.288600 0.175580 -0.487676
O9    O     O_R   0.167530 0.905110 0.830340 -0.488225
O10   O     O_R   0.832470 0.905110 0.169660 -0.497360
O11   O     O_R   0.667530 0.405110 0.830340 -0.490377
O12   O     O_R   0.332470 0.405110 0.169660 -0.498184
O13   O     O_R   0.054010 0.748440 0.822860 -0.473109
O14   O     O_R   0.945990 0.748440 0.177140 -0.488882
O15   O     O_R   0.554010 0.248440 0.822860 -0.474060
O16   O     O_R   0.445990 0.248440 0.177140 -0.489074
O17   O     O_3   0.165160 0.665150 0.749190 -0.328066
O18   O     O_3   0.834840 0.665150 0.250810 -0.258005
O19   O     O_3   0.665160 0.165150 0.749190 -0.311398
O20   O     O_3   0.334840 0.165150 0.250810 -0.257448
O21   O     O_R   0.178620 0.457600 0.674100 -0.481879
O22   O     O_R   0.821380 0.457600 0.325900 -0.499001
O23   O     O_R   0.678620 0.957600 0.674100 -0.493196
O24   O     O_R   0.321380 0.957600 0.325900 -0.499354
O25   O     O_R   0.284680 0.542100 0.669460 -0.519111
O26   O     O_R   0.715320 0.542100 0.330540 -0.530311
O27   O     O_R   0.784680 0.042100 0.669460 -0.523417
O28   O     O_R   0.215320 0.042100 0.330540 -0.528486
O29   O     O_R   0.262860 0.790390 0.676650 -0.515467
O30   O     O_R   0.737140 0.790390 0.323350 -0.499713
O31   O     O_R   0.762860 0.290390 0.676650 -0.502305
O32   O     O_R   0.237140 0.290390 0.323350 -0.498087
O33   O     O_R   0.167460 0.907030 0.670940 -0.516480
O34   O     O_R   0.832540 0.907030 0.329060 -0.526454
O35   O     O_R   0.667460 0.407030 0.670940 -0.519307
O36   O     O_R   0.332540 0.407030 0.329060 -0.527705
O37   O     O_R   0.053950 0.750220 0.675100 -0.459440
O38   O     O_R   0.946050 0.750220 0.324900 -0.489604
O39   O     O_R   0.553950 0.250220 0.675100 -0.458274
O40   O     O_R   0.446050 0.250220 0.324900 -0.488752
O41   O     O_R   0.043300 0.547370 0.827390 -0.473981
O42   O     O_R   0.956700 0.547370 0.172610 -0.469556
O43   O     O_R   0.543300 0.047370 0.827390 -0.474096
O44   O     O_R   0.456700 0.047370 0.172610 -0.469614
O45   O     O_R   0.178690 0.455820 0.821860 -0.480373
O46   O     O_R   0.821310 0.455820 0.178140 -0.488692
O47   O     O_R   0.678690 0.955820 0.821860 -0.488093
O48   O     O_R   0.321310 0.955820 0.178140 -0.488971
O49   O     O_R   0.284750 0.540170 0.828860 -0.504242
O50   O     O_R   0.715250 0.540170 0.171140 -0.530450
O51   O     O_R   0.784750 0.040170 0.828860 -0.509702
O52   O     O_R   0.215250 0.040170 0.171140 -0.530273
F1    F     F_    0.062991 0.476261 0.097192 -0.637000
F2    F     F_    0.052074 0.445648 0.950364 -0.619702
F3    F     F_    0.562987 0.976257 0.097191 -0.636954
F4    F     F_    0.552077 0.945646 0.950364 -0.619694
F5    F     F_    0.984657 0.758302 0.038818 -0.603467
F6    F     F_    0.088531 0.765501 0.962413 -0.622333
F7    F     F_    0.484658 0.258303 0.038817 -0.603272
F8    F     F_    0.588533 0.265499 0.962414 -0.622230
O53   O     O_3   0.072750 0.859703 0.362008 -0.571176
C93   C     C_3   0.054970 0.950685 0.311392 -0.004196
H45   H     H_    0.080762 0.038673 0.324393 0.135413
H46   H     H_    0.996914 0.964215 0.307507 0.146489
C94   C     C_3   0.082003 0.910972 0.239074 -0.303050
H47   H     H_    0.058816 0.822022 0.224606 0.165654
H48   H     H_    0.068667 0.979665 0.197385 0.130879
H49   H     H_    0.139851 0.898617 0.242068 0.182419
O54   O     O_3   0.955706 0.897846 0.635131 -0.553828
C95   C     C_3   0.967036 0.007094 0.672969 -0.012215
H50   H     H_    0.935364 0.081271 0.648290 0.126385
H51   H     H_    0.023994 0.032393 0.674881 0.135032
C96   C     C_3   0.942563 0.989983 0.749590 -0.302688
H52   H     H_    0.978012 0.926170 0.778297 0.186376
H53   H     H_    0.943412 0.078690 0.777675 0.104437
H54   H     H_    0.888251 0.952151 0.750297 0.205453
O55   O     O_3   0.573314 0.360360 0.361180 -0.571197
C97   C     C_3   0.555014 0.451275 0.310727 -0.004196
H55   H     H_    0.580573 0.539495 0.323671 0.134913
H56   H     H_    0.496899 0.464231 0.307107 0.146647
C98   C     C_3   0.581875 0.411928 0.238287 -0.302871
H57   H     H_    0.558622 0.323108 0.223702 0.165407
H58   H     H_    0.568538 0.480877 0.196745 0.131032
H59   H     H_    0.639699 0.399336 0.241212 0.183477
O56   O     O_3   0.456658 0.398219 0.634465 -0.545679
C99   C     C_3   0.468066 0.507403 0.672367 -0.008860
H60   H     H_    0.436736 0.581863 0.647508 0.125664
H61   H     H_    0.525082 0.532226 0.674604 0.131430
C100  C     C_3   0.443161 0.490531 0.748865 -0.300309
H62   H     H_    0.478161 0.426144 0.777701 0.185093
H63   H     H_    0.444329 0.579184 0.777003 0.101889
H64   H     H_    0.388658 0.453526 0.749317 0.213928

loop_
_geom_bond_atom_site_label_1
_geom_bond_atom_site_label_2
_ccdc_geom_bond_type
C59   F8    S    
C47   C83   S    
C7    C83   D    
Cr6   O6    S    
Cr11  O19   S    
C6    C82   D    
C87   C91   D    
C86   H22   S    
Cr5   O49   S    
C14   C18   A    
Cr1   O1    S    
C35   C36   A    
C78   O42   A    
C57   C77   S    
C3    O23   A    
Cr2   O18   S    
C87   H23   S    
C19   H31   S    
C45   O33   A    
C57   C62   D    
C94   H47   S    
C35   H39   S    
C15   C19   A    
C29   H34   S    
C12   C23   A    
Cr1   O21   S    
C59   C64   D    
C50   C54   S    
C63   F3    S    
C15   O55   S    
C60   C63   D    
Cr11  O35   S    
C32   C36   A    
C14   C21   A    
C66   O2    A    
C96   H54   S    
Cr6   O26   S    
C39   H15   S    
C9    C22   A    
C94   H49   S    
Cr12  O20   S    
C75   O11   A    
Cr4   O4    S    
C5    H17   S    
C11   C24   A    
C5    C81   D    
C74   O6    A    
C25   C29   A    
C17   C18   A    
C16   O56   S    
C97   C98   S    
C46   O30   A    
C9    C66   S    
C80   O16   A    
C47   O31   A    
C61   F1    S    
C46   C82   S    
Cr5   O29   S    
C92   H4    S    
C39   C55   D    
C88   C92   D    
C29   C33   A    
C40   C76   S    
C43   C70   S    
C40   C56   D    
Cr7   O7    S    
Cr8   O28   S    
Cr3   O47   S    
C23   C24   A    
Cr4   O20   S    
C14   O54   S    
C8    C92   S    
C39   C75   S    
C82   H26   S    
O56   C99   S    
C2    O26   A    
C16   C20   A    
C71   O47   A    
C37   C53   D    
C70   O46   A    
C50   H42   S    
C1    C88   S    
C64   F4    S    
Cr1   O17   S    
Cr9   O13   S    
C52   H44   S    
C30   H33   S    
C79   O43   A    
C21   C22   A    
C3    C86   S    
C69   O49   A    
Cr7   O27   S    
C80   O44   A    
Cr10  O10   S    
C61   C62   S    
C99   H61   S    
C96   H53   S    
Cr12  O12   S    
Cr9   O37   S    
C41   C49   D    
C67   O39   A    
C9    C26   A    
C33   C34   A    
Cr7   O19   S    
C94   H48   S    
C10   C21   A    
C77   O13   A    
Cr12  O40   S    
C12   C67   S    
C65   O37   A    
Cr5   O25   S    
C30   C34   A    
C12   C27   A    
C27   C31   A    
C54   H6    S    
Cr10  O34   S    
C8    C84   D    
C91   H3    S    
C28   C32   A    
Cr11  O39   S    
C90   H2    S    
C32   H35   S    
O53   C93   S    
C86   C90   D    
C59   C79   S    
C48   O36   A    
Cr6   O50   S    
C8    H20   S    
C4    C85   S    
C58   F5    S    
C33   H37   S    
C25   C26   A    
C6    C90   S    
C67   O3    A    
C57   F6    S    
C76   O8    A    
C48   C84   S    
C43   H11   S    
C99   C100  S    
Cr11  O11   S    
C42   H10   S    
Cr2   O42   S    
Cr7   O31   S    
C98   H57   S    
C68   O4    A    
C13   O53   S    
C72   O52   A    
C96   H52   S    
C34   H38   S    
C81   H25   S    
C38   C54   D    
C51   H43   S    
Cr10  O14   S    
C1    O25   A    
C69   O45   A    
O55   C97   S    
C49   H41   S    
C2    C87   S    
C97   H55   S    
Cr10  O38   S    
C20   H32   S    
C74   O10   A    
Cr9   O17   S    
Cr1   O45   S    
Cr6   O18   S    
C42   C50   D    
C41   C72   S    
Cr8   O52   S    
C10   C25   A    
C47   O35   A    
C15   C24   A    
Cr12  O36   S    
C2    O22   A    
C78   O14   A    
C16   C23   A    
C93   H46   S    
C100  H63   S    
C17   H29   S    
C40   H16   S    
C98   H58   S    
Cr5   O5    S    
C31   C35   A    
C79   O15   A    
Cr3   O3    S    
C99   H60   S    
C6    H18   S    
Cr4   O24   S    
Cr7   O51   S    
Cr8   O32   S    
C7    C91   S    
C48   O32   A    
Cr9   O33   S    
C11   C68   S    
C95   C96   S    
C3    O27   A    
Cr6   O30   S    
C38   C74   S    
C10   C65   S    
C53   H5    S    
C37   C73   S    
C60   C80   S    
C85   C89   D    
Cr3   O43   S    
C4    O24   A    
C55   H7    S    
C85   H21   S    
Cr2   O46   S    
Cr11  O15   S    
C44   H12   S    
C45   C81   S    
C7    H19   S    
Cr3   O19   S    
C44   C52   D    
Cr12  O16   S    
Cr10  O18   S    
C60   F7    S    
C71   O51   A    
Cr4   O44   S    
C73   O9    A    
Cr1   O41   S    
C98   H59   S    
C93   C94   S    
C97   H56   S    
C13   C17   A    
C95   H51   S    
Cr8   O20   S    
C77   O41   A    
C89   H1    S    
C46   O34   A    
C19   C20   A    
C66   O38   A    
C83   H27   S    
O54   C95   S    
C41   H9    S    
C88   H24   S    
Cr2   O22   S    
C45   O29   A    
C43   C51   D    
C95   H50   S    
C76   O12   A    
C11   C28   A    
C58   C61   D    
Cr5   O17   S    
C1    O21   A    
C42   C71   S    
C84   H28   S    
C13   C22   A    
C18   H30   S    
C51   C55   S    
C36   H40   S    
Cr8   O8    S    
C5    C89   S    
C49   C53   S    
C58   C78   S    
Cr9   O9    S    
C63   C64   S    
C38   H14   S    
C75   O7    A    
Cr2   O2    S    
Cr4   O48   S    
C37   H13   S    
C68   O40   A    
C70   O50   A    
C93   H45   S    
C4    O28   A    
C100  H64   S    
C73   O5    A    
C27   C28   A    
C65   O1    A    
C44   C69   S    
C31   H36   S    
C100  H62   S    
Cr3   O23   S    
C56   H8    S    
C62   F2    S    
C52   C56   S    
C72   O48   A    
C26   C30   A    
