data_mof_unit_67853.cif
_audit_creation_date              2012-12-10T16:55:47-0500
_audit_creation_method            fapswitch 2.2
_symmetry_space_group_name_H-M    P1
_symmetry_Int_Tables_number       1
_space_group_crystal_system       triclinic
_cell_length_a                    7.843072
_cell_length_b                    8.710972
_cell_length_c                    10.516432
_cell_angle_alpha                 93.592659
_cell_angle_beta                  83.841496
_cell_angle_gamma                 92.979544
_cell_volume                      712.19860154

loop_
_atom_site_label
_atom_site_type_symbol
_atom_type_description
_atom_site_fract_x
_atom_site_fract_y
_atom_site_fract_z
_atom_type_partial_charge
C1    C     C_R   0.544271 0.793795 0.489980 0.912582
C2    C     C_3   0.499530 0.501174 0.877117 -0.145426
C3    C     C_3   0.347717 0.424484 0.049108 -0.304888
C4    C     C_3   0.654355 0.556868 0.951438 -0.267389
C5    C     C_2   0.562181 0.954137 0.464369 -0.057722
C6    C     C_2   0.428879 0.044990 0.507036 -0.069443
C7    C     C_3   0.596585 0.902405 0.040178 -0.824442
C8    C     C_3   0.587993 0.134223 0.802265 -0.788115
C9    C     C_3   0.129714 0.731287 0.064395 -0.767904
C10   C     C_3   0.920884 0.318151 0.959009 -0.752079
C11   C     C_3   0.867687 0.936534 0.362751 -0.655930
C12   C     C_R   0.454836 0.206338 0.500396 0.901490
C13   C     C_3   0.169061 0.057029 0.669546 -0.653188
C14   C     C_R   0.500180 0.505545 0.742512 0.898148
C15   C     C_R   0.498735 0.484896 0.258204 0.861371
C16   C     C_3   0.372149 0.576121 0.979986 0.232969
C17   C     C_3   0.629777 0.404872 0.021216 0.217878
C18   C     C_3   0.522813 0.629843 0.054244 0.193684
C19   C     C_3   0.479373 0.350870 0.946171 0.202222
C20   C     C_3   0.501113 0.479811 0.123352 -0.169659
Cl1   Cl    Cl    0.043856 0.326694 0.353935 -0.593308
Cl2   Cl    Cl    0.956562 0.673884 0.646085 -0.579072
H1    H     H_    0.227496 0.368333 0.092853 0.199786
H2    H     H_    0.540339 0.027759 0.751507 0.237093
H3    H     H_    0.273145 0.751512 0.887339 0.235216
H4    H     H_    0.015983 0.783191 0.033237 0.230368
H5    H     H_    0.203299 0.821737 0.117500 0.256050
H6    H     H_    0.083943 0.638371 0.129152 0.264589
H7    H     H_    0.785418 0.301623 0.139665 0.265626
H8    H     H_    0.003509 0.221838 0.972027 0.231441
H9    H     H_    0.990848 0.428969 0.979660 0.268784
H10   H     H_    0.892608 0.312794 0.857600 0.263192
H11   H     H_    0.675076 0.065416 0.302521 0.229329
H12   H     H_    0.776334 0.613021 0.910260 0.212226
H13   H     H_    0.966691 0.010771 0.310150 0.250559
H14   H     H_    0.855744 0.826596 0.304561 0.224996
H15   H     H_    0.910460 0.916693 0.457044 0.274072
H16   H     H_    0.187786 0.939525 0.487438 0.260124
H17   H     H_    0.130310 0.968499 0.739694 0.249126
H18   H     H_    0.051844 0.108253 0.643080 0.246061
H19   H     H_    0.247500 0.148516 0.716303 0.250325
H20   H     H_    0.612974 0.777042 0.198322 0.227806
H21   H     H_    0.572903 0.014063 0.094173 0.248992
H22   H     H_    0.522647 0.894035 0.955882 0.256160
H23   H     H_    0.735652 0.896956 0.007424 0.246278
H24   H     H_    0.383881 0.123293 0.947306 0.226878
H25   H     H_    0.641440 0.215376 0.730353 0.275215
H26   H     H_    0.691833 0.103154 0.857628 0.268580
N1    N     N_2   0.950320 0.457950 0.465730 0.141924
N2    N     N_2   0.049680 0.542050 0.534270 0.140717
N3    N     N_2   0.542599 0.778490 0.121439 -0.306109
N4    N     N_2   0.448374 0.199467 0.886037 -0.331230
N5    N     N_2   0.234950 0.670425 0.953140 -0.280765
N6    N     N_2   0.764683 0.305956 0.045021 -0.316970
N7    N     N_2   0.706323 0.012158 0.381205 -0.286154
N8    N     N_2   0.262244 0.985463 0.556470 -0.269734
O1    O     O_R   0.389250 0.738570 0.508410 -0.608148
O2    O     O_R   0.610750 0.261430 0.491590 -0.607947
O3    O     O_R   0.678390 0.711620 0.486450 -0.587682
O4    O     O_R   0.321610 0.288380 0.513550 -0.574647
O5    O     O_R   0.355460 0.513510 0.697030 -0.602803
O6    O     O_R   0.644540 0.486490 0.302970 -0.640641
O7    O     O_R   0.644600 0.486560 0.675070 -0.589560
O8    O     O_R   0.355400 0.513440 0.324930 -0.573634
Zn1   Zn    Zn3+2 0.306940 0.517990 0.514670 1.061161
Zn2   Zn    Zn3+2 0.693060 0.482010 0.485330 1.041573

loop_
_geom_bond_atom_site_label_1
_geom_bond_atom_site_label_2
_ccdc_geom_bond_type
H11   N7    S    
C2    C4    S    
C15   O8    A    
C8    H26   S    
C3    C19   S    
C1    O1    A    
C18   N3    S    
H16   N8    S    
C2    C16   S    
O4    Zn1   S    
C8    N4    S    
C19   N4    S    
C3    H1    S    
Cl1   N1    S    
H20   N3    S    
Cl2   N2    S    
C13   N8    S    
C12   O2    A    
O8    Zn1   S    
C13   H19   S    
C8    H25   S    
C4    C18   S    
C3    C20   S    
C7    H22   S    
H24   N4    S    
O2    Zn2   S    
C5    C6    D    
C9    N5    S    
C10   H10   S    
C1    C5    S    
C14   O7    A    
C7    H23   S    
C11   H13   S    
C11   H14   S    
C17   C19   S    
C15   O6    A    
H3    N5    S    
C9    H4    S    
C10   H9    S    
C18   C20   S    
C1    O3    A    
O3    Zn2   S    
C6    C12   S    
C15   C20   S    
C10   N6    S    
N2    Zn1   S    
C4    H12   S    
C10   H8    S    
O7    Zn2   S    
C13   H17   S    
N1    Zn2   S    
C4    C17   S    
C7    N3    S    
C12   O4    A    
O5    Zn1   S    
C17   C20   S    
C11   N7    S    
C9    H5    S    
C16   C18   S    
N1    N2    D    
H7    N6    S    
C2    C14   S    
C7    H21   S    
C11   H15   S    
O6    Zn2   S    
C16   N5    S    
C13   H18   S    
C8    H2    S    
C2    C19   S    
C14   O5    A    
C17   N6    S    
C5    N7    S    
C3    C16   S    
C9    H6    S    
C6    N8    S    
O1    Zn1   S    
