data_mof_unit_18528.cif
_audit_creation_date              2013-03-05T16:36:16-0500
_audit_creation_method            fapswitch 2.2
_symmetry_space_group_name_H-M    P1
_symmetry_Int_Tables_number       1
_space_group_crystal_system       triclinic
_cell_length_a                    27.853925
_cell_length_b                    9.10707
_cell_length_c                    7.766157
_cell_angle_alpha                 89.838624
_cell_angle_beta                  89.99813
_cell_angle_gamma                 89.999215
_cell_volume                      1970.01493971

loop_
_atom_site_label
_atom_site_type_symbol
_atom_site_description
_atom_site_fract_x
_atom_site_fract_y
_atom_site_fract_z
_atom_type_partial_charge
O1    O     O_R   0.500000 0.288390 0.642760 -0.578152
O2    O     O_R   0.500000 0.711610 0.357240 -0.578194
O3    O     O_R   0.500000 0.711610 0.642760 -0.577999
O4    O     O_R   0.500000 0.288390 0.357240 -0.577948
C1    C     C_R   0.499553 0.219923 0.500139 0.835808
C2    C     C_R   0.499573 0.780077 0.499860 0.835989
O5    O     O_R   0.430260 0.500000 0.642770 -0.584970
O6    O     O_R   0.569740 0.500000 0.357230 -0.588907
O7    O     O_R   0.569740 0.500000 0.642770 -0.588781
O8    O     O_R   0.430260 0.500000 0.357230 -0.584968
C3    C     C_R   0.407529 0.500000 0.500002 0.873869
C4    C     C_R   0.592919 0.500034 0.499993 0.875602
Cu1   Cu    Cu3+1 0.500000 0.500000 0.669080 0.984948
Cu2   Cu    Cu3+1 0.500000 0.500000 0.330920 0.984931
C5    C     C_R   0.178876 0.456600 0.355219 0.655304
C6    C     C_R   0.823151 0.549169 0.641746 0.653555
C7    C     C_R   0.178860 0.543333 0.644572 0.655279
C8    C     C_R   0.823166 0.450340 0.357801 0.653593
O9    O     O_2   0.203685 0.416148 0.213763 -0.485141
O10   O     O_2   0.798412 0.599369 0.778982 -0.470610
O11   O     O_2   0.203651 0.583807 0.786051 -0.485144
O12   O     O_2   0.798441 0.400127 0.220546 -0.470596
N1    N     N_R   0.202927 0.499975 0.499907 -0.419753
N2    N     N_R   0.799036 0.499739 0.499768 -0.421232
C9    C     C_R   0.279424 0.633225 0.497466 0.590643
C10   C     C_R   0.722498 0.406675 0.611134 0.579576
C11   C     C_R   0.279428 0.366748 0.502447 0.590628
C12   C     C_R   0.722506 0.592894 0.388447 0.579605
C13   C     C_R   0.329775 0.634925 0.497211 -0.039018
C14   C     C_R   0.672077 0.405943 0.614725 -0.047298
C15   C     C_R   0.329779 0.365060 0.502766 -0.039011
C16   C     C_R   0.672085 0.593837 0.385061 -0.047297
C17   C     C_R   0.254435 0.499983 0.499938 0.058065
C18   C     C_R   0.747441 0.499742 0.499752 0.065861
C19   C     C_R   0.102848 0.499930 0.499863 -0.039507
C20   C     C_R   0.899178 0.499798 0.499796 -0.040830
C21   C     C_R   0.128487 0.454681 0.353004 -0.047428
C22   C     C_R   0.873541 0.548772 0.644970 -0.052049
C23   C     C_R   0.128470 0.545206 0.646743 -0.047435
C24   C     C_R   0.873556 0.450794 0.354607 -0.052069
C25   C     C_R   0.103472 0.408670 0.207300 -0.137366
C26   C     C_R   0.898559 0.596656 0.789877 -0.135094
C27   C     C_R   0.103438 0.591191 0.792427 -0.137398
C28   C     C_R   0.898591 0.402949 0.209712 -0.135124
C29   C     C_R   0.355016 0.499995 0.500003 -0.218051
C30   C     C_R   0.646203 0.499950 0.499947 -0.225647
H1    H     H_    0.122359 0.373009 0.092817 0.196650
H2    H     H_    0.879681 0.634636 0.903354 0.201409
H3    H     H_    0.122311 0.626873 0.906924 0.196635
H4    H     H_    0.879726 0.364949 0.096222 0.201381
C31   C     C_R   0.975484 0.451451 0.351127 0.039383
C32   C     C_R   0.026543 0.547357 0.648932 0.040003
C33   C     C_R   0.975467 0.548252 0.648510 0.039379
C34   C     C_R   0.026560 0.452413 0.350739 0.039994
C35   C     C_R   0.950275 0.499833 0.499811 0.083851
C36   C     C_R   0.051751 0.499900 0.499844 0.083896
C37   C     C_R   0.948407 0.403378 0.207474 -0.212571
C38   C     C_R   0.053622 0.592594 0.793832 -0.211602
C39   C     C_R   0.948374 0.596295 0.792143 -0.212583
C40   C     C_R   0.053656 0.407208 0.205859 -0.211605
H5    H     H_    0.964331 0.364466 0.090034 0.148087
H6    H     H_    0.037694 0.629702 0.912062 0.147432
H7    H     H_    0.964284 0.635239 0.909589 0.148096
H8    H     H_    0.037742 0.370076 0.087619 0.147440
C41   C     C_1   0.499410 0.065320 0.500194 -0.185454
C42   C     C_1   0.499418 0.934680 0.499804 -0.185415
N3    N     N_1   0.500000 0.500000 0.076820 -0.054131
N4    N     N_1   0.500000 0.500000 0.923180 -0.054097
C43   C     C_3   0.355831 0.218891 0.505159 -0.337180
C44   C     C_3   0.368253 0.169215 0.322985 -0.771000
H9    H     H_    0.334892 0.149040 0.248343 0.286262
H10   H     H_    0.390098 0.253336 0.255413 0.263076
H11   H     H_    0.389364 0.065956 0.328770 0.221919
H12   H     H_    0.389075 0.225631 0.583639 0.179074
H13   H     H_    0.333267 0.133339 0.567388 0.260958
C45   C     C_3   0.647494 0.701507 0.263451 -0.291813
C46   C     C_3   0.627803 0.833396 0.361111 -0.794789
H14   H     H_    0.601961 0.798908 0.461932 0.234160
H15   H     H_    0.657990 0.892667 0.422772 0.266534
H16   H     H_    0.609327 0.909065 0.270415 0.240806
H17   H     H_    0.672947 0.743921 0.165064 0.259870
H18   H     H_    0.619000 0.648005 0.186759 0.212107
C47   C     C_3   0.355823 0.781099 0.494841 -0.337182
C48   C     C_3   0.368238 0.830760 0.677023 -0.770972
H19   H     H_    0.334875 0.850941 0.751658 0.286251
H20   H     H_    0.390080 0.746628 0.744596 0.263079
H21   H     H_    0.389353 0.934014 0.671249 0.221917
H22   H     H_    0.389069 0.774371 0.416362 0.179088
H23   H     H_    0.333258 0.866656 0.432623 0.260974
C49   C     C_3   0.647473 0.298555 0.736642 -0.291708
C50   C     C_3   0.627513 0.166896 0.639329 -0.794807
H24   H     H_    0.609038 0.091480 0.730299 0.240835
H25   H     H_    0.601623 0.201654 0.538862 0.234262
H26   H     H_    0.657538 0.107246 0.577256 0.266234
H27   H     H_    0.672957 0.255821 0.834699 0.259945
H28   H     H_    0.619131 0.352456 0.813645 0.212138
F1    F     F_    0.254335 0.238783 0.504655 -0.612042
F2    F     F_    0.748026 0.685527 0.285814 -0.621183
F3    F     F_    0.254326 0.761183 0.495228 -0.612031
F4    F     F_    0.748009 0.313997 0.713733 -0.621194

loop_
_geom_bond_atom_site_label_1
_geom_bond_atom_site_label_2
_geom_bond_distance
_ccdc_geom_bond_type
C38   H6    1.075091 S    
C48   H21   1.109916 S    
C14   C49   1.522291 S    
O3    C2    1.271475 A    
C33   C39   1.417004 A    
C49   H27   1.110680 S    
C34   C40   1.416908 A    
C46   H14   1.108335 S    
C11   C17   1.398983 A    
C5    O9    1.349924 S    
C7    N1    1.367476 A    
C2    C42   1.407986 S    
O1    C1    1.272657 A    
C19   C21   1.408275 A    
C48   H20   1.109191 S    
C13   C47   1.516168 S    
C12   F2    1.359575 S    
C7    C23   1.403750 A    
O7    Cu1   1.953240 S    
C5    C21   1.403755 A    
C20   C24   1.408113 A    
C8    C24   1.403809 A    
C27   C38   1.387664 A    
C10   C18   1.394703 A    
N1    C17   1.434708 S    
Cu2   N3    1.973380 S    
C44   H9    1.110794 S    
C31   C37   1.417013 A    
O3    Cu1   1.937385 S    
C6    O10   1.349978 S    
C46   H15   1.108696 S    
C47   H22   1.110385 S    
C12   C18   1.394694 A    
C6    N2    1.368378 A    
Cu1   Cu2   2.626204 S    
C21   C25   1.394365 A    
O2    C2    1.272648 A    
C9    F3    1.358991 S    
O5    C3    1.276817 A    
C33   C35   1.422443 A    
C9    C13   1.402563 A    
C47   H23   1.110632 S    
C34   C36   1.422376 A    
C11   C15   1.402559 A    
N3    N4    1.193193 T    
C12   C16   1.404701 A    
C45   C46   1.524421 S    
C4    C30   1.484155 S    
O8    Cu2   1.953243 S    
C45   H18   1.106230 S    
C50   H24   1.110373 S    
C27   H3    1.083658 S    
C23   C27   1.394358 A    
C7    O11   1.349927 S    
C13   C29   1.415829 A    
C26   C39   1.387648 A    
C19   C23   1.408280 A    
C50   H25   1.107999 S    
C15   C43   1.516165 S    
C47   C48   1.526297 S    
O5    Cu1   1.953256 S    
C28   C37   1.387665 A    
O6    C4    1.283023 A    
C44   H11   1.109901 S    
C25   H1    1.083657 S    
C43   H12   1.110381 S    
C26   H2    1.083727 S    
C48   H19   1.110813 S    
C49   H28   1.106076 S    
C32   C38   1.416912 A    
C1    C41   1.407992 S    
C10   C14   1.404717 A    
C8    N2    1.368372 A    
C3    C29   1.462693 S    
O1    Cu1   1.938530 S    
C32   C33   1.422697 A    
C46   H16   1.110464 S    
C28   H4    1.083728 S    
C11   F1    1.358991 S    
O6    Cu2   1.953253 S    
C19   C36   1.423252 A    
C8    O12   1.349974 S    
C16   C30   1.429187 A    
C14   C30   1.429209 A    
C25   C40   1.387675 A    
O4    C1    1.271472 A    
C45   H17   1.110837 S    
C16   C45   1.522311 S    
C37   H5    1.075155 S    
C39   H7    1.075157 S    
C40   H8    1.075095 S    
C31   C34   1.422706 A    
C20   C22   1.408102 A    
C20   C35   1.423246 A    
C50   H26   1.108306 S    
C49   C50   1.524154 S    
C5    N1    1.367482 A    
C43   H13   1.110631 S    
C31   C35   1.422436 A    
O4    Cu2   1.937385 S    
C43   C44   1.526297 S    
O2    Cu2   1.938530 S    
O7    C4    1.283078 A    
N2    C18   1.437115 S    
C9    C17   1.398987 A    
O8    C3    1.276808 A    
C22   C26   1.394656 A    
C24   C28   1.394658 A    
C41   C42   1.189756 T    
C15   C29   1.415828 A    
C6    C22   1.403785 A    
C44   H10   1.109182 S    
C32   C36   1.422367 A    
C10   F4    1.359575 S    
Cu1   N4    1.973380 S    
