data_mof_unit_19165.cif
_audit_creation_date              2012-12-10T17:51:29-0500
_audit_creation_method            fapswitch 2.2
_symmetry_space_group_name_H-M    P1
_symmetry_Int_Tables_number       1
_space_group_crystal_system       triclinic
_cell_length_a                    9.885754
_cell_length_b                    10.630772
_cell_length_c                    16.774114
_cell_angle_alpha                 91.178813
_cell_angle_beta                  85.180527
_cell_angle_gamma                 90.047055
_cell_volume                      1756.23998303

loop_
_atom_site_label
_atom_site_type_symbol
_atom_type_description
_atom_site_fract_x
_atom_site_fract_y
_atom_site_fract_z
_atom_type_partial_charge
C1    C     C_R   0.500915 0.739587 0.491196 0.840982
C2    C     C_R   0.384696 0.545549 0.789824 0.479419
C3    C     C_R   0.439783 0.346139 0.154524 -0.246691
C4    C     C_R   0.430797 0.385443 0.233556 -0.280493
C5    C     C_R   0.643264 0.500850 0.211004 0.398001
C6    C     C_R   0.647585 0.467484 0.129186 0.442480
C7    C     C_R   0.545630 0.389147 0.101716 0.016943
C8    C     C_2   0.424358 0.387920 0.982735 -0.223228
C9    C     C_2   0.540127 0.366144 0.016234 -0.160513
C10   C     C_R   0.530241 0.464302 0.262003 -0.212545
C11   C     C_R   0.265147 0.903758 0.436734 0.408307
C12   C     C_R   0.481274 0.496114 0.652624 0.947611
C13   C     C_R   0.135507 0.952697 0.465775 0.418248
C14   C     C_R   0.128188 0.045355 0.526450 -0.333575
C15   C     C_R   0.245802 0.102083 0.550675 0.519473
C16   C     C_R   0.373770 0.058143 0.517147 -0.098706
C17   C     C_R   0.379452 0.941492 0.477999 -0.098554
C18   C     C_R   0.502315 0.873573 0.479466 -0.059001
C19   C     C_R   0.623444 0.936289 0.491965 -0.192569
C20   C     C_R   0.621354 0.063331 0.506772 -0.162710
C21   C     C_R   0.496699 0.125979 0.517432 -0.058872
C22   C     C_R   0.845383 0.666366 0.602825 -0.188015
C23   C     C_R   0.498483 0.260324 0.508403 0.943174
C24   C     C_R   0.908065 0.750661 0.652158 -0.335640
C25   C     C_R   0.049218 0.749522 0.654224 0.586518
C26   C     C_R   0.125388 0.665582 0.603657 -0.171844
C27   C     C_R   0.064860 0.580720 0.551603 -0.047443
C28   C     C_R   0.920503 0.581002 0.551302 0.170430
C29   C     C_R   0.934700 0.421464 0.451343 -0.267894
C30   C     C_R   0.080447 0.419673 0.451139 0.599937
C31   C     C_R   0.518982 0.495485 0.346964 0.912859
C32   C     C_R   0.468562 0.469416 0.736941 -0.214329
C33   C     C_R   0.531641 0.361667 0.764408 0.185447
C34   C     C_R   0.509673 0.330520 0.844121 -0.202849
C35   C     C_R   0.427688 0.406760 0.897046 0.063280
C36   C     C_R   0.362213 0.511952 0.869639 -0.254006
H1    H     H_    0.719615 0.887474 0.491423 0.190925
H2    H     H_    0.030122 0.082626 0.549133 0.202314
H3    H     H_    0.717222 0.112024 0.509752 0.195023
H4    H     H_    0.881640 0.360032 0.412560 0.151388
H5    H     H_    0.737827 0.672307 0.606584 0.218814
H6    H     H_    0.845320 0.817229 0.688139 0.160717
H7    H     H_    0.346633 0.352145 0.272897 0.228626
H8    H     H_    0.232095 0.669672 0.607257 0.237875
H9    H     H_    0.635340 0.354854 0.979394 0.194623
H10   H     H_    0.300028 0.571906 0.910934 0.156862
H11   H     H_    0.361503 0.285118 0.133891 0.175773
H12   H     H_    0.332960 0.415426 0.019569 0.163188
H13   H     H_    0.559044 0.248110 0.865260 0.173761
N1    N     N_R   0.857140 0.501200 0.500750 -0.117473
N2    N     N_R   0.142740 0.501280 0.500770 -0.142440
O1    O     O_R   0.385310 0.683220 0.500000 -0.670198
O2    O     O_R   0.614640 0.683250 0.500010 -0.647317
O3    O     O_R   0.371780 0.500010 0.615800 -0.591268
O4    O     O_R   0.601110 0.500030 0.615800 -0.607958
O5    O     O_R   0.385360 0.316750 0.499990 -0.528321
O6    O     O_R   0.614690 0.316780 0.500000 -0.618172
O7    O     O_R   0.398890 0.499970 0.384200 -0.618276
O8    O     O_R   0.628220 0.499990 0.384200 -0.585007
Zn1   Zn    Zn3+2 0.346870 0.499980 0.499990 0.999723
Zn2   Zn    Zn3+2 0.653130 0.500020 0.500010 0.963008
Br1   Br    Br    0.647546 0.252106 0.696578 -0.566043
O9    O     O_3   0.750723 0.511471 0.076125 -0.618417
C37   C     C_3   0.714751 0.632169 0.051579 -0.295447
H14   H     H_    0.706260 0.700764 0.102755 0.193397
H15   H     H_    0.618549 0.629759 0.021495 0.156530
H16   H     H_    0.795924 0.666045 0.007535 0.187185
O10   O     O_3   0.284277 0.883869 0.354507 -0.607951
C38   C     C_3   0.328331 0.760930 0.334891 -0.265733
H17   H     H_    0.438842 0.752064 0.340196 0.167216
H18   H     H_    0.312197 0.741508 0.271172 0.173687
H19   H     H_    0.267989 0.690206 0.370182 0.179942
O11   O     O_3   0.016675 0.932486 0.428159 -0.616314
C39   C     C_3   0.005259 0.808739 0.397586 -0.225333
H20   H     H_    0.054727 0.737990 0.432967 0.118428
H21   H     H_    0.045748 0.803640 0.333903 0.202829
H22   H     H_    0.896133 0.783700 0.399495 0.184016
O12   O     O_3   0.233146 0.201067 0.605607 -0.572403
C40   C     C_3   0.261765 0.156836 0.681004 -0.276389
H23   H     H_    0.255564 0.237216 0.724388 0.197195
H24   H     H_    0.366006 0.117062 0.679788 0.174957
H25   H     H_    0.185464 0.085945 0.702908 0.195935
O13   O     O_3   0.118740 0.834813 0.699594 -0.622125
C41   C     C_3   0.053213 0.853669 0.776998 -0.292365
H26   H     H_    0.014957 0.764108 0.803938 0.179767
H27   H     H_    0.970152 0.923728 0.775928 0.161895
H28   H     H_    0.127971 0.893281 0.816393 0.185613
O14   O     O_3   0.165580 0.340046 0.402467 -0.589058
C42   C     C_3   0.097357 0.247828 0.359516 -0.356404
H29   H     H_    0.173950 0.182108 0.329967 0.224212
H30   H     H_    0.043256 0.291513 0.311660 0.141228
H31   H     H_    0.027671 0.190972 0.399822 0.204750
O15   O     O_3   0.740905 0.579259 0.239676 -0.604721
C43   C     C_3   0.861587 0.510040 0.244577 -0.233706
H32   H     H_    0.842444 0.417959 0.273957 0.135101
H33   H     H_    0.929544 0.564986 0.281531 0.161995
H34   H     H_    0.915939 0.495217 0.184466 0.196474
O16   O     O_3   0.324624 0.652919 0.763892 -0.591711
C44   C     C_3   0.417401 0.753271 0.768462 -0.310125
H35   H     H_    0.513165 0.734934 0.730187 0.135384
H36   H     H_    0.439856 0.772860 0.831439 0.153736
H37   H     H_    0.371501 0.839358 0.746049 0.222946

loop_
_geom_bond_atom_site_label_1
_geom_bond_atom_site_label_2
_ccdc_geom_bond_type
C8    C9    D    
C30   N2    A    
C9    H9    S    
O15   C43   S    
C24   H6    S    
O11   C39   S    
C35   C36   A    
C41   H28   S    
C26   H8    S    
C23   O5    A    
O3    Zn1   S    
C26   C27   A    
C16   C21   A    
C39   H21   S    
C31   O7    A    
C41   H27   S    
C18   C19   A    
C3    C7    A    
C5    C6    A    
C22   H5    S    
O7    Zn1   S    
C15   C16   A    
C2    C32   A    
C34   C35   A    
C31   O8    A    
C38   H18   S    
C1    O2    A    
C19   H1    S    
O2    Zn2   S    
C10   C31   S    
O13   C41   S    
C33   Br1   S    
C39   H22   S    
C36   H10   S    
C42   H30   S    
O1    Zn1   S    
C22   C28   A    
C13   C14   A    
C12   C32   S    
C38   H17   S    
C28   N1    A    
C27   N2    A    
C17   C18   A    
C29   N1    A    
O8    Zn2   S    
C39   H20   S    
C37   H16   S    
C41   H26   S    
C40   H24   S    
C20   H3    S    
O12   C40   S    
O10   C38   S    
C43   H34   S    
C25   C26   A    
O5    Zn1   S    
C8    C35   S    
C37   H15   S    
C6    O9    S    
C38   H19   S    
C8    H12   S    
C29   C30   A    
C14   H2    S    
C44   H35   S    
C20   C21   A    
C33   C34   A    
C1    C18   S    
C24   C25   A    
C42   H31   S    
C43   H33   S    
C44   H36   S    
C13   O11   S    
C21   C23   S    
C22   C24   A    
C40   H23   S    
C30   O14   S    
C3    C4    A    
C11   O10   S    
C2    C36   A    
C23   O6    A    
C11   C17   A    
C34   H13   S    
C40   H25   S    
C5    O15   S    
O6    Zn2   S    
C6    C7    A    
C4    H7    S    
C37   H14   S    
C19   C20   A    
C5    C10   A    
C32   C33   A    
C11   C13   A    
C16   C17   A    
O4    Zn2   S    
C29   H4    S    
C3    H11   S    
C43   H32   S    
C1    O1    A    
C12   O4    A    
O9    C37   S    
C15   O12   S    
C7    C9    S    
C44   H37   S    
O14   C42   S    
C2    O16   S    
O16   C44   S    
C27   C28   A    
C25   O13   S    
N1    Zn2   S    
C14   C15   A    
N2    Zn1   S    
C42   H29   S    
C4    C10   A    
C12   O3    A    
