data_mof_unit_56395.cif
_audit_creation_date              2012-12-10T18:58:43-0500
_audit_creation_method            fapswitch 2.2
_symmetry_space_group_name_H-M    P1
_symmetry_Int_Tables_number       1
_space_group_crystal_system       triclinic
_cell_length_a                    10.720836
_cell_length_b                    10.05553
_cell_length_c                    17.558651
_cell_angle_alpha                 90.482491
_cell_angle_beta                  100.088062
_cell_angle_gamma                 90.078395
_cell_volume                      1863.54887386

loop_
_atom_site_label
_atom_site_type_symbol
_atom_type_description
_atom_site_fract_x
_atom_site_fract_y
_atom_site_fract_z
_atom_type_partial_charge
C1    C     C_R   0.260678 0.500145 0.501016 0.907632
C2    C     C_R   0.499986 0.499964 0.646399 0.956728
C3    C     C_R   0.871634 0.501238 0.497581 -0.083272
C4    C     C_R   0.127899 0.500979 0.501158 -0.080040
C5    C     C_R   0.545356 0.609991 0.854684 0.393667
C6    C     C_R   0.616634 0.406974 0.172657 0.370887
C7    C     C_R   0.440632 0.564654 0.142587 0.412006
C8    C     C_R   0.528584 0.367019 0.847613 0.352909
C9    C     C_R   0.523003 0.614141 0.774194 -0.209698
C10   C     C_R   0.603878 0.412321 0.250078 -0.261213
C11   C     C_R   0.432210 0.570381 0.220495 -0.170196
C12   C     C_R   0.739208 0.500260 0.498710 0.903056
C13   C     C_R   0.512951 0.373706 0.767590 -0.216736
C14   C     C_R   0.509588 0.496775 0.730427 -0.198554
C15   C     C_R   0.513199 0.495056 0.273792 -0.166647
C16   C     C_R   0.588442 0.073775 0.552786 0.267726
C17   C     C_R   0.413305 0.926371 0.446146 0.265858
C18   C     C_R   0.412176 0.071905 0.446967 0.266538
C19   C     C_R   0.587198 0.928248 0.553364 0.260402
C20   C     C_R   0.544952 0.485654 0.891270 -0.164780
C21   C     C_R   0.534366 0.483529 0.118781 -0.164602
C22   C     C_1   0.548693 0.480337 0.972219 0.229849
C23   C     C_1   0.544988 0.479411 0.039523 0.235046
C24   C     C_R   0.062821 0.380328 0.497851 -0.133304
C25   C     C_R   0.936737 0.622463 0.502067 -0.117359
C26   C     C_R   0.934233 0.380599 0.493511 -0.135324
C27   C     C_R   0.064963 0.622385 0.503123 -0.132800
C28   C     C_R   0.502035 0.499111 0.354436 0.956146
H1    H     H_    0.516617 0.709097 0.745822 0.244278
H2    H     H_    0.884779 0.334998 0.242529 0.352874
H3    H     H_    0.157591 0.765089 0.080685 0.417587
H4    H     H_    0.400499 0.097275 0.805699 0.365500
H5    H     H_    0.802714 0.345461 0.663957 0.371038
H6    H     H_    0.209431 0.658783 0.324874 0.366423
H7    H     H_    0.201170 0.338207 0.331959 0.368317
H8    H     H_    0.771030 0.662097 0.683896 0.373629
H9    H     H_    0.665326 0.353324 0.292352 0.188230
H10   H     H_    0.360371 0.630844 0.239320 0.236767
H11   H     H_    0.503411 0.282201 0.734197 0.223001
H12   H     H_    0.110675 0.285950 0.498555 0.221999
H13   H     H_    0.889247 0.716966 0.504826 0.207265
H14   H     H_    0.884477 0.286595 0.487284 0.220695
H15   H     H_    0.114288 0.716898 0.505910 0.198100
H16   H     H_    0.705868 0.923744 0.902246 0.435284
N1    N     N_R   0.500000 0.857200 0.500000 -0.229193
N2    N     N_R   0.500000 0.142800 0.500000 -0.232437
O1    O     O_R   0.316770 0.614620 0.500000 -0.573860
O2    O     O_2   0.634861 0.743361 0.988740 -0.264324
O3    O     O_3   0.667935 0.858209 0.862437 -0.439416
O4    O     O_2   0.669797 0.180605 0.105345 -0.134639
O5    O     O_2   0.803872 0.372197 0.090276 -0.251153
O6    O     O_3   0.837643 0.253212 0.223121 -0.486021
O7    O     O_2   0.400831 0.786979 0.060520 -0.167017
O8    O     O_2   0.288534 0.587240 0.003614 -0.271317
O9    O     O_3   0.207964 0.704222 0.118097 -0.505012
O10   O     O_2   0.660704 0.183331 0.935681 -0.177612
O11   O     O_2   0.437237 0.205261 0.946146 -0.236212
O12   O     O_R   0.683230 0.385380 0.500000 -0.572793
O13   O     O_3   0.492965 0.088643 0.823728 -0.462493
O14   O     O_2   0.730067 0.107798 0.698290 -0.166650
O15   O     O_2   0.836344 0.132152 0.587168 -0.293834
O16   O     O_3   0.717956 0.324835 0.633486 -0.529411
O17   O     O_2   0.178700 0.896067 0.353780 -0.200199
O18   O     O_2   0.367019 0.862230 0.295575 -0.231576
O19   O     O_3   0.280511 0.676276 0.368092 -0.551829
O20   O     O_2   0.285215 0.102549 0.299361 -0.161121
O21   O     O_2   0.164679 0.124083 0.405082 -0.292036
O22   O     O_3   0.283292 0.320590 0.366044 -0.526481
O23   O     O_R   0.683230 0.614620 0.500000 -0.569839
O24   O     O_2   0.827501 0.897340 0.634678 -0.211384
O25   O     O_2   0.649616 0.877386 0.703829 -0.227080
O26   O     O_3   0.718549 0.679924 0.632712 -0.536808
O27   O     O_R   0.316770 0.385380 0.500000 -0.575785
O28   O     O_R   0.500010 0.614710 0.389120 -0.548185
O29   O     O_R   0.499990 0.385290 0.610880 -0.570212
O30   O     O_R   0.499990 0.614710 0.610880 -0.566609
O31   O     O_R   0.500010 0.385290 0.389120 -0.552325
O32   O     O_2   0.448403 0.832884 0.903618 -0.167240
S1    S     S_3+6 0.572790 0.763079 0.905991 0.129770
S2    S     S_3+6 0.733745 0.301677 0.145152 0.112738
S3    S     S_3+6 0.333752 0.662443 0.077677 0.105325
S4    S     S_3+6 0.530133 0.208707 0.891214 0.113460
S5    S     S_3+6 0.716720 0.160873 0.617761 0.118070
S6    S     S_3+6 0.309832 0.839251 0.366635 0.123391
S7    S     S_3+6 0.287797 0.156470 0.379598 0.130145
S8    S     S_3+6 0.695656 0.844056 0.630122 0.117525
Zn1   Zn    Zn3+2 0.500000 0.653120 0.500000 1.100079
Zn2   Zn    Zn3+2 0.500000 0.346880 0.500000 1.096687

loop_
_geom_bond_atom_site_label_1
_geom_bond_atom_site_label_2
_ccdc_geom_bond_type
H16   O3    S    
O16   S5    S    
C8    C13   A    
O13   S4    S    
C12   O23   A    
C19   S8    S    
C28   O28   A    
O20   S7    D    
C5    C20   A    
C7    C11   A    
C8    C20   A    
C10   H9    S    
C8    S4    S    
O2    S1    D    
N1    Zn1   S    
C17   N1    A    
C10   C15   A    
C4    C24   A    
O14   S5    D    
O7    S3    D    
O5    S2    D    
O18   S6    D    
C3    C12   S    
C11   C15   A    
O31   Zn2   S    
H5    O16   S    
O28   Zn1   S    
O9    S3    S    
O23   Zn1   S    
C9    H1    S    
C12   O12   A    
C13   C14   A    
O22   S7    S    
C18   N2    A    
H6    O19   S    
N2    Zn2   S    
O21   S7    D    
C18   S7    S    
C3    C25   A    
O15   S5    D    
C16   N2    A    
O32   S1    D    
C1    O1    A    
O19   S6    S    
C7    C21   A    
C6    C21   A    
C16   S5    S    
O3    S1    S    
O4    S2    D    
O1    Zn1   S    
C11   H10   S    
C9    C14   A    
O27   Zn2   S    
C5    C9    A    
O25   S8    D    
C6    S2    S    
C17   C18   A    
C28   O31   A    
O30   Zn1   S    
C7    S3    S    
C20   C22   S    
C21   C23   S    
C5    S1    S    
C25   H13   S    
O24   S8    D    
C4    C27   A    
C2    O30   A    
C26   H14   S    
H2    O6    S    
C22   C23   T    
C3    C26   A    
C24   C26   A    
O12   Zn2   S    
C6    C10   A    
O26   S8    S    
C19   N1    A    
O10   S4    D    
C25   C27   A    
O17   S6    D    
C1    C4    S    
C1    O27   A    
C17   S6    S    
C15   C28   S    
H7    O22   S    
C16   C19   A    
C24   H12   S    
C2    C14   S    
C13   H11   S    
C27   H15   S    
O29   Zn2   S    
O11   S4    D    
H4    O13   S    
H3    O9    S    
O6    S2    S    
O8    S3    D    
C2    O29   A    
H8    O26   S    
