data_mof_unit_47249.cif
_audit_creation_date              2012-12-10T20:31:59-0500
_audit_creation_method            fapswitch 2.2
_symmetry_space_group_name_H-M    P1
_symmetry_Int_Tables_number       1
_space_group_crystal_system       triclinic
_cell_length_a                    9.964312
_cell_length_b                    10.722821
_cell_length_c                    15.526861
_cell_angle_alpha                 91.089862
_cell_angle_beta                  68.747312
_cell_angle_gamma                 91.97532
_cell_volume                      1545.19354516

loop_
_atom_site_label
_atom_site_type_symbol
_atom_type_description
_atom_site_fract_x
_atom_site_fract_y
_atom_site_fract_z
_atom_type_partial_charge
C1    C     C_R   0.499657 0.739110 0.505143 0.851209
C2    C     C_R   0.698639 0.628479 0.047174 0.149999
C3    C     C_R   0.566355 0.566199 0.095648 0.088111
C4    C     C_R   0.409574 0.500446 0.675524 0.849751
C5    C     C_R   0.799561 0.650927 0.089099 -0.251229
C6    C     C_R   0.768676 0.616013 0.180897 0.091414
C7    C     C_R   0.554375 0.504879 0.176702 -0.288552
C8    C     C_R   0.480035 0.931246 0.435472 0.107953
C9    C     C_R   0.507682 0.870931 0.504425 -0.071948
C10   C     C_R   0.552972 0.939520 0.567033 -0.233488
C11   C     C_R   0.546680 0.069298 0.567551 -0.210423
C12   C     C_R   0.399956 0.549221 0.917291 0.091644
C13   C     C_R   0.496252 0.127682 0.505074 -0.089554
C14   C     C_R   0.477085 0.058171 0.433902 0.107453
C15   C     C_3   0.355828 0.050021 0.399098 -0.438038
C16   C     C_R   0.497449 0.260244 0.501976 0.888840
C17   C     C_3   0.361543 0.910273 0.400969 -0.529536
C18   C     C_R   0.908307 0.592400 0.544041 0.185711
C19   C     C_R   0.953630 0.419634 0.446521 -0.163537
C20   C     C_R   0.096698 0.420515 0.445226 0.185409
C21   C     C_R   0.050149 0.593153 0.543218 0.113188
C22   C     C_3   0.005272 0.634453 0.641416 -0.127376
C23   C     C_R   0.256263 0.512738 0.969513 0.140411
C24   C     C_3   0.850258 0.627861 0.643913 -0.528524
C25   C     C_R   0.590564 0.507309 0.324414 0.888142
C26   C     C_R   0.352386 0.506869 0.776508 -0.054165
C27   C     C_R   0.645198 0.537422 0.224894 -0.098719
C28   C     C_R   0.159729 0.480657 0.924918 -0.196324
C29   C     C_R   0.207541 0.478203 0.828612 -0.205243
C30   C     C_R   0.445959 0.543296 0.821030 -0.259980
C31   C     C_3   0.063362 0.767497 0.649053 -0.354928
C32   C     C_3   0.007170 0.815908 0.748548 -0.377051
C33   C     C_3   0.070428 0.945798 0.755306 -0.870113
C34   C     C_R   0.496106 0.584148 0.962228 0.042451
C35   C     C_3   0.851266 0.687383 0.231502 -0.428097
C36   C     C_3   0.772673 0.807873 0.270769 -0.322254
C37   C     C_3   0.848386 0.887605 0.322693 -0.845876
C38   C     C_3   0.236099 0.574063 0.212668 -0.401482
C39   C     C_3   0.234062 0.715233 0.227091 -0.343682
C40   C     C_3   0.148050 0.745464 0.327973 -0.915275
C41   C     C_R   0.455547 0.560375 0.057987 0.035126
C42   C     C_R   0.305591 0.539610 0.111198 0.096096
C43   C     C_R   0.209599 0.512461 0.065445 -0.277708
C44   C     C_R   0.630215 0.645311 0.914847 -0.224464
C45   C     C_R   0.727337 0.670873 0.958277 -0.236635
H1    H     H_    0.096143 0.494776 0.104970 0.151519
H2    H     H_    0.027939 0.564785 0.686177 0.174387
H3    H     H_    0.472752 0.432644 0.203614 0.185113
H4    H     H_    0.786890 0.549804 0.687269 0.194873
H5    H     H_    0.795544 0.718675 0.655880 0.191924
H6    H     H_    0.826901 0.721298 0.921698 0.140630
H7    H     H_    0.048110 0.455926 0.964441 0.146986
H8    H     H_    0.132531 0.451243 0.795172 0.150543
H9    H     H_    0.556476 0.562500 0.779187 0.149172
H10   H     H_    0.659479 0.680490 0.845625 0.140655
H11   H     H_    0.189817 0.943527 0.731507 0.265246
H12   H     H_    0.896147 0.706710 0.053307 0.140556
H13   H     H_    0.039771 0.012796 0.712387 0.264126
H14   H     H_    0.028168 0.978449 0.828267 0.250301
H15   H     H_    0.887938 0.820620 0.773836 0.226969
H16   H     H_    0.038265 0.751337 0.792839 0.223631
H17   H     H_    0.182231 0.766138 0.625473 0.230067
H18   H     H_    0.034397 0.832512 0.603900 0.201062
H19   H     H_    0.846597 0.838478 0.385353 0.273630
H20   H     H_    0.960934 0.910239 0.276967 0.265745
H21   H     H_    0.791624 0.976568 0.344821 0.254422
H22   H     H_    0.764602 0.864371 0.213591 0.219955
H23   H     H_    0.584839 0.893275 0.617754 0.147661
H24   H     H_    0.662078 0.782910 0.317717 0.217754
H25   H     H_    0.867891 0.631754 0.285609 0.230919
H26   H     H_    0.960888 0.712222 0.182322 0.195258
H27   H     H_    0.140450 0.847974 0.338214 0.268449
H28   H     H_    0.037964 0.703316 0.349428 0.265095
H29   H     H_    0.201581 0.706056 0.372241 0.278460
H30   H     H_    0.346057 0.753268 0.208630 0.225756
H31   H     H_    0.185158 0.760341 0.182276 0.223687
H32   H     H_    0.123454 0.535762 0.240787 0.205040
H33   H     H_    0.287968 0.535099 0.256630 0.241649
H34   H     H_    0.575812 0.123373 0.618154 0.157849
H35   H     H_    0.253893 0.085704 0.450050 0.237325
H36   H     H_    0.390163 0.083936 0.326994 0.231321
H37   H     H_    0.263844 0.867364 0.453610 0.223626
H38   H     H_    0.400499 0.866436 0.331229 0.214990
H39   H     H_    0.920163 0.354122 0.403807 0.176138
I1    I     I_    0.230013 0.300770 0.346475 -0.496291
N1    N     N_R   0.856900 0.500860 0.500610 -0.119287
N2    N     N_R   0.142540 0.500820 0.500610 -0.128792
O1    O     O_R   0.385310 0.683210 0.499990 -0.635705
O2    O     O_R   0.614650 0.683240 0.500000 -0.613524
O3    O     O_R   0.319830 0.499970 0.632240 -0.624754
O4    O     O_R   0.549170 0.500000 0.632250 -0.614414
O5    O     O_R   0.385350 0.316760 0.500000 -0.582220
O6    O     O_R   0.614690 0.316790 0.500010 -0.614760
O7    O     O_R   0.450830 0.500000 0.367750 -0.585780
O8    O     O_R   0.680170 0.500030 0.367760 -0.624782
Zn1   Zn    Zn3+2 0.346870 0.499980 0.499990 0.951491
Zn2   Zn    Zn3+2 0.653130 0.500020 0.500010 0.937620

loop_
_geom_bond_atom_site_label_1
_geom_bond_atom_site_label_2
_ccdc_geom_bond_type
O1    Zn1   S    
C33   H13   S    
C18   C21   A    
C11   C13   A    
C41   C42   A    
C19   C20   A    
C19   N1    A    
C21   N2    A    
C36   H22   S    
C23   C43   A    
C15   H36   S    
C6    C35   S    
C30   H9    S    
C12   C23   A    
C16   O6    A    
C18   N1    A    
C18   C24   S    
C36   C37   S    
C32   H16   S    
C38   C42   S    
C3    C7    A    
C38   C39   S    
C45   H6    S    
C20   N2    A    
O5    Zn1   S    
C7    C27   A    
C40   H28   S    
C17   H37   S    
N1    Zn2   S    
C3    C41   A    
C15   H35   S    
C35   H25   S    
C8    C9    A    
C37   H20   S    
C8    C14   A    
C39   H30   S    
C9    C10   A    
C4    O4    A    
C33   H11   S    
C22   H2    S    
C35   H26   S    
C25   O7    A    
C33   H14   S    
C21   C22   S    
C37   H21   S    
C31   H17   S    
C34   C41   A    
C4    O3    A    
C2    C45   A    
C24   H5    S    
C22   C31   S    
C31   H18   S    
C34   C44   A    
C39   C40   S    
C38   H33   S    
C23   C28   A    
O2    Zn2   S    
C17   H38   S    
C35   C36   S    
C6    C27   A    
C20   I1    S    
C1    C9    S    
C39   H31   S    
O4    Zn2   S    
O7    Zn1   S    
C11   H34   S    
C25   O8    A    
C22   C24   S    
C2    C5    A    
C42   C43   A    
C32   H15   S    
C12   C34   A    
C19   H39   S    
O6    Zn2   S    
C37   H19   S    
C44   C45   A    
C24   H4    S    
C15   C17   S    
C28   C29   A    
C1    O2    A    
C40   H27   S    
C12   C30   A    
C31   C32   S    
C4    C26   S    
O8    Zn2   S    
N2    Zn1   S    
O3    Zn1   S    
C38   H32   S    
C10   H23   S    
C25   C27   S    
C8    C17   S    
C5    H12   S    
C32   C33   S    
C2    C3    A    
C7    H3    S    
C28   H7    S    
C44   H10   S    
C5    C6    A    
C29   H8    S    
C1    O1    A    
C40   H29   S    
C36   H24   S    
C43   H1    S    
C10   C11   A    
C16   O5    A    
C26   C29   A    
C13   C16   S    
C14   C15   S    
C13   C14   A    
C26   C30   A    
