data_mof_unit_53702.cif
_audit_creation_date              2012-10-26T20:11:38-0400
_audit_creation_method            fapswitch 2.2
_symmetry_space_group_name_H-M    P1
_symmetry_Int_Tables_number       1
_space_group_crystal_system       triclinic
_cell_length_a                    10.930049
_cell_length_b                    15.063491
_cell_length_c                    13.977126
_cell_angle_alpha                 88.516823
_cell_angle_beta                  101.614556
_cell_angle_gamma                 92.121116
_cell_volume                      2252.19548034

loop_
_atom_site_label
_atom_site_type_symbol
_atom_type_description
_atom_site_fract_x
_atom_site_fract_y
_atom_site_fract_z
_atom_type_partial_charge
C1    C     C_R   0.502621 0.330118 0.501111 0.538303
C2    C     C_R   0.520889 0.579967 0.788175 0.032139
C3    C     C_R   0.378136 0.476181 0.093157 -0.012975
C4    C     C_R   0.506914 0.590652 0.886590 -0.013157
C5    C     C_R   0.476607 0.514209 0.050709 0.023737
C6    C     C_R   0.479786 0.514921 0.942549 0.022431
C7    C     C_R   0.261932 0.501024 0.460376 0.569691
C8    C     C_R   0.738140 0.501031 0.539526 0.562514
C9    C     C_2   0.124185 0.499697 0.438326 0.002312
C10   C     C_2   0.875684 0.499424 0.561183 -0.000312
C11   C     C_2   0.065545 0.460773 0.505082 -0.170234
C12   C     C_R   0.502512 0.670063 0.499432 0.533882
C13   C     C_2   0.929920 0.460264 0.495567 -0.171938
C14   C     C_R   0.448669 0.088490 0.552472 -0.140357
C15   C     C_R   0.477924 0.908188 0.415627 -0.142207
C16   C     C_R   0.441746 0.179995 0.554223 -0.159667
C17   C     C_R   0.470070 0.816075 0.413998 -0.153301
C18   C     C_R   0.513096 0.233949 0.502669 0.001631
C19   C     C_R   0.512507 0.766849 0.499529 -0.004764
C20   C     C_R   0.591264 0.195727 0.448088 -0.118591
C21   C     C_R   0.565154 0.810286 0.586336 -0.125599
C22   C     C_R   0.600823 0.103294 0.446192 0.021523
C23   C     C_R   0.529438 0.049437 0.500879 0.047802
C24   C     C_R   0.575243 0.902992 0.589211 0.023410
C25   C     C_3   0.254232 0.444932 0.031443 -0.286558
C26   C     C_3   0.181685 0.521902 0.977032 -0.441952
C27   C     C_3   0.519607 0.683642 0.927507 -0.284918
C28   C     C_3   0.395862 0.714982 0.947052 -0.437194
C29   C     C_3   0.956144 0.542417 0.651735 -0.278675
C30   C     C_3   0.887497 0.599792 0.711378 -0.428628
C31   C     C_3   0.048492 0.544016 0.346845 -0.287052
C32   C     C_3   0.122638 0.601044 0.284788 -0.423621
C33   C     C_3   0.684125 0.065424 0.383472 -0.274571
C34   C     C_R   0.531233 0.952260 0.501979 0.047187
C35   C     C_3   0.800572 0.023932 0.444177 -0.443082
C36   C     C_3   0.629844 0.945979 0.686409 -0.273652
C37   C     C_3   0.757400 0.991010 0.687503 -0.441659
C38   C     C_3   0.715830 0.582461 0.271835 -0.208433
C39   C     C_3   0.697618 0.672745 0.315668 -0.255353
C40   C     C_3   0.787857 0.745701 0.290984 -0.487930
C41   C     C_3   0.425531 0.335575 0.757562 -0.201198
C42   C     C_3   0.290155 0.338491 0.699120 -0.272332
C43   C     C_3   0.209605 0.258142 0.720684 -0.487061
C44   C     C_R   0.584301 0.542073 0.114310 -0.145983
C45   C     C_R   0.469874 0.433873 0.897095 -0.146281
C46   C     C_R   0.594883 0.539255 0.216451 0.140431
C47   C     C_R   0.471517 0.426362 0.796998 0.139493
C48   C     C_R   0.394680 0.468134 0.196990 0.031620
Cu1   Cu    Cu3+1 0.500000 0.499990 0.596430 0.907447
Cu2   Cu    Cu3+1 0.500000 0.500010 0.403570 0.902545
H1    H     H_    0.874083 0.430435 0.430460 0.129843
H2    H     H_    0.456625 0.375104 0.940701 0.089576
H3    H     H_    0.320460 0.437541 0.228281 0.125537
H4    H     H_    0.546019 0.638093 0.749232 0.125044
H5    H     H_    0.171172 0.574443 0.028867 0.141797
H6    H     H_    0.229667 0.550481 0.920013 0.163227
H7    H     H_    0.087184 0.497430 0.940426 0.132721
H8    H     H_    0.268062 0.394595 0.978596 0.141472
H9    H     H_    0.194454 0.411711 0.078238 0.122303
H10   H     H_    0.321296 0.708459 0.880426 0.146862
H11   H     H_    0.367972 0.676125 0.008104 0.161298
H12   H     H_    0.118062 0.433722 0.572494 0.128932
H13   H     H_    0.406314 0.785919 0.967835 0.128346
H14   H     H_    0.592029 0.687374 0.995300 0.138570
H15   H     H_    0.550943 0.731902 0.875143 0.117040
H16   H     H_    0.828071 0.647973 0.663250 0.150186
H17   H     H_    0.830136 0.557689 0.752993 0.174601
H18   H     H_    0.957033 0.637805 0.765340 0.117154
H19   H     H_    0.004844 0.489659 0.700437 0.137392
H20   H     H_    0.028756 0.586492 0.627942 0.153223
H21   H     H_    0.188173 0.648170 0.331030 0.161979
H22   H     H_    0.174129 0.558661 0.243726 0.167639
H23   H     H_    0.389683 0.047670 0.590866 0.104044
H24   H     H_    0.056858 0.640264 0.230294 0.113878
H25   H     H_    0.992784 0.492351 0.300063 0.130037
H26   H     H_    0.982698 0.588993 0.370690 0.147002
H27   H     H_    0.852239 0.072359 0.497431 0.146355
H28   H     H_    0.775501 0.963096 0.483171 0.164045
H29   H     H_    0.863086 0.004737 0.395169 0.130637
H30   H     H_    0.631380 0.015729 0.332667 0.137964
H31   H     H_    0.715765 0.118628 0.336501 0.130059
H32   H     H_    0.798616 0.013013 0.762666 0.129211
H33   H     H_    0.821522 0.943873 0.664834 0.144002
H34   H     H_    0.439850 0.945426 0.349671 0.103676
H35   H     H_    0.748469 0.050526 0.638660 0.166551
H36   H     H_    0.565115 0.994563 0.705106 0.139947
H37   H     H_    0.641802 0.895271 0.746548 0.123616
H38   H     H_    0.886098 0.727680 0.319912 0.147128
H39   H     H_    0.773452 0.756341 0.210593 0.145915
H40   H     H_    0.770459 0.808839 0.324623 0.146074
H41   H     H_    0.601294 0.695646 0.287592 0.180920
H42   H     H_    0.714169 0.665880 0.396411 0.185082
H43   H     H_    0.769364 0.536100 0.324085 0.147442
H44   H     H_    0.782694 0.593758 0.221987 0.095725
H45   H     H_    0.377522 0.208271 0.592963 0.111859
H46   H     H_    0.252890 0.195074 0.708328 0.142792
H47   H     H_    0.197781 0.259081 0.797759 0.148123
H48   H     H_    0.115850 0.260803 0.672161 0.142249
H49   H     H_    0.244779 0.398728 0.718016 0.159433
H50   H     H_    0.289586 0.341441 0.619855 0.183791
H51   H     H_    0.492332 0.303627 0.721455 0.159667
H52   H     H_    0.425893 0.287140 0.819101 0.094687
H53   H     H_    0.427948 0.783426 0.346615 0.115913
H54   H     H_    0.645284 0.238391 0.407274 0.114191
H55   H     H_    0.599266 0.771622 0.652118 0.101550
H56   H     H_    0.662535 0.566161 0.083020 0.087487
N1    N     N_R   0.500000 0.500020 0.258690 -0.221666
N2    N     N_R   0.500000 0.499980 0.741310 -0.220751
O1    O     O_R   0.500010 0.371450 0.581440 -0.515500
O2    O     O_R   0.499990 0.628550 0.418560 -0.513561
O3    O     O_R   0.500010 0.371460 0.418560 -0.496369
O4    O     O_R   0.499990 0.628540 0.581440 -0.516748
O5    O     O_R   0.320690 0.500000 0.551510 -0.505825
O6    O     O_R   0.679310 0.500000 0.448490 -0.521612
O7    O     O_R   0.320690 0.500010 0.388630 -0.504512
O8    O     O_R   0.679310 0.499990 0.611370 -0.488113

loop_
_geom_bond_atom_site_label_1
_geom_bond_atom_site_label_2
_ccdc_geom_bond_type
Cu1   O5    S    
C6    C45   A    
C41   C42   S    
C43   H48   S    
C11   H12   S    
C26   H5    S    
C12   O2    A    
C32   H22   S    
C1    C18   S    
C24   C36   S    
C37   H35   S    
C36   C37   S    
C19   C21   A    
C32   H24   S    
C38   C39   S    
C48   N1    A    
C3    C48   A    
Cu2   O2    S    
C41   H52   S    
C38   H43   S    
C7    C9    S    
Cu2   O7    S    
C7    O7    A    
C1    O1    A    
C13   H1    S    
C40   H39   S    
Cu1   N2    S    
C15   C34   A    
C30   H17   S    
C8    O6    A    
C28   H11   S    
C45   C47   A    
C39   H41   S    
C2    N2    A    
C44   C46   A    
C32   H21   S    
C29   H19   S    
C28   H10   S    
C36   H37   S    
C48   H3    S    
C14   H23   S    
C3    C25   S    
C4    C6    A    
C2    H4    S    
C39   C40   S    
C8    O8    A    
C17   C19   A    
C45   H2    S    
C36   H36   S    
C25   C26   S    
C35   H27   S    
C24   C34   A    
Cu2   O6    S    
C14   C23   A    
C2    C4    A    
C29   C30   S    
C27   H15   S    
C42   H50   S    
C31   H25   S    
C31   C32   S    
C23   C34   S    
C46   N1    A    
C38   H44   S    
C43   H46   S    
C41   C47   S    
C9    C11   D    
C30   H16   S    
Cu1   O4    S    
C16   C18   A    
C5    C44   A    
C20   C22   A    
Cu1   Cu2   S    
Cu2   N1    S    
C14   C16   A    
C37   H32   S    
C42   C43   S    
C39   H42   S    
C12   O4    A    
C4    C27   S    
Cu1   O1    S    
C29   H20   S    
C15   C17   A    
C22   C33   S    
C16   H45   S    
C43   H47   S    
C3    C5    A    
C10   C13   D    
C26   H6    S    
C33   H30   S    
C15   H34   S    
C20   H54   S    
C44   H56   S    
C35   H28   S    
C7    O5    A    
C17   H53   S    
C42   H49   S    
C1    O3    A    
C11   C13   S    
C10   C29   S    
C40   H38   S    
C31   H26   S    
C5    C6    S    
C12   C19   S    
C35   H29   S    
Cu2   O3    S    
C33   C35   S    
C41   H51   S    
C18   C20   A    
C26   H7    S    
C30   H18   S    
C38   C46   S    
C27   H14   S    
C9    C31   S    
C28   H13   S    
Cu1   O8    S    
C8    C10   S    
C47   N2    A    
C25   H8    S    
C21   C24   A    
C27   C28   S    
C22   C23   A    
C37   H33   S    
C25   H9    S    
C40   H40   S    
C33   H31   S    
C21   H55   S    
