data_mof_unit_35583.cif
_audit_creation_date              2012-10-26T20:21:10-0400
_audit_creation_method            fapswitch 2.2
_symmetry_space_group_name_H-M    P1
_symmetry_Int_Tables_number       1
_space_group_crystal_system       triclinic
_cell_length_a                    9.520547
_cell_length_b                    10.834022
_cell_length_c                    15.500533
_cell_angle_alpha                 89.880935
_cell_angle_beta                  74.499793
_cell_angle_gamma                 90.010298
_cell_volume                      1540.66161949

loop_
_atom_site_label
_atom_site_type_symbol
_atom_type_description
_atom_site_fract_x
_atom_site_fract_y
_atom_site_fract_z
_atom_type_partial_charge
C1    C     C_R   0.999927 0.262075 0.500071 0.551586
C2    C     C_R   0.127706 0.063890 0.499823 -0.139174
C3    C     C_R   0.000051 0.871781 0.499940 0.019991
C4    C     C_R   0.999934 0.128223 0.500095 0.020208
C5    C     C_R   0.548604 0.428146 0.559007 0.009283
C6    C     C_R   0.451390 0.571870 0.441007 0.009431
C7    C     C_R   0.399786 0.428254 0.559029 0.007184
C8    C     C_R   0.600209 0.571757 0.440982 0.007093
C9    C     C_R   0.918277 0.498301 0.672082 0.548309
C10   C     C_R   0.081725 0.500432 0.327852 0.548148
C11   C     C_R   0.872802 0.485625 0.769794 -0.000709
C12   C     C_R   0.000067 0.737926 0.499943 0.551772
C13   C     C_R   0.126620 0.502831 0.229629 -0.001404
C14   C     C_R   0.918009 0.417787 0.908435 -0.144350
C15   C     C_R   0.074953 0.539522 0.087431 -0.142186
C16   C     C_R   0.968988 0.442537 0.817234 -0.140787
C17   C     C_R   0.027037 0.529531 0.180197 -0.139238
C18   C     C_R   0.726639 0.506481 0.814582 -0.133925
C19   C     C_R   0.273232 0.482406 0.185313 -0.134905
C20   C     C_R   0.670967 0.477576 0.905779 0.033711
C21   C     C_R   0.323930 0.488673 0.091522 0.033336
C22   C     C_R   0.770287 0.434898 0.952961 0.049263
C23   C     C_R   0.576019 0.424994 0.089358 -0.140579
C24   C     C_R   0.222304 0.520490 0.042906 0.049881
C25   C     C_R   0.520084 0.489621 0.951107 0.034026
C26   C     C_R   0.473008 0.468120 0.045153 0.033103
C27   C     C_R   0.414292 0.519615 0.905252 -0.139346
C28   C     C_R   0.721295 0.408298 0.043843 -0.139970
C29   C     C_R   0.268579 0.534137 0.950442 -0.139916
C30   C     C_R   0.872207 0.063817 0.500324 -0.138487
C31   C     C_R   0.127775 0.936189 0.499721 -0.138593
C32   C     C_R   0.872275 0.936116 0.500222 -0.139143
Cu1   Cu    Cu3+1 0.140660 0.500020 0.500000 0.933258
Cu2   Cu    Cu3+1 0.859340 0.499980 0.500000 0.933564
H1    H     H_    0.796052 0.374309 0.080314 0.111610
H2    H     H_    0.439203 0.529891 0.833688 0.101447
H3    H     H_    0.772290 0.111811 0.500575 0.128599
H4    H     H_    0.227691 0.888196 0.499470 0.128695
H5    H     H_    0.772414 0.888065 0.500381 0.128538
H6    H     H_    0.227567 0.111941 0.499664 0.128396
H7    H     H_    0.323060 0.370692 0.606245 0.103073
H8    H     H_    0.676930 0.629333 0.393777 0.104019
H9    H     H_    0.583993 0.370354 0.606183 0.109825
H10   H     H_    0.415992 0.629685 0.393850 0.109436
H11   H     H_    0.191712 0.557782 0.912567 0.111518
H12   H     H_    0.346503 0.465313 0.226066 0.120373
H13   H     H_    0.658794 0.545720 0.776197 0.119621
H14   H     H_    0.913189 0.546066 0.213285 0.123955
H15   H     H_    0.082381 0.425027 0.783540 0.121037
H16   H     H_    0.993596 0.382858 0.943901 0.112038
H17   H     H_    0.997049 0.564072 0.050558 0.114288
H18   H     H_    0.547748 0.399467 0.159017 0.103827
N1    N     N_R   0.352080 0.500030 0.499980 -0.224051
N2    N     N_R   0.647920 0.499970 0.500020 -0.224226
O1    O     O_R   0.118740 0.319660 0.500000 -0.507738
O2    O     O_R   0.881260 0.680340 0.500000 -0.507390
O3    O     O_R   0.881170 0.319630 0.500010 -0.506392
O4    O     O_R   0.118830 0.680370 0.499990 -0.506104
O5    O     O_R   0.055570 0.500030 0.629830 -0.503150
O6    O     O_R   0.944430 0.499970 0.370170 -0.503509
O7    O     O_R   0.818000 0.500000 0.629840 -0.508605
O8    O     O_R   0.182000 0.500000 0.370160 -0.509567

loop_
_geom_bond_atom_site_label_1
_geom_bond_atom_site_label_2
_ccdc_geom_bond_type
Cu1   O1    S    
Cu2   O3    S    
C2    C4    A    
C21   C26   A    
C31   H4    S    
C11   C18   A    
Cu2   O2    S    
Cu1   O4    S    
C1    O3    A    
C27   H2    S    
C27   C29   A    
C11   C16   A    
C10   O6    A    
C12   O2    A    
C17   H14   S    
C13   C17   A    
C3    C31   A    
C1    C4    S    
C12   O4    A    
C18   H13   S    
C14   C22   A    
Cu1   Cu2   S    
C5    H9    S    
C19   H12   S    
Cu1   O5    S    
C22   C28   A    
C23   C28   A    
Cu2   O6    S    
C9    C11   S    
C23   H18   S    
C10   O8    A    
C9    O7    A    
C6    C8    A    
C15   C24   A    
C19   C21   A    
C20   C22   A    
Cu2   N2    S    
C15   H17   S    
C7    H7    S    
Cu1   N1    S    
C3    C32   A    
C14   C16   A    
C1    O1    A    
C21   C24   A    
C7    N1    A    
C25   C27   A    
C20   C25   A    
C14   H16   S    
C6    N1    A    
C8    H8    S    
C30   C32   A    
C2    H6    S    
C5    N2    A    
C16   H15   S    
C30   H3    S    
C18   C20   A    
C5    C7    A    
C23   C26   A    
C8    N2    A    
C15   C17   A    
C13   C19   A    
C24   C29   A    
C2    C31   A    
C6    H10   S    
C3    C12   S    
C32   H5    S    
C25   C26   A    
Cu2   O7    S    
C4    C30   A    
C28   H1    S    
C29   H11   S    
Cu1   O8    S    
C9    O5    A    
C10   C13   S    
