data_mof_unit_9971.cif
_audit_creation_date              2012-10-26T20:16:49-0400
_audit_creation_method            fapswitch 2.2
_symmetry_space_group_name_H-M    P1
_symmetry_Int_Tables_number       1
_space_group_crystal_system       triclinic
_cell_length_a                    10.852001
_cell_length_b                    10.861397
_cell_length_c                    10.423587
_cell_angle_alpha                 90.398291
_cell_angle_beta                  90.264328
_cell_angle_gamma                 90.053109
_cell_volume                      1228.56289337

loop_
_atom_site_label
_atom_site_type_symbol
_atom_type_description
_atom_site_fract_x
_atom_site_fract_y
_atom_site_fract_z
_atom_type_partial_charge
C1    C     C_R   0.495553 0.261515 0.499214 0.544272
C2    C     C_R   0.691976 0.829665 0.744101 -0.100313
C3    C     C_R   0.425120 0.115768 0.263186 0.035507
C4    C     C_R   0.575042 0.884224 0.736722 0.035475
C5    C     C_R   0.499312 0.110353 0.153376 -0.153409
C6    C     C_R   0.500930 0.889415 0.846594 -0.153322
C7    C     C_R   0.457574 0.160132 0.037712 -0.070888
C8    C     C_R   0.542832 0.839569 0.962159 -0.070893
C9    C     C_R   0.341022 0.214682 0.029668 0.260267
C10   C     C_R   0.659466 0.785177 0.970038 0.260353
C11   C     C_R   0.476760 0.932537 0.388246 -0.148030
C12   C     C_R   0.504437 0.738485 0.500785 0.544291
C13   C     C_R   0.523192 0.067457 0.611756 -0.147942
C14   C     C_R   0.506864 0.872098 0.502224 -0.002234
C15   C     C_R   0.493100 0.127901 0.497773 -0.002240
C16   C     C_R   0.261546 0.503975 0.499450 0.540639
C17   C     C_R   0.738453 0.496031 0.500551 0.540656
C18   C     C_R   0.532395 0.940359 0.615260 -0.025334
C19   C     C_R   0.467591 0.059639 0.384726 -0.025338
C20   C     C_1   0.500002 0.499987 0.071932 0.143280
C21   C     C_1   0.500000 0.500014 0.928068 0.143335
C22   C     C_R   0.230744 0.762319 0.169574 -0.103326
C23   C     C_R   0.872013 0.493908 0.501597 -0.005944
C24   C     C_R   0.769331 0.237528 0.830301 -0.103316
C25   C     C_R   0.178976 0.712015 0.280200 -0.057899
C26   C     C_R   0.821058 0.287924 0.719702 -0.057934
C27   C     C_R   0.117805 0.598026 0.273964 0.056627
C28   C     C_R   0.882196 0.401928 0.726008 0.056615
C29   C     C_R   0.108635 0.535738 0.155764 -0.097543
C30   C     C_R   0.891362 0.464144 0.844248 -0.097501
C31   C     C_R   0.162348 0.585352 0.045932 -0.117302
C32   C     C_R   0.837690 0.414436 0.954055 -0.117223
C33   C     C_R   0.223190 0.698660 0.052785 -0.103500
C34   C     C_R   0.127986 0.506114 0.498406 -0.005933
C35   C     C_R   0.776892 0.301110 0.947134 -0.103457
C36   C     C_R   0.932739 0.537397 0.392741 -0.154997
C37   C     C_R   0.067258 0.462632 0.607266 -0.154981
C38   C     C_R   0.939805 0.454800 0.610025 -0.035927
C39   C     C_R   0.060193 0.545219 0.389978 -0.035945
C40   C     C_R   0.266309 0.219486 0.139749 -0.099751
C41   C     C_R   0.734098 0.780612 0.859895 -0.099712
C42   C     C_R   0.308267 0.170493 0.255644 -0.100152
Cu1   Cu    Cu3+1 0.500000 0.500000 0.625300 1.012575
Cu2   Cu    Cu3+1 0.500000 0.500000 0.374700 1.012498
H1    H     H_    0.263946 0.737377 0.967484 0.110534
H2    H     H_    0.724021 0.148859 0.825770 0.096877
H3    H     H_    0.185733 0.761993 0.370253 0.095618
H4    H     H_    0.814304 0.238001 0.629616 0.095608
H5    H     H_    0.060395 0.448676 0.149068 0.091910
H6    H     H_    0.939572 0.551216 0.851001 0.091907
H7    H     H_    0.156377 0.536260 0.955400 0.107327
H8    H     H_    0.843666 0.463466 0.044621 0.107475
H9    H     H_    0.880576 0.569215 0.310339 0.142110
H10   H     H_    0.119421 0.430807 0.689665 0.141957
H11   H     H_    0.175448 0.260070 0.135639 0.087621
H12   H     H_    0.736175 0.262317 0.032417 0.110564
H13   H     H_    0.825019 0.740156 0.863872 0.087620
H14   H     H_    0.249465 0.174332 0.339277 0.108384
H15   H     H_    0.750711 0.825997 0.660414 0.108363
H16   H     H_    0.219320 0.297500 0.924144 0.311535
H17   H     H_    0.781371 0.702425 0.075350 0.311555
H18   H     H_    0.589401 0.067652 0.157430 0.123245
H19   H     H_    0.410775 0.931979 0.842661 0.123235
H20   H     H_    0.515731 0.155703 0.953741 0.124322
H21   H     H_    0.484732 0.843812 0.046179 0.124344
H22   H     H_    0.456774 0.880412 0.301639 0.140332
H23   H     H_    0.543189 0.119579 0.698363 0.140476
H24   H     H_    0.276085 0.850973 0.174052 0.096882
N1    N     N_1   0.500010 0.499990 0.186410 -0.174187
N2    N     N_1   0.499990 0.500010 0.813590 -0.174124
O1    O     O_R   0.499990 0.319650 0.605810 -0.489594
O2    O     O_3   0.697850 0.737966 0.086003 -0.707077
O3    O     O_R   0.500010 0.680350 0.394190 -0.489747
O4    O     O_R   0.499990 0.319640 0.394190 -0.494217
O5    O     O_R   0.500010 0.680360 0.605810 -0.494191
O6    O     O_R   0.319640 0.500010 0.605810 -0.500696
O7    O     O_R   0.680360 0.499990 0.394190 -0.500648
O8    O     O_R   0.319650 0.500010 0.394190 -0.491241
O9    O     O_R   0.680350 0.499990 0.605810 -0.491208
O10   O     O_3   0.302792 0.261801 0.913601 -0.706976

loop_
_geom_bond_atom_site_label_1
_geom_bond_atom_site_label_2
_ccdc_geom_bond_type
C3    C42   A    
C27   C29   A    
C34   C37   A    
C33   H1    S    
C14   C18   A    
C42   H14   S    
C29   H5    S    
C15   C19   A    
C11   C19   A    
C17   C23   S    
C13   C18   A    
C1    O4    A    
Cu2   O7    S    
C24   C26   A    
C11   C14   A    
C2    C41   A    
Cu1   O9    S    
C17   O9    A    
C32   H8    S    
C36   H9    S    
C16   C34   S    
C27   C39   S    
C22   C25   A    
C31   C33   A    
C3    C19   S    
C1    C15   S    
C25   H3    S    
C11   H22   S    
C26   H4    S    
C4    C18   S    
C40   C42   A    
C30   H6    S    
C8    H21   S    
C12   O3    A    
C10   C41   A    
Cu1   O5    S    
C24   C35   A    
C34   C39   A    
C32   C35   A    
C4    C6    A    
C5    C7    A    
C2    H15   S    
C6    C8    A    
C9    C40   A    
C9    O10   S    
C6    H19   S    
C2    C4    A    
Cu1   Cu2   S    
C37   C38   A    
C28   C38   S    
C40   H11   S    
C17   O7    A    
Cu2   N1    S    
C1    O1    A    
Cu2   O4    S    
C22   H24   S    
C37   H10   S    
H17   O2    S    
C12   C14   S    
Cu1   N2    S    
C13   C15   A    
C20   N1    T    
C13   H23   S    
Cu1   O6    S    
C7    C9    A    
C22   C33   A    
H16   O10   S    
Cu1   O1    S    
C35   H12   S    
C16   O6    A    
C36   C39   A    
C31   H7    S    
C3    C5    A    
C25   C27   A    
C23   C38   A    
C26   C28   A    
C21   N2    T    
C24   H2    S    
Cu2   O8    S    
C41   H13   S    
C29   C31   A    
C30   C32   A    
C28   C30   A    
C5    H18   S    
C16   O8    A    
Cu2   O3    S    
C7    H20   S    
C20   C21   S    
C8    C10   A    
C23   C36   A    
C12   O5    A    
C10   O2    S    
