data_mof_unit_23918.cif
_audit_creation_date              2012-12-10T17:22:39-0500
_audit_creation_method            fapswitch 2.2
_symmetry_space_group_name_H-M    P1
_symmetry_Int_Tables_number       1
_space_group_crystal_system       triclinic
_cell_length_a                    10.662593
_cell_length_b                    10.765246
_cell_length_c                    9.669972
_cell_angle_alpha                 89.194982
_cell_angle_beta                  88.51006
_cell_angle_gamma                 94.094245
_cell_volume                      1106.62411637

loop_
_atom_site_label
_atom_site_type_symbol
_atom_type_description
_atom_site_fract_x
_atom_site_fract_y
_atom_site_fract_z
_atom_type_partial_charge
C1    C     C_R   0.497268 0.262708 0.500616 0.780716
C2    C     C_3   0.968379 0.519654 0.369485 0.203245
C3    C     C_3   0.036555 0.407506 0.421110 0.189450
C4    C     C_3   0.122595 0.496702 0.504659 -0.053310
C5    C     C_R   0.273698 0.110879 0.597445 -0.204974
C6    C     C_R   0.169218 0.037724 0.648919 -0.130371
C7    C     C_R   0.171818 0.908736 0.655004 -0.141380
C8    C     C_R   0.278048 0.852230 0.607290 -0.180247
C9    C     C_R   0.384758 0.924799 0.554219 0.102702
C10   C     C_R   0.383539 0.055968 0.552392 0.094799
C11   C     C_R   0.490915 0.128187 0.500810 -0.090654
C12   C     C_R   0.259598 0.497537 0.501702 0.759911
C13   C     C_R   0.593566 0.071707 0.443535 -0.191350
C14   C     C_R   0.593420 0.943342 0.441542 -0.216245
C15   C     C_R   0.491312 0.870131 0.498642 -0.079232
C16   C     C_R   0.658942 0.675425 0.136019 -0.150075
C17   C     C_R   0.735110 0.763819 0.061001 -0.207263
C18   C     C_R   0.738020 0.762044 0.918346 -0.202616
C19   C     C_R   0.662953 0.673452 0.849690 -0.117952
C20   C     C_R   0.579039 0.585876 0.921759 0.179953
C21   C     C_R   0.577923 0.586447 0.070790 0.193982
C22   C     C_R   0.427884 0.416224 0.079375 -0.049307
C23   C     C_R   0.498674 0.736916 0.499331 0.761748
C24   C     C_R   0.424291 0.416741 0.932386 0.223453
C25   C     C_R   0.740576 0.502399 0.498360 0.767218
C26   C     C_3   0.033257 0.480600 0.631860 -0.156301
C27   C     C_3   0.945573 0.390748 0.548117 -0.204662
C28   C     C_3   0.877886 0.503161 0.495640 -0.053018
C29   C     C_3   0.963281 0.592676 0.580081 -0.199735
C30   C     C_3   0.055068 0.609333 0.453560 -0.210756
Cu1   Cu    Cu3+1 0.499990 0.499990 0.640660 0.918894
Cu2   Cu    Cu3+1 0.500010 0.500010 0.359340 0.918322
H1    H     H_    0.898382 0.301230 0.586883 0.134085
H2    H     H_    0.090520 0.852146 0.694797 0.127153
H3    H     H_    0.274842 0.751722 0.610620 0.151165
H4    H     H_    0.674395 0.900797 0.397975 0.126401
H5    H     H_    0.371008 0.347175 0.139930 0.147836
H6    H     H_    0.670386 0.677256 0.244854 0.187277
H7    H     H_    0.795651 0.831443 0.114295 0.143316
H8    H     H_    0.800457 0.828553 0.860200 0.138698
H9    H     H_    0.675484 0.677064 0.740295 0.188752
H10   H     H_    0.060545 0.465883 0.739956 0.153792
H11   H     H_    0.930466 0.668749 0.645089 0.127804
H12   H     H_    0.102355 0.699150 0.415895 0.143233
H13   H     H_    0.674548 0.127514 0.401327 0.136137
H14   H     H_    0.266424 0.210119 0.589443 0.105772
H15   H     H_    0.085541 0.081228 0.682867 0.126609
N1    N     N_R   0.501210 0.501210 0.147910 -0.219848
N2    N     N_R   0.501250 0.501290 0.852040 -0.223282
O1    O     O_R   0.499990 0.319640 0.618810 -0.597744
O2    O     O_R   0.500000 0.319660 0.381240 -0.575295
O3    O     O_R   0.316850 0.499960 0.618770 -0.595790
O4    O     O_R   0.316860 0.499980 0.381190 -0.577297
O5    O     O_R   0.500000 0.680340 0.618760 -0.594759
O6    O     O_R   0.500010 0.680360 0.381190 -0.584651
O7    O     O_R   0.683140 0.500020 0.618810 -0.586002
O8    O     O_R   0.683150 0.500040 0.381230 -0.606236
C31   C     C_3   0.336587 0.317295 0.870289 -0.356824
C32   C     C_3   0.201340 0.317285 0.926230 -0.938927
H16   H     H_    0.171455 0.413610 0.926685 0.260720
H17   H     H_    0.137739 0.260096 0.859205 0.250046
H18   H     H_    0.192089 0.276304 0.032001 0.255563
H19   H     H_    0.330802 0.330896 0.759822 0.267238
H20   H     H_    0.372358 0.224292 0.889388 0.197586
C33   C     C_3   0.933333 0.554195 0.222748 -0.390245
C34   C     C_3   0.048623 0.575312 0.126599 -0.835261
H21   H     H_    0.107388 0.659093 0.157677 0.252937
H22   H     H_    0.106109 0.494007 0.130226 0.262016
H23   H     H_    0.018376 0.589713 0.018867 0.242209
H24   H     H_    0.866392 0.481334 0.181200 0.219055
H25   H     H_    0.887433 0.642741 0.228526 0.196377
C35   C     C_3   0.081546 0.296958 0.340306 -0.419149
C36   C     C_3   0.975842 0.228639 0.262144 -0.846403
H26   H     H_    0.894031 0.203183 0.332739 0.243738
H27   H     H_    0.946173 0.287108 0.175402 0.259694
H28   H     H_    0.009860 0.142011 0.218248 0.243204
H29   H     H_    0.158970 0.329117 0.267098 0.205448
H30   H     H_    0.119097 0.230588 0.414352 0.198904

loop_
_geom_bond_atom_site_label_1
_geom_bond_atom_site_label_2
_ccdc_geom_bond_type
C34   H22   S    
C16   C21   A    
C36   H27   S    
C36   H26   S    
C22   N1    A    
C19   C20   A    
C1    C11   S    
C25   O7    A    
Cu1   O3    S    
C2    C33   S    
C7    C8    A    
C27   H1    S    
C25   C28   S    
C26   C27   S    
C20   N2    A    
C28   C29   S    
C14   H4    S    
C5    C6    A    
C34   H23   S    
C33   H24   S    
C31   H19   S    
C18   C19   A    
C17   H7    S    
C18   H8    S    
C35   H30   S    
C35   H29   S    
C8    C9    A    
Cu1   O7    S    
C4    C12   S    
C1    O1    A    
Cu2   O6    S    
C12   O4    A    
C21   N1    A    
C15   C23   S    
C34   H21   S    
C32   H16   S    
C13   C14   A    
C29   H11   S    
Cu2   N1    S    
C30   H12   S    
C25   O8    A    
Cu2   O8    S    
Cu1   N2    S    
C12   O3    A    
C31   H20   S    
C32   H17   S    
C6    H15   S    
C16   C17   A    
C31   C32   S    
C33   H25   S    
C22   H5    S    
C8    H3    S    
Cu2   O2    S    
C29   C30   S    
Cu1   Cu2   S    
C17   C18   A    
C1    O2    A    
C36   H28   S    
C22   C24   A    
Cu1   O1    S    
C3    C4    S    
Cu2   O4    S    
C26   H10   S    
C23   O5    A    
C9    C10   A    
C24   N2    A    
C32   H18   S    
C35   C36   S    
C4    C26   S    
C23   O6    A    
C6    C7    A    
C5    H14   S    
C2    C30   S    
C3    C27   S    
C2    C3    S    
C9    C15   A    
C5    C10   A    
C13   H13   S    
C11   C13   A    
C7    H2    S    
C3    C35   S    
Cu1   O5    S    
C10   C11   A    
C20   C21   A    
C26   C29   S    
C24   C31   S    
C33   C34   S    
C27   C28   S    
C14   C15   A    
C2    C28   S    
C4    C30   S    
C19   H9    S    
C16   H6    S    
