data_mof_unit_50592.cif
_audit_creation_date              2012-12-10T17:03:24-0500
_audit_creation_method            fapswitch 2.2
_symmetry_space_group_name_H-M    P1
_symmetry_Int_Tables_number       1
_space_group_crystal_system       triclinic
_cell_length_a                    15.005107
_cell_length_b                    10.921348
_cell_length_c                    9.957054
_cell_angle_alpha                 110.714363
_cell_angle_beta                  98.684245
_cell_angle_gamma                 91.924355
_cell_volume                      1502.05109856

loop_
_atom_site_label
_atom_site_type_symbol
_atom_type_description
_atom_site_fract_x
_atom_site_fract_y
_atom_site_fract_z
_atom_type_partial_charge
C1    C     C_R   0.490152 0.253452 0.441420 0.854571
C2    C     C_R   0.503671 0.746135 0.558363 0.853701
C3    C     C_R   0.025889 0.256333 0.361415 -0.077511
C4    C     C_R   0.962167 0.736253 0.517157 -0.079133
C5    C     C_2   0.479181 0.111752 0.411894 -0.229923
C6    C     C_2   0.499495 0.886615 0.586460 -0.217969
C7    C     C_2   0.448619 0.067402 0.509369 0.277149
C8    C     C_2   0.446718 0.926098 0.489004 0.293151
C9    C     C_2   0.505713 0.515741 0.083109 0.135852
C10   C     C_2   0.486875 0.500332 0.924014 0.145098
C11   C     C_R   0.329478 0.499776 0.500305 0.798126
C12   C     C_R   0.670505 0.500863 0.499569 0.784689
C13   C     C_R   0.817306 0.621372 0.519177 0.355351
C14   C     C_R   0.178858 0.377103 0.442361 0.358357
C15   C     C_R   0.767057 0.502513 0.496723 -0.177322
C16   C     C_R   0.232489 0.498182 0.499040 -0.177976
C17   C     C_R   0.805572 0.382654 0.456305 -0.121316
C18   C     C_R   0.193778 0.617849 0.538254 -0.121770
C19   C     C_R   0.895234 0.378023 0.427876 0.028824
C20   C     C_R   0.098540 0.618728 0.509672 0.026957
C21   C     C_R   0.949169 0.498467 0.463317 -0.008041
C22   C     C_R   0.043642 0.497572 0.464229 -0.008148
C23   C     C_R   0.909146 0.619978 0.501048 0.036282
C24   C     C_R   0.083337 0.375804 0.423145 0.033993
C25   C     C_R   0.932480 0.257655 0.362680 -0.100539
C26   C     C_R   0.056094 0.735463 0.521007 -0.102207
Cu1   Cu    Cu3+1 0.515770 0.521810 0.644910 1.018373
Cu2   Cu    Cu3+1 0.484230 0.478190 0.355090 1.023935
N1    N     N_2   0.460520 0.445420 0.137370 -0.069053
N2    N     N_2   0.539480 0.554580 0.862630 -0.067178
O1    O     O_R   0.508410 0.332340 0.577400 -0.522535
O2    O     O_R   0.491590 0.667660 0.422600 -0.546653
O3    O     O_R   0.481780 0.295500 0.332650 -0.591705
O4    O     O_R   0.518220 0.704500 0.667350 -0.588269
O5    O     O_R   0.383570 0.518390 0.622380 -0.605222
O6    O     O_R   0.616430 0.481610 0.377620 -0.580992
O7    O     O_R   0.356940 0.481550 0.377630 -0.557653
O8    O     O_R   0.643060 0.518450 0.622370 -0.586362
O9    O     O_3   0.779323 0.740190 0.563751 -0.721626
H1    H     H_    0.721845 0.731876 0.598240 0.319176
O10   O     O_3   0.218373 0.259426 0.409969 -0.721003
H2    H     H_    0.282348 0.273371 0.458735 0.335361
C27   C     C_1   0.754297 0.268648 0.459754 0.294212
N3    N     N_1   0.713285 0.178657 0.463695 -0.246887
C28   C     C_1   0.253462 0.737328 0.619653 0.303289
N4    N     N_1   0.301359 0.831835 0.685285 -0.263984
C29   C     C_1   0.875043 0.135349 0.283640 0.272783
N5    N     N_1   0.829958 0.037702 0.219969 -0.212200
C30   C     C_1   0.106162 0.852843 0.522997 0.263690
N6    N     N_1   0.145317 0.946477 0.524115 -0.216303
C31   C     C_1   0.060192 0.130600 0.290551 0.404632
N7    N     N_1   0.086880 0.030275 0.233713 -0.228906
C32   C     C_1   0.921644 0.857230 0.524297 0.405095
N8    N     N_1   0.889937 0.953718 0.529786 -0.220619
O11   O     O_3   0.389596 0.834928 0.370905 -0.700180
H3    H     H_    0.352445 0.882809 0.318311 0.335832
O12   O     O_3   0.419302 0.154022 0.629794 -0.697263
H4    H     H_    0.394013 0.103013 0.682590 0.353995
C33   C     C_1   0.555342 0.979691 0.716856 0.256524
N9    N     N_1   0.599903 0.053987 0.820973 -0.189830
C34   C     C_1   0.504547 0.022802 0.279211 0.259328
N10   N     N_1   0.524798 0.951928 0.173250 -0.203337
C35   C     C_1   0.400225 0.433609 0.841724 0.444879
N11   N     N_1   0.329953 0.380095 0.779600 -0.224098
C36   C     C_1   0.570268 0.622063 0.182726 0.432064
N12   N     N_1   0.622514 0.707251 0.261070 -0.216349
O13   O     O_3   0.621672 0.609550 0.938485 -0.635914
H5    H     H_    0.648699 0.648748 0.876709 0.383495
O14   O     O_3   0.414466 0.331871 0.045497 -0.634601
H6    H     H_    0.386380 0.294561 0.107956 0.381808

loop_
_geom_bond_atom_site_label_1
_geom_bond_atom_site_label_2
_ccdc_geom_bond_type
C29   N5    T    
C4    C26   A    
O11   H3    S    
C17   C27   S    
C15   C17   A    
C4    C32   S    
C12   O6    A    
C11   C16   S    
C25   C29   S    
C18   C20   A    
N2    O13   S    
C12   C15   S    
C9    N1    D    
C27   N3    T    
C2    O4    A    
C9    C36   S    
C11   O5    A    
C3    C24   A    
C5    C34   S    
C33   N9    T    
C16   C18   A    
C21   C22   A    
C26   C30   S    
Cu1   N2    S    
Cu2   O6    S    
O12   H4    S    
C2    C6    S    
C20   C26   A    
Cu2   O7    S    
C14   O10   S    
C1    C5    S    
Cu2   O2    S    
C2    O2    A    
Cu2   N1    S    
C17   C19   A    
C8    O11   S    
Cu2   O3    S    
C36   N12   T    
N1    O14   S    
C13   C15   A    
Cu1   O4    S    
C12   O8    A    
O14   H6    S    
C19   C25   A    
C14   C16   A    
C10   N2    D    
C13   O9    S    
C7    C8    S    
C34   N10   T    
C20   C22   A    
Cu1   O8    S    
C1    O3    A    
O13   H5    S    
O9    H1    S    
C18   C28   S    
C1    O1    A    
C3    C25   A    
C13   C23   A    
C11   O7    A    
C30   N6    T    
O10   H2    S    
C22   C24   A    
C14   C24   A    
Cu1   Cu2   S    
C5    C7    D    
C4    C23   A    
C3    C31   S    
C6    C8    D    
Cu1   O5    S    
C28   N4    T    
Cu1   O1    S    
C6    C33   S    
C7    O12   S    
C21   C23   A    
C10   C35   S    
C31   N7    T    
C32   N8    T    
C9    C10   S    
C35   N11   T    
C19   C21   A    
