data_mof_unit_37643.cif
_audit_creation_date              2012-12-10T16:48:47-0500
_audit_creation_method            fapswitch 2.2
_symmetry_space_group_name_H-M    P1
_symmetry_Int_Tables_number       1
_space_group_crystal_system       triclinic
_cell_length_a                    17.333275
_cell_length_b                    8.721066
_cell_length_c                    7.430557
_cell_angle_alpha                 102.30671
_cell_angle_beta                  90.6189
_cell_angle_gamma                 93.068099
_cell_volume                      1095.56912457

loop_
_atom_site_label
_atom_site_type_symbol
_atom_type_description
_atom_site_fract_x
_atom_site_fract_y
_atom_site_fract_z
_atom_type_partial_charge
C1    C     C_R   0.496395 0.200398 0.455615 0.878216
C2    C     C_R   0.503605 0.799602 0.544385 0.878215
C3    C     C_2   0.483399 0.035357 0.438671 0.004731
C4    C     C_2   0.516601 0.964643 0.561329 0.004731
C5    C     C_R   0.351260 0.502666 0.525487 0.821860
C6    C     C_R   0.648740 0.497335 0.474513 0.821861
C7    C     C_R   0.267580 0.509479 0.539437 -0.083244
C8    C     C_R   0.732420 0.490527 0.460563 -0.083245
C9    C     C_R   0.221987 0.470644 0.377587 -0.138782
C10   C     C_R   0.778013 0.529368 0.622412 -0.138783
C11   C     C_R   0.143084 0.484512 0.384644 -0.139324
C12   C     C_R   0.856917 0.515509 0.615356 -0.139322
C13   C     C_R   0.107795 0.536271 0.553843 0.101317
C14   C     C_R   0.892206 0.463751 0.446156 0.101317
C15   C     C_R   0.153172 0.576441 0.717320 0.292893
C16   C     C_R   0.846829 0.423576 0.282680 0.292892
C17   C     C_R   0.232920 0.561550 0.709495 -0.201819
C18   C     C_R   0.767080 0.438458 0.290505 -0.201819
C19   C     C_2   0.024046 0.550985 0.557651 -0.144567
C20   C     C_2   0.975955 0.449041 0.442347 -0.144567
Cu1   Cu    Cu3+1 0.508700 0.517250 0.683000 1.033330
Cu2   Cu    Cu3+1 0.491300 0.482750 0.317000 1.033330
H1    H     H_    0.247259 0.430953 0.244172 0.182295
H2    H     H_    0.752741 0.569058 0.755827 0.182295
H3    H     H_    0.732321 0.406856 0.164657 0.194604
H4    H     H_    0.267679 0.593149 0.835344 0.194604
H5    H     H_    0.998327 0.352618 0.343165 0.193557
H6    H     H_    0.001674 0.647407 0.656833 0.193557
H7    H     H_    0.890001 0.542714 0.743607 0.197294
H8    H     H_    0.110000 0.457310 0.256391 0.197296
H9    H     H_    0.439617 0.378954 0.957911 0.238251
H10   H     H_    0.560383 0.621046 0.042089 0.238251
N1    N     N_2   0.478180 0.456750 0.041980 -0.189769
N2    N     N_2   0.521820 0.543250 0.958020 -0.189768
O1    O     O_R   0.505650 0.286040 0.618880 -0.569896
O2    O     O_R   0.494350 0.713960 0.381120 -0.569896
O3    O     O_R   0.490960 0.256910 0.309800 -0.545977
O4    O     O_R   0.509040 0.743090 0.690200 -0.545977
O5    O     O_R   0.394600 0.516230 0.672450 -0.597838
O6    O     O_R   0.605400 0.483770 0.327550 -0.597838
O7    O     O_R   0.379910 0.487100 0.363380 -0.576750
O8    O     O_R   0.620090 0.512900 0.636620 -0.576749
Br1   Br    Br    0.108925 0.649348 0.953758 -0.500750
Br2   Br    Br    0.891076 0.350673 0.046241 -0.500750
Br3   Br    Br    0.405948 0.935845 0.253993 -0.449634
Br4   Br    Br    0.594052 0.064155 0.746007 -0.449634

loop_
_geom_bond_atom_site_label_1
_geom_bond_atom_site_label_2
_ccdc_geom_bond_type
C2    C4    S    
H9    N1    S    
C15   C17   A    
C16   Br2   S    
Cu1   O1    S    
C20   H5    S    
C12   H7    S    
C11   C13   A    
C2    O4    A    
C19   C20   D    
Cu1   O5    S    
C1    O3    A    
Cu2   O6    S    
C5    O5    A    
N1    N2    D    
C15   Br1   S    
C4    Br4   S    
Cu1   Cu2   S    
C19   H6    S    
C9    C11   A    
C18   H3    S    
C10   C12   A    
C17   H4    S    
C16   C18   A    
C12   C14   A    
C6    O6    A    
C13   C15   A    
C14   C16   A    
Cu2   O7    S    
C13   C19   S    
Cu1   O8    S    
C14   C20   S    
Cu2   O2    S    
C1    O1    A    
C8    C10   A    
C6    O8    A    
C2    O2    A    
C7    C9    A    
Cu2   N1    S    
C5    O7    A    
C5    C7    S    
C9    H1    S    
C6    C8    S    
Cu1   N2    S    
C10   H2    S    
Cu2   O3    S    
C3    Br3   S    
C8    C18   A    
Cu1   O4    S    
C3    C4    D    
C11   H8    S    
H10   N2    S    
C1    C3    S    
C7    C17   A    
