data_mof_unit_48208.cif
_audit_creation_date              2012-10-26T20:21:18-0400
_audit_creation_method            fapswitch 2.2
_symmetry_space_group_name_H-M    P1
_symmetry_Int_Tables_number       1
_space_group_crystal_system       triclinic
_cell_length_a                    9.546569
_cell_length_b                    10.763632
_cell_length_c                    15.340856
_cell_angle_alpha                 89.096214
_cell_angle_beta                  74.638038
_cell_angle_gamma                 89.528263
_cell_volume                      1519.83766875

loop_
_atom_site_label
_atom_site_type_symbol
_atom_type_description
_atom_site_fract_x
_atom_site_fract_y
_atom_site_fract_z
_atom_type_partial_charge
C1    C     C_R   0.000873 0.262423 0.499062 0.546130
C2    C     C_R   0.115547 0.063595 0.437479 0.117327
C3    C     C_R   0.998196 0.871418 0.501744 0.017407
C4    C     C_R   0.002358 0.128533 0.497703 0.000820
C5    C     C_R   0.550634 0.425313 0.558414 -0.002422
C6    C     C_R   0.448786 0.575166 0.441931 0.001278
C7    C     C_R   0.401885 0.423630 0.557861 0.246155
C8    C     C_R   0.598233 0.576163 0.441488 0.238728
C9    C     C_R   0.918579 0.502307 0.672346 0.548340
C10   C     C_R   0.081470 0.497664 0.327669 0.529830
C11   C     C_R   0.873665 0.517597 0.770559 -0.021049
C12   C     C_R   0.998890 0.737554 0.501554 0.576108
C13   C     C_R   0.126649 0.481868 0.229537 -0.029834
C14   C     C_R   0.908389 0.605072 0.907871 0.092330
C15   C     C_R   0.091993 0.393641 0.092470 0.094423
C16   C     C_R   0.960599 0.580676 0.815503 -0.118688
C17   C     C_R   0.039552 0.418866 0.184677 -0.127612
C18   C     C_R   0.734249 0.480787 0.817683 -0.141784
C19   C     C_R   0.266620 0.517602 0.182543 -0.142679
C20   C     C_R   0.672332 0.516946 0.907089 -0.002091
C21   C     C_R   0.328452 0.480941 0.093251 -0.003193
C22   C     C_R   0.765609 0.569527 0.954534 0.057298
C23   C     C_R   0.584559 0.529286 0.095663 0.069061
C24   C     C_R   0.234993 0.428582 0.045850 0.057877
C25   C     C_R   0.523029 0.495382 0.951954 0.022048
C26   C     C_R   0.477852 0.502025 0.048401 0.021280
C27   C     C_3   0.640817 0.864188 0.616997 -0.284469
C28   C     C_3   0.353363 0.065670 0.319538 -0.316853
C29   C     C_3   0.332354 0.212050 0.603083 -0.297885
C30   C     C_3   0.651150 0.774385 0.357359 -0.337947
C31   C     C_R   0.416312 0.467972 0.904720 0.070861
C32   C     C_R   0.719271 0.575616 0.048466 -0.081112
C33   C     C_R   0.281407 0.422110 0.951962 -0.080516
C34   C     C_R   0.890335 0.065906 0.559649 -0.156578
C35   C     C_R   0.111805 0.933710 0.440721 -0.143098
C36   C     C_R   0.887639 0.936933 0.562621 0.110958
Cu1   Cu    Cu3+1 0.140660 0.500020 0.500000 0.961960
Cu2   Cu    Cu3+1 0.859340 0.499980 0.500000 0.957970
H1    H     H_    0.794468 0.602612 0.086700 0.167104
H2    H     H_    0.409964 0.633503 0.395207 0.112090
H3    H     H_    0.095286 0.618191 0.945221 0.249508
H4    H     H_    0.025603 0.755170 0.921702 0.231850
H5    H     H_    0.974470 0.243523 0.079129 0.231794
H6    H     H_    0.905285 0.380355 0.054915 0.249678
H7    H     H_    0.544560 0.568167 0.229985 0.219232
H8    H     H_    0.499203 0.418278 0.208333 0.249652
H9    H     H_    0.500892 0.578887 0.791958 0.250618
H10   H     H_    0.458186 0.428063 0.770552 0.213605
H11   H     H_    0.777415 0.908385 0.695758 0.243511
H12   H     H_    0.206164 0.395156 0.913748 0.167032
H13   H     H_    0.592965 0.957986 0.613241 0.116353
H14   H     H_    0.568295 0.810662 0.673396 0.140807
H15   H     H_    0.647787 0.814128 0.553532 0.190282
H16   H     H_    0.192557 0.204392 0.341248 0.259435
H17   H     H_    0.321259 0.005500 0.269968 0.138489
H18   H     H_    0.405919 0.009450 0.363520 0.142933
H19   H     H_    0.433856 0.134384 0.281756 0.147236
H20   H     H_    0.288534 0.366379 0.684987 0.235227
H21   H     H_    0.432215 0.184026 0.622683 0.094380
H22   H     H_    0.345424 0.189707 0.530878 0.192193
H23   H     H_    0.324877 0.576680 0.216636 0.127358
H24   H     H_    0.239535 0.157701 0.644749 0.145850
H25   H     H_    0.750096 0.604178 0.320045 0.263174
H26   H     H_    0.747808 0.833378 0.329043 0.159306
H27   H     H_    0.583583 0.819102 0.419145 0.130521
H28   H     H_    0.587792 0.768891 0.306368 0.107195
H29   H     H_    0.676674 0.421168 0.783578 0.126023
H30   H     H_    0.931668 0.388438 0.221037 0.132164
H31   H     H_    0.068221 0.611685 0.779110 0.134926
H32   H     H_    0.806806 0.117499 0.607385 0.114420
H33   H     H_    0.194747 0.879610 0.394836 0.114191
H34   H     H_    0.588249 0.365770 0.605081 0.107342
N1    N     N_R   0.352080 0.500030 0.499980 -0.220511
N2    N     N_2   0.698616 0.651584 0.377592 -0.466756
N3    N     N_R   0.647920 0.499970 0.500020 -0.227120
N4    N     N_3   0.998968 0.668722 0.953562 -0.651601
N5    N     N_3   0.001439 0.329704 0.046914 -0.651337
N6    N     N_3   0.571965 0.491672 0.187713 -0.667739
N7    N     N_3   0.429217 0.504728 0.812495 -0.668618
N8    N     N_2   0.783166 0.873907 0.632528 -0.502869
N9    N     N_2   0.227701 0.130596 0.373773 -0.503439
N10   N     N_2   0.303503 0.343323 0.618181 -0.459090
O1    O     O_R   0.118740 0.319660 0.500000 -0.453454
O2    O     O_R   0.881260 0.680340 0.500000 -0.448190
O3    O     O_R   0.881170 0.319630 0.500010 -0.517153
O4    O     O_R   0.118830 0.680370 0.499990 -0.523421
O5    O     O_R   0.055570 0.500030 0.629830 -0.476465
O6    O     O_R   0.944430 0.499970 0.370170 -0.494922
O7    O     O_R   0.818000 0.500000 0.629840 -0.508112
O8    O     O_R   0.182000 0.500000 0.370160 -0.515066

loop_
_geom_bond_atom_site_label_1
_geom_bond_atom_site_label_2
_ccdc_geom_bond_type
C2    C35   A    
C25   C31   A    
C21   C26   A    
C11   C18   A    
C30   H26   S    
H9    N7    S    
C28   H18   S    
C7    N1    A    
C28   H19   S    
Cu2   O7    S    
C10   O6    A    
C22   C32   A    
Cu1   O8    S    
H10   N7    S    
H6    N5    S    
C19   C21   A    
C5    H34   S    
H20   N10   S    
C30   N2    S    
C32   H1    S    
C20   C25   A    
C12   O2    A    
C23   C26   A    
C3    C12   S    
C29   H21   S    
C31   C33   A    
H7    N6    S    
C34   H32   S    
C18   C20   A    
C35   H33   S    
C25   C26   A    
C28   H17   S    
C27   H13   S    
Cu2   N3    S    
C1    O3    A    
C4    C34   A    
C13   C19   A    
Cu2   O3    S    
Cu1   O4    S    
C6    H2    S    
C27   N8    S    
C36   N8    S    
C9    O7    A    
H8    N6    S    
C6    C8    A    
C18   H29   S    
C8    N3    A    
Cu2   O6    S    
C14   N4    S    
C5    N3    A    
C2    C4    A    
Cu1   Cu2   S    
C11   C16   A    
C29   H22   S    
C3    C35   A    
C8    N2    S    
C9    C11   S    
C30   H28   S    
C15   C24   A    
C20   C22   A    
C14   C16   A    
C1    O1    A    
C27   H14   S    
C6    N1    A    
C5    C7    A    
C15   C17   A    
Cu1   N1    S    
C29   H24   S    
C17   H30   S    
Cu2   O2    S    
C28   N9    S    
Cu1   O5    S    
C16   H31   S    
C10   C13   S    
C27   H15   S    
C31   N7    S    
H25   N2    S    
C12   O4    A    
H5    N5    S    
H4    N4    S    
C24   C33   A    
H11   N8    S    
C13   C17   A    
C1    C4    S    
C23   C32   A    
C14   C22   A    
C33   H12   S    
C29   N10   S    
C9    O5    A    
H3    N4    S    
C15   N5    S    
C3    C36   A    
C19   H23   S    
C34   C36   A    
C23   N6    S    
C30   H27   S    
C7    N10   S    
C10   O8    A    
C21   C24   A    
Cu1   O1    S    
C2    N9    S    
H16   N9    S    
