data_mof_unit_52775.cif
_audit_creation_date              2013-03-05T16:36:37-0500
_audit_creation_method            fapswitch 2.2
_symmetry_space_group_name_H-M    P1
_symmetry_Int_Tables_number       1
_space_group_crystal_system       triclinic
_cell_length_a                    17.893029
_cell_length_b                    9.075274
_cell_length_c                    7.980042
_cell_angle_alpha                 90.018477
_cell_angle_beta                  89.072095
_cell_angle_gamma                 89.998297
_cell_volume                      1295.66226568

loop_
_atom_site_label
_atom_site_type_symbol
_atom_site_description
_atom_site_fract_x
_atom_site_fract_y
_atom_site_fract_z
_atom_type_partial_charge
O1    O     O_R   0.500000 0.288390 0.642760 -0.565455
O2    O     O_R   0.500000 0.711610 0.357240 -0.565467
O3    O     O_R   0.500000 0.711610 0.642760 -0.573337
O4    O     O_R   0.500000 0.288390 0.357240 -0.573338
C1    C     C_R   0.500001 0.220823 0.499986 0.819087
C2    C     C_R   0.499999 0.779177 0.500014 0.819097
O5    O     O_R   0.391250 0.500000 0.642840 -0.530582
O6    O     O_R   0.608750 0.500000 0.357160 -0.530599
O7    O     O_R   0.608750 0.500000 0.642840 -0.529120
O8    O     O_R   0.391250 0.500000 0.357160 -0.529180
C3    C     C_1   0.500001 0.065585 0.499980 -0.091138
C4    C     C_1   0.499999 0.934415 0.500019 -0.091143
C5    C     C_R   0.355046 0.501696 0.501243 0.861748
C6    C     C_R   0.644955 0.498288 0.498751 0.861772
Cu1   Cu    Cu3+1 0.500000 0.500000 0.669080 1.155753
Cu2   Cu    Cu3+1 0.500000 0.500000 0.330920 1.155730
C7    C     C_R   0.847149 0.426829 0.631741 0.228479
C8    C     C_R   0.152873 0.573129 0.368222 0.228598
C9    C     C_R   0.150635 0.472061 0.651463 0.227057
C10   C     C_R   0.849350 0.527790 0.348410 0.227011
C11   C     C_R   0.768978 0.444810 0.637216 0.211800
C12   C     C_R   0.231034 0.555151 0.362748 0.211803
C13   C     C_R   0.229083 0.472746 0.649839 0.220235
C14   C     C_R   0.770905 0.527125 0.350083 0.220282
C15   C     C_R   0.729363 0.491779 0.495822 -0.321837
C16   C     C_R   0.270640 0.508161 0.504140 -0.321828
C17   C     C_R   0.887142 0.477909 0.490338 -0.206665
C18   C     C_R   0.112859 0.522075 0.509574 -0.206710
C19   C     C_1   0.966759 0.492922 0.497158 0.235690
C20   C     C_1   0.033241 0.507169 0.502679 0.235638
N1    N     N_1   0.500000 0.500000 0.076820 0.028715
N2    N     N_1   0.500000 0.500000 0.923180 0.028715
N3    N     N_R   0.885648 0.355458 0.767328 0.186608
O9    O     O_R   0.941688 0.268017 0.734584 -0.263904
O10   O     O_R   0.859383 0.360285 0.920141 -0.208186
N4    N     N_R   0.114400 0.644409 0.232594 0.186424
O11   O     O_R   0.140315 0.638327 0.079611 -0.208173
O12   O     O_R   0.058674 0.732602 0.265251 -0.263873
N5    N     N_R   0.109901 0.424303 0.799055 0.185692
O13   O     O_R   0.133093 0.312193 0.885507 -0.221141
O14   O     O_R   0.049881 0.493501 0.849066 -0.223639
N6    N     N_R   0.890069 0.575360 0.200710 0.185421
O15   O     O_R   0.950037 0.506000 0.150675 -0.223825
O16   O     O_R   0.866902 0.687435 0.114164 -0.221297
N7    N     N_R   0.730299 0.430302 0.791584 0.198774
O17   O     O_R   0.699391 0.304685 0.830070 -0.273767
O18   O     O_R   0.705801 0.551498 0.859498 -0.240130
N8    N     N_R   0.269703 0.569754 0.208379 0.198699
O19   O     O_R   0.294268 0.448624 0.140434 -0.240072
O20   O     O_R   0.300497 0.695460 0.169833 -0.273829
N9    N     N_R   0.266458 0.458314 0.803025 0.199080
O21   O     O_R   0.294450 0.578614 0.864342 -0.244197
O22   O     O_R   0.295031 0.331037 0.841511 -0.265180
N10   N     N_R   0.733511 0.541615 0.196925 0.199074
O23   O     O_R   0.704958 0.668923 0.158494 -0.265202
O24   O     O_R   0.705489 0.421353 0.135578 -0.244166

loop_
_geom_bond_atom_site_label_1
_geom_bond_atom_site_label_2
_geom_bond_distance
_ccdc_geom_bond_type
O4    Cu2   1.931939 S    
C12   N8    1.409367 S    
O7    C6    1.310683 A    
C19   C20   1.198093 T    
O1    Cu1   1.931804 S    
C10   C17   1.403593 A    
C17   C19   1.432991 S    
O2    Cu2   1.931803 S    
C9    C13   1.403529 A    
N1    N2    1.226054 T    
C3    C4    1.190407 T    
O3    C2    1.293849 A    
O5    Cu1   1.960470 S    
N3    O9    1.301849 A    
O7    Cu1   1.953727 S    
C8    C18   1.404939 A    
Cu1   N2    2.027728 S    
N5    O14   1.301114 A    
O8    Cu2   1.953727 S    
N7    O17   1.301748 A    
N8    O20   1.301715 A    
Cu2   N1    2.027728 S    
C7    N3    1.445446 S    
C10   N6    1.441859 S    
O2    C2    1.293698 A    
N6    O16   1.301163 A    
O1    C1    1.293698 A    
Cu1   Cu2   2.698532 S    
C9    N5    1.441816 S    
C18   C20   1.432972 S    
N4    O11   1.300024 A    
N3    O10   1.300485 A    
C1    C3    1.408823 S    
C11   N7    1.409357 S    
N7    O18   1.299037 A    
C6    C15   1.511266 S    
C2    C4    1.408823 S    
C9    C18   1.403585 A    
N10   O24   1.299943 A    
C5    C16   1.511217 S    
N6    O15   1.301131 A    
N4    O12   1.301590 A    
C14   N10   1.409029 S    
N9    O21   1.299943 A    
C7    C17   1.405164 A    
O5    C5    1.311633 A    
O3    Cu1   1.931938 S    
C14   C15   1.407221 A    
O6    Cu2   1.960470 S    
C12   C16   1.408318 A    
C13   C16   1.407235 A    
N5    O13   1.301161 A    
C11   C15   1.408352 A    
N10   O23   1.301997 A    
N8    O19   1.299027 A    
O6    C6    1.311606 A    
C8    C12   1.407980 A    
C8    N4    1.445108 S    
C7    C11   1.408177 A    
C13   N9    1.409001 S    
C10   C14   1.403476 A    
O4    C1    1.293849 A    
N9    O22   1.301992 A    
O8    C5    1.310639 A    
