data_mof_unit_8613.cif
_audit_creation_date              2012-10-26T19:23:49-0400
_audit_creation_method            fapswitch 2.2
_symmetry_space_group_name_H-M    P1
_symmetry_Int_Tables_number       1
_space_group_crystal_system       triclinic
_cell_length_a                    27.715195
_cell_length_b                    12.953218
_cell_length_c                    11.796257
_cell_angle_alpha                 96.114103
_cell_angle_beta                  90.571928
_cell_angle_gamma                 95.540453
_cell_volume                      4190.22833634

loop_
_atom_site_label
_atom_site_type_symbol
_atom_type_description
_atom_site_fract_x
_atom_site_fract_y
_atom_site_fract_z
_atom_type_partial_charge
C1    C     C_R   0.501729 0.300667 0.481154 0.524043
C2    C     C_R   0.872998 0.432763 0.406601 0.020503
C3    C     C_3   0.159935 0.953581 0.458137 -0.462166
C4    C     C_3   0.006158 0.218510 0.498046 -0.266450
C5    C     C_3   0.975596 0.235340 0.604744 -0.434896
C6    C     C_3   0.973415 0.722123 0.741128 -0.268538
C7    C     C_3   0.985133 0.640202 0.818798 -0.432400
C8    C     C_R   0.354932 0.507906 0.506417 -0.028495
C9    C     C_R   0.646099 0.491194 0.493743 -0.028734
C10   C     C_R   0.973107 0.425739 0.445444 -0.000301
C11   C     C_R   0.029560 0.597858 0.555573 -0.000284
C12   C     C_R   0.978249 0.595106 0.559315 0.012812
C13   C     C_R   0.021433 0.414412 0.478373 0.012153
C14   C     C_R   0.950535 0.512691 0.492772 0.002570
C15   C     C_R   0.050857 0.505624 0.519624 0.002339
C16   C     C_R   0.948242 0.356466 0.360847 -0.125045
C17   C     C_R   0.495938 0.698336 0.519393 0.526232
C18   C     C_R   0.059710 0.691674 0.574864 -0.126856
C19   C     C_R   0.898304 0.357393 0.339602 -0.004288
C20   C     C_R   0.110430 0.694421 0.571910 0.008911
C21   C     C_R   0.407784 0.502054 0.502375 0.529489
C22   C     C_R   0.592496 0.496183 0.497888 0.532092
C23   C     C_R   0.040562 0.316043 0.480381 0.022645
C24   C     C_R   0.953683 0.671696 0.624423 0.025257
C25   C     C_R   0.486890 0.808238 0.528481 -0.022886
C26   C     C_R   0.506680 0.189113 0.472896 -0.021421
C27   C     C_R   0.520395 0.028574 0.358598 0.039007
C28   C     C_R   0.101509 0.504965 0.522126 -0.060189
C29   C     C_R   0.466961 0.967439 0.639679 0.039165
C30   C     C_R   0.529573 0.138081 0.379208 0.004834
C31   C     C_R   0.462082 0.856703 0.621286 -0.000194
C32   C     C_R   0.485201 0.132658 0.556222 -0.165104
C33   C     C_R   0.505589 0.865802 0.443906 -0.157967
C34   C     C_R   0.485542 0.024673 0.550052 0.027442
C35   C     C_R   0.503015 0.972493 0.449431 0.028205
C36   C     C_R   0.439191 0.438912 0.043583 -0.055207
C37   C     C_R   0.540522 0.623291 0.960381 -0.053469
C38   C     C_R   0.449232 0.434147 0.159699 0.028077
C39   C     C_R   0.900078 0.514516 0.477360 -0.059902
C40   C     C_R   0.537935 0.600750 0.840943 0.039609
C41   C     C_R   0.523503 0.540204 0.146320 0.149112
C42   C     C_R   0.478775 0.457576 0.854440 0.154519
C43   C     C_R   0.513275 0.552501 0.028882 -0.014431
C44   C     C_R   0.475871 0.483968 0.974527 0.002682
C45   C     C_R   0.172060 0.418765 0.468391 0.363266
C46   C     C_R   0.825795 0.588437 0.532518 0.366999
C47   C     C_R   0.181913 0.589265 0.567315 0.388078
C48   C     C_R   0.821813 0.430736 0.406352 0.361350
C49   C     C_R   0.280078 0.569337 0.439552 0.062670
C50   C     C_R   0.121963 0.411057 0.489337 0.019310
C51   C     C_R   0.724230 0.444165 0.564088 0.070781
C52   C     C_R   0.331607 0.576960 0.443658 -0.007130
C53   C     C_R   0.672868 0.442686 0.574485 0.002128
C54   C     C_R   0.327555 0.437661 0.567516 -0.157185
C55   C     C_R   0.670891 0.538865 0.407230 -0.168574
C56   C     C_R   0.277244 0.437296 0.575655 0.050067
C57   C     C_R   0.721253 0.542764 0.397749 0.047957
C58   C     C_R   0.253306 0.503311 0.510428 0.235268
C59   C     C_R   0.747807 0.496432 0.477283 0.251105
C60   C     C_3   0.428643 0.791421 0.694792 -0.253352
C61   C     C_R   0.876930 0.598400 0.532145 0.005177
C62   C     C_3   0.375449 0.814632 0.684023 -0.321448
C63   C     C_3   0.342031 0.742471 0.749742 -0.444424
C64   C     C_3   0.565947 0.198926 0.307798 -0.249272
C65   C     C_3   0.616189 0.157497 0.308069 -0.324935
C66   C     C_3   0.654212 0.230647 0.255781 -0.441021
C67   C     C_3   0.525518 0.973676 0.238963 -0.280872
C68   C     C_3   0.476797 0.921392 0.189550 -0.447642
C69   C     C_3   0.455839 0.023585 0.755941 -0.277744
C70   C     C_3   0.502303 0.073098 0.818775 -0.450415
C71   C     C_3   0.462650 0.345124 0.809442 -0.222953
C72   C     C_R   0.092168 0.314455 0.484554 0.040400
C73   C     C_3   0.415907 0.330263 0.737610 -0.408099
C74   C     C_3   0.575199 0.569520 0.187830 -0.215558
C75   C     C_3   0.582074 0.674550 0.262556 -0.402909
C76   C     C_3   0.386273 0.419752 0.005343 -0.267968
C77   C     C_3   0.367915 0.520302 0.969007 -0.294562
C78   C     C_3   0.312791 0.517918 0.973986 -0.456462
C79   C     C_3   0.565336 0.729884 0.009673 -0.280350
C80   C     C_3   0.578327 0.808833 0.922632 -0.312932
C81   C     C_3   0.596879 0.916366 0.980550 -0.462605
C82   C     C_3   0.248320 0.368151 0.653366 -0.255508
C83   C     C_R   0.905419 0.684346 0.593053 0.030948
C84   C     C_3   0.276603 0.292141 0.711917 -0.474048
C85   C     C_3   0.748499 0.595318 0.304121 -0.253537
C86   C     C_3   0.718038 0.648350 0.223122 -0.470905
C87   C     C_3   0.114768 0.216169 0.510541 -0.263136
C88   C     C_3   0.113514 0.205728 0.638590 -0.459383
C89   C     C_3   0.886991 0.792168 0.614415 -0.246175
C90   C     C_3   0.923504 0.879479 0.580211 -0.471847
C91   C     C_3   0.647135 0.386736 0.668324 -0.262634
C92   C     C_3   0.620707 0.282324 0.620588 -0.418868
C93   C     C_3   0.361912 0.660903 0.386898 -0.250514
C94   C     C_R   0.131772 0.598271 0.554951 0.031951
C95   C     C_3   0.370449 0.629046 0.260788 -0.405954
C96   C     C_3   0.754413 0.387248 0.641768 -0.255106
C97   C     C_3   0.768002 0.452959 0.755131 -0.431344
C98   C     C_3   0.253055 0.623238 0.353254 -0.240323
C99   C     C_3   0.249954 0.739406 0.389266 -0.438863
C100  C     C_3   0.872571 0.279641 0.246340 -0.223739
C101  C     C_3   0.905082 0.216364 0.166313 -0.332319
C102  C     C_3   0.875108 0.148818 0.071817 -0.454769
C103  C     C_3   0.138615 0.801688 0.573504 -0.242948
C104  C     C_3   0.125285 0.856278 0.469378 -0.321856
Cu1   Cu    Cu3+1 0.503580 0.507730 0.615930 0.887671
Cu2   Cu    Cu3+1 0.496420 0.492270 0.384070 0.895358
H1    H     H_    0.345965 0.381357 0.606657 0.113666
H2    H     H_    0.352458 0.753087 0.841723 0.142257
H3    H     H_    0.931831 0.270142 0.126185 0.162359
H4    H     H_    0.924608 0.163990 0.215367 0.152583
H5    H     H_    0.847732 0.222966 0.287604 0.190676
H6    H     H_    0.851106 0.324098 0.191799 0.183018
H7    H     H_    0.160878 0.007372 0.537787 0.153158
H8    H     H_    0.197213 0.932469 0.440901 0.150495
H9    H     H_    0.147659 0.994291 0.386464 0.148983
H10   H     H_    0.126652 0.801838 0.390213 0.166351
H11   H     H_    0.087913 0.880068 0.477172 0.153957
H12   H     H_    0.130450 0.850410 0.653067 0.136298
H13   H     H_    0.304013 0.761088 0.740494 0.185316
H14   H     H_    0.178109 0.798895 0.572444 0.204816
H15   H     H_    0.998876 0.268674 0.679430 0.148425
H16   H     H_    0.947366 0.288323 0.592064 0.163591
H17   H     H_    0.956930 0.159488 0.623702 0.125428
H18   H     H_    0.982093 0.192323 0.423389 0.127407
H19   H     H_    0.025034 0.149040 0.508329 0.137631
H20   H     H_    0.953052 0.582743 0.824913 0.151643
H21   H     H_    0.016201 0.598599 0.786307 0.163282
H22   H     H_    0.995024 0.678879 0.905603 0.132273
H23   H     H_    0.005534 0.778662 0.735832 0.127598
H24   H     H_    0.370751 0.896477 0.716383 0.158357
H25   H     H_    0.946110 0.767464 0.786313 0.141342
H26   H     H_    0.363855 0.803223 0.592920 0.158864
H27   H     H_    0.428236 0.707128 0.667929 0.189990
H28   H     H_    0.441565 0.802757 0.785064 0.134683
H29   H     H_    0.643496 0.240041 0.166753 0.144907
H30   H     H_    0.658414 0.308309 0.306733 0.171215
H31   H     H_    0.689728 0.197596 0.255047 0.170634
H32   H     H_    0.627762 0.149917 0.396933 0.165168
H33   H     H_    0.650631 0.576011 0.348546 0.128436
H34   H     H_    0.615125 0.079365 0.259025 0.157120
H35   H     H_    0.551801 0.198525 0.219368 0.137875
H36   H     H_    0.572205 0.281871 0.342817 0.178465
H37   H     H_    0.463779 0.853407 0.234536 0.151810
H38   H     H_    0.449149 0.978285 0.195789 0.157035
H39   H     H_    0.480703 0.893391 0.098132 0.128926
H40   H     H_    0.538143 0.029743 0.179067 0.139655
H41   H     H_    0.552894 0.916558 0.238056 0.120456
H42   H     H_    0.526586 0.011916 0.831960 0.155834
H43   H     H_    0.522037 0.132349 0.770672 0.145416
H44   H     H_    0.558896 0.647757 0.785596 0.145692
H45   H     H_    0.493200 0.111676 0.903419 0.127572
H46   H     H_    0.430080 0.082681 0.746756 0.124111
H47   H     H_    0.437904 0.971009 0.813858 0.141402
H48   H     H_    0.394364 0.396939 0.757440 0.151523
H49   H     H_    0.422697 0.321596 0.645376 0.181391
H50   H     H_    0.393839 0.257881 0.755756 0.089281
H51   H     H_    0.492839 0.310020 0.764777 0.160086
H52   H     H_    0.457063 0.296653 0.881371 0.102424
H53   H     H_    0.553399 0.723644 0.243257 0.134132
H54   H     H_    0.581576 0.666405 0.354576 0.189741
H55   H     H_    0.422298 0.397117 0.211783 0.134949
H56   H     H_    0.617472 0.716970 0.245809 0.090837
H57   H     H_    0.589445 0.504013 0.224748 0.161588
H58   H     H_    0.599762 0.572258 0.114556 0.086919
H59   H     H_    0.295064 0.448444 0.921502 0.159884
H60   H     H_    0.300769 0.516085 0.063337 0.148473
H61   H     H_    0.301040 0.588988 0.941320 0.149591
H62   H     H_    0.383870 0.589214 0.025917 0.162365
H63   H     H_    0.379601 0.532523 0.881416 0.164172
H64   H     H_    0.379992 0.354345 0.937634 0.141261
H65   H     H_    0.363700 0.394538 0.076774 0.131077
H66   H     H_    0.969075 0.304072 0.309163 0.109393
H67   H     H_    0.566158 0.955665 0.017651 0.143722
H68   H     H_    0.624420 0.910516 0.048047 0.151576
H69   H     H_    0.613603 0.964738 0.916334 0.143509
H70   H     H_    0.607669 0.780971 0.867184 0.157077
H71   H     H_    0.545991 0.817200 0.868936 0.165264
H72   H     H_    0.540226 0.765883 0.071010 0.155613
H73   H     H_    0.599931 0.720807 0.052669 0.151444
H74   H     H_    0.291613 0.235730 0.647311 0.152433
H75   H     H_    0.306408 0.334304 0.766710 0.142224
H76   H     H_    0.251822 0.247553 0.766618 0.138139
H77   H     H_    0.043715 0.764754 0.581595 0.106451
H78   H     H_    0.231224 0.419096 0.719988 0.152887
H79   H     H_    0.219037 0.319154 0.603316 0.176139
H80   H     H_    0.690281 0.590999 0.177180 0.143754
H81   H     H_    0.700752 0.712808 0.271267 0.149549
H82   H     H_    0.741906 0.682307 0.158728 0.139768
H83   H     H_    0.776455 0.655700 0.344461 0.162460
H84   H     H_    0.767520 0.535892 0.251848 0.169325
H85   H     H_    0.132747 0.276333 0.686939 0.149559
H86   H     H_    0.075867 0.195732 0.668957 0.157086
H87   H     H_    0.131851 0.137153 0.657927 0.127230
H88   H     H_    0.523878 0.826649 0.374903 0.119260
H89   H     H_    0.097286 0.145433 0.459628 0.123927
H90   H     H_    0.152970 0.215427 0.486664 0.195888
H91   H     H_    0.955620 0.892723 0.638488 0.140571
H92   H     H_    0.935496 0.860160 0.491532 0.152168
H93   H     H_    0.906139 0.953540 0.584409 0.134454
H94   H     H_    0.854442 0.796986 0.560713 0.195396
H95   H     H_    0.877088 0.808758 0.705020 0.153753
H96   H     H_    0.647424 0.226937 0.592080 0.134613
H97   H     H_    0.598060 0.249055 0.687513 0.133318
H98   H     H_    0.597093 0.292020 0.547311 0.165221
H99   H     H_    0.467782 0.174262 0.625300 0.119063
H100  H     H_    0.671908 0.370865 0.736767 0.127293
H101  H     H_    0.622407 0.436177 0.716567 0.177952
H102  H     H_    0.366045 0.542990 0.240637 0.170336
H103  H     H_    0.344772 0.663794 0.206717 0.118986
H104  H     H_    0.407759 0.658504 0.238482 0.150684
H105  H     H_    0.345441 0.735591 0.397050 0.129054
H106  H     H_    0.397504 0.680385 0.431642 0.152412
H107  H     H_    0.796583 0.516390 0.742445 0.195996
H108  H     H_    0.736319 0.488356 0.793831 0.150857
H109  H     H_    0.782503 0.403022 0.815666 0.121823
H110  H     H_    0.344025 0.659660 0.715875 0.168326
H111  H     H_    0.735193 0.310811 0.656479 0.128397
H112  H     H_    0.788401 0.365646 0.601034 0.163865
H113  H     H_    0.259613 0.761139 0.480837 0.186572
H114  H     H_    0.274337 0.787611 0.337232 0.124755
H115  H     H_    0.212507 0.758511 0.373617 0.139932
H116  H     H_    0.269921 0.612210 0.268691 0.132923
H117  H     H_    0.215669 0.584806 0.337583 0.160525
H118  H     H_    0.848175 0.093423 0.108966 0.155015
H119  H     H_    0.855852 0.198450 0.018821 0.151926
H120  H     H_    0.899401 0.103400 0.016183 0.141636
N1    N     N_R   0.201303 0.503490 0.516011 -0.396454
N2    N     N_R   0.799917 0.505556 0.471503 -0.394996
N3    N     N_R   0.508960 0.519350 0.790140 -0.244067
N4    N     N_R   0.491040 0.480650 0.209860 -0.233973
O1    O     O_R   0.502540 0.354460 0.582000 -0.517325
O2    O     O_2   0.801683 0.656860 0.598739 -0.539653
O3    O     O_2   0.793491 0.353037 0.346300 -0.557741
O4    O     O_2   0.210783 0.662006 0.632888 -0.552177
O5    O     O_R   0.497460 0.645540 0.418000 -0.505970
O6    O     O_R   0.496500 0.341410 0.386200 -0.500641
O7    O     O_R   0.503500 0.658590 0.613800 -0.516460
O8    O     O_R   0.433290 0.506540 0.597890 -0.512146
O9    O     O_R   0.566710 0.493460 0.402110 -0.524316
O10   O     O_R   0.427240 0.493490 0.402090 -0.499131
O11   O     O_R   0.572760 0.506510 0.597910 -0.500189
O12   O     O_2   0.191313 0.345147 0.398261 -0.532898

loop_
_geom_bond_atom_site_label_1
_geom_bond_atom_site_label_2
_ccdc_geom_bond_type
C3    C104  S    
C25   C31   A    
C88   H85   S    
C89   H95   S    
C87   C88   S    
C99   H115  S    
C11   C18   A    
C26   C32   A    
C101  C102  S    
C30   C64   S    
C62   H24   S    
C103  H14   S    
C71   H51   S    
C72   C87   S    
C102  H118  S    
C38   N4    A    
C90   H91   S    
C77   C78   S    
C77   H62   S    
C86   H82   S    
C37   C79   S    
C4    H18   S    
C78   H61   S    
C79   C80   S    
Cu2   O6    S    
C4    H19   S    
C75   H56   S    
Cu1   O1    S    
C28   C94   A    
C84   H75   S    
Cu2   O10   S    
C24   C83   A    
C87   H90   S    
C22   O9    A    
C37   C40   A    
C74   H57   S    
C48   N2    A    
C71   H52   S    
C9    C22   S    
C57   C59   A    
C64   H35   S    
C1    O6    A    
C101  H3    S    
C96   H111  S    
C32   H99   S    
C5    H15   S    
C102  H120  S    
C55   H33   S    
C13   C23   A    
C68   H37   S    
C60   C62   S    
C34   C35   A    
C45   N1    A    
C84   H74   S    
C50   C72   A    
C42   C71   S    
C98   H116  S    
C36   C76   S    
C41   C74   S    
C104  H10   S    
C65   H34   S    
C11   C15   A    
C2    C39   A    
C38   H55   S    
C56   C58   A    
C73   H48   S    
C93   H105  S    
C60   H28   S    
Cu1   O8    S    
C9    C55   A    
C63   H110  S    
C8    C52   A    
C48   O3    S    
C92   H98   S    
C51   C96   S    
C47   O4    S    
C21   O8    A    
C14   C39   A    
C86   H81   S    
C93   C95   S    
C97   H107  S    
C96   C97   S    
C27   C30   A    
C41   C43   A    
C70   H43   S    
C28   C50   A    
C67   H40   S    
C6    H23   S    
C39   C61   A    
C88   H87   S    
Cu1   O11   S    
C2    C48   A    
C63   H2    S    
C29   C69   S    
C17   O5    A    
C83   C89   S    
C54   C56   A    
C78   H60   S    
Cu1   N3    S    
Cu2   O5    S    
C82   H79   S    
C67   C68   S    
C95   H103  S    
C62   H26   S    
C80   H71   S    
C76   C77   S    
C80   H70   S    
C3    H7    S    
C8    C54   A    
C91   C92   S    
C20   C103  S    
C4    C23   S    
C6    H25   S    
C90   H93   S    
C46   C61   A    
C27   C35   A    
C85   H84   S    
C85   C86   S    
C84   H76   S    
C5    H16   S    
C10   C13   A    
C102  H119  S    
C69   H47   S    
C49   C58   A    
Cu2   N4    S    
C51   C53   A    
C32   C34   A    
C31   C60   S    
C37   C43   A    
C76   H65   S    
C43   C44   A    
C53   C91   S    
C62   C63   S    
C82   H78   S    
C60   H27   S    
C47   N1    A    
C63   H13   S    
C1    O1    A    
C19   C100  S    
C49   C52   A    
C6    C24   S    
C98   H117  S    
C73   H49   S    
C93   H106  S    
C8    C21   S    
C79   H72   S    
C40   H44   S    
C52   C93   S    
C99   H114  S    
C76   H64   S    
C59   N2    S    
C95   H104  S    
C92   H97   S    
C56   C82   S    
C66   H30   S    
C65   H32   S    
C54   H1    S    
C12   C14   A    
C33   H88   S    
C100  H6    S    
C82   C84   S    
Cu2   O9    S    
C55   C57   A    
C10   C14   A    
C1    C26   S    
C7    H22   S    
C79   H73   S    
C80   C81   S    
C36   C44   A    
C103  H12   S    
C51   C59   A    
C89   C90   S    
C81   H69   S    
C74   C75   S    
C91   H100  S    
C92   H96   S    
C71   C73   S    
C104  H11   S    
C75   H53   S    
C95   H102  S    
C88   H86   S    
C89   H94   S    
C20   C94   A    
C78   H59   S    
Cu1   O7    S    
C2    C19   A    
C69   H46   S    
C46   O2    S    
C23   C72   A    
C70   H45   S    
C12   C24   A    
C99   H113  S    
C4    C5    S    
C3    H8    S    
C91   H101  S    
C11   C12   A    
C86   H80   S    
C6    C7    S    
C90   H92   S    
C61   C83   A    
Cu1   Cu2   S    
C5    H17   S    
C70   H42   S    
C97   H108  S    
C17   C25   S    
C81   H68   S    
C74   H58   S    
C13   C15   A    
C101  H4    S    
C42   C44   A    
C87   H89   S    
C29   C31   A    
C10   C16   A    
C64   C65   S    
C67   H41   S    
C49   C98   S    
C15   C28   A    
C66   H31   S    
C64   H36   S    
C18   H77   S    
C16   C19   A    
C96   H112  S    
C29   C34   A    
C73   H50   S    
C36   C38   A    
C100  C101  S    
C33   C35   A    
C47   C94   A    
C57   C85   S    
C68   H38   S    
C18   C20   A    
C65   C66   S    
C7    H20   S    
C69   C70   S    
C27   C67   S    
C58   N1    S    
C66   H29   S    
C42   N3    A    
C21   O10   A    
C9    C53   A    
C41   N4    A    
C100  H5    S    
C77   H63   S    
C98   C99   S    
C97   H109  S    
C25   C33   A    
C103  C104  S    
C75   H54   S    
C46   N2    A    
C3    H9    S    
C45   C50   A    
C7    H21   S    
C40   N3    A    
C85   H83   S    
C45   O12   S    
C22   O11   A    
C68   H39   S    
C81   H67   S    
C16   H66   S    
C26   C30   A    
C17   O7    A    
