data_mof_unit_8733.cif
_audit_creation_date              2013-03-05T15:43:55-0500
_audit_creation_method            fapswitch 2.2
_symmetry_space_group_name_H-M    P1
_symmetry_Int_Tables_number       1
_space_group_crystal_system       triclinic
_cell_length_a                    15.876228
_cell_length_b                    10.904712
_cell_length_c                    9.694557
_cell_angle_alpha                 90.994783
_cell_angle_beta                  90.270904
_cell_angle_gamma                 90.214158
_cell_volume                      1678.0929393

loop_
_atom_site_label
_atom_site_type_symbol
_atom_site_description
_atom_site_fract_x
_atom_site_fract_y
_atom_site_fract_z
_atom_type_partial_charge
O1    O     O_R   0.500010 0.321960 0.617040 -0.592703
O2    O     O_R   0.499990 0.321920 0.382900 -0.514389
C1    C     C_R   0.497651 0.265661 0.498477 0.797867
O3    O     O_R   0.379090 0.500010 0.617050 -0.578702
O4    O     O_R   0.379060 0.499970 0.382910 -0.528524
C2    C     C_R   0.339964 0.499344 0.499690 0.790449
Cu1   Cu    Cu3+1 0.500020 0.500020 0.638630 0.961535
Cu2   Cu    Cu3+1 0.499980 0.499980 0.361370 1.051868
O5    O     O_R   0.500010 0.678080 0.617100 -0.585217
O6    O     O_R   0.499990 0.678040 0.382960 -0.520649
O7    O     O_R   0.620940 0.500030 0.617090 -0.579845
O8    O     O_R   0.620910 0.499990 0.382950 -0.559294
C3    C     C_R   0.504630 0.734608 0.501180 0.882534
C4    C     C_R   0.660072 0.499427 0.500287 0.816125
C5    C     C_3   0.972133 0.420804 0.600533 -0.354975
C6    C     C_3   0.026744 0.383310 0.474398 0.331816
H1    H     H_    0.948843 0.361214 0.683913 0.163007
C7    C     C_1   0.250494 0.497980 0.498985 -0.084161
C8    C     C_1   0.749610 0.498111 0.500950 -0.166589
C9    C     C_3   0.028397 0.535610 0.620191 0.322569
C10   C     C_3   0.083576 0.497195 0.497464 -0.122420
C11   C     C_3   0.971334 0.613098 0.526002 -0.278811
C12   C     C_3   0.916517 0.496832 0.501404 -0.018777
C13   C     C_3   0.026043 0.571963 0.402282 0.194266
C14   C     C_3   0.970842 0.458041 0.376639 0.353515
C15   C     C_1   0.175098 0.497197 0.498300 0.153729
C16   C     C_1   0.825037 0.497156 0.501386 0.062662
H2    H     H_    0.948091 0.707283 0.548047 0.188257
C17   C     C_2   0.528365 0.934319 0.393863 0.368021
C18   C     C_2   0.518627 0.866057 0.506603 -0.366200
H3    H     H_    0.522775 0.908567 0.608769 0.149352
C19   C     C_2   0.542763 0.067957 0.415063 0.242065
C20   C     C_2   0.487204 0.133101 0.491480 0.198384
C21   C     C_2   0.445755 0.438857 0.920198 -0.100376
N1    N     N_2   0.499090 0.498660 0.846910 -0.304796
H4    H     H_    0.396741 0.386857 0.866826 0.187781
H5    H     H_    0.548033 0.543674 0.895471 0.190157
C22   C     C_2   0.448331 0.432991 0.075704 0.426617
N2    N     N_2   0.499070 0.498630 0.153040 -0.332473
H6    H     H_    0.537637 0.561645 0.107477 0.171181
O9    O     O_3   0.061006 0.266350 0.446140 -0.572733
C23   C     C_3   0.997305 0.176537 0.456665 0.022737
H7    H     H_    0.940175 0.201282 0.396312 0.161448
H8    H     H_    0.979889 0.164240 0.566576 0.160297
C24   C     C_3   0.029945 0.054805 0.400096 -0.685247
H9    H     H_    0.086041 0.025745 0.459875 0.253944
H10   H     H_    0.980242 0.983371 0.408155 0.211042
H11   H     H_    0.047527 0.064007 0.289998 0.257891
O10   O     O_3   0.420893 0.074056 0.558068 -0.620832
C25   C     C_3   0.346699 0.145467 0.559219 0.058334
H12   H     H_    0.333550 0.184687 0.455852 0.167026
H13   H     H_    0.351898 0.220610 0.637844 0.161940
C26   C     C_3   0.272335 0.064759 0.597236 -0.693592
H14   H     H_    0.282856 0.024637 0.700400 0.256521
H15   H     H_    0.213898 0.120419 0.600118 0.222228
H16   H     H_    0.264488 0.989491 0.519505 0.252772
N3    N     N_R   0.390053 0.351165 0.138639 0.146448
O11   O     O_R   0.310593 0.379705 0.140742 -0.341450
O12   O     O_R   0.411341 0.237193 0.153998 -0.406095
O13   O     O_3   0.933371 0.420355 0.250399 -0.577968
C27   C     C_3   0.995977 0.381607 0.156712 0.132467
H17   H     H_    0.025777 0.295459 0.191478 0.173618
H18   H     H_    0.045456 0.452846 0.143493 0.214840
C28   C     C_3   0.955404 0.356129 0.016649 -0.710773
H19   H     H_    0.927282 0.441517 0.976236 0.272524
H20   H     H_    0.003625 0.322248 0.942815 0.224125
H21   H     H_    0.905363 0.285326 0.025958 0.228536
N4    N     N_R   0.053556 0.655120 0.295241 0.139447
O14   O     O_R   0.997931 0.713108 0.222516 -0.314627
O15   O     O_R   0.133294 0.672436 0.272181 -0.330463
N5    N     N_R   0.061657 0.577139 0.753283 0.146185
O16   O     O_R   0.042846 0.685406 0.801998 -0.318652
O17   O     O_R   0.110205 0.505717 0.824150 -0.343592
O18   O     O_3   0.533078 0.878679 0.263669 -0.581983
C29   C     C_3   0.489430 0.947663 0.164457 0.125936
H22   H     H_    0.526761 0.029842 0.136146 0.199350
H23   H     H_    0.426211 0.976416 0.202618 0.181557
C30   C     C_3   0.476557 0.868870 0.034941 -0.750749
H24   H     H_    0.438913 0.786026 0.059410 0.257648
H25   H     H_    0.442581 0.922110 0.955598 0.224726
H26   H     H_    0.538436 0.839835 0.992799 0.235051
O19   O     O_3   0.606845 0.129479 0.346056 -0.588583
C31   C     C_3   0.682482 0.061676 0.346962 0.058114
H27   H     H_    0.679093 0.984750 0.270352 0.191858
H28   H     H_    0.696447 0.025151 0.451359 0.128897
C32   C     C_3   0.754962 0.145209 0.306736 -0.744863
H29   H     H_    0.761933 0.221463 0.383506 0.242780
H30   H     H_    0.814384 0.091902 0.303212 0.195215
H31   H     H_    0.743003 0.184039 0.203307 0.261844

loop_
_geom_bond_atom_site_label_1
_geom_bond_atom_site_label_2
_geom_bond_distance
_ccdc_geom_bond_type
C10   C15   1.453008 S    
C6    C10   1.544821 S    
O9    C23   1.410467 S    
C7    C15   1.196978 T    
Cu1   Cu2   2.687902 S    
C26   H14   1.110741 S    
Cu1   O7    1.932060 S    
O4    C2    1.293802 A    
N1    H5    1.025677 S    
C17   C19   1.484871 S    
C18   H3    1.087856 S    
O7    C4    1.294091 A    
C32   H30   1.110312 S    
N3    O12   1.300038 A    
C1    C20   1.454766 S    
C20   O10   1.398368 S    
C5    C6    1.552259 S    
C5    H1    1.109801 S    
C21   N1    1.290242 D    
C27   H18   1.112130 S    
O5    C3    1.293353 A    
O1    Cu1   1.949326 S    
N4    O14   1.300236 A    
C25   H13   1.111962 S    
C9    N5    1.456080 S    
C14   O13   1.412230 S    
C12   C16   1.452382 S    
C8    C16   1.197570 T    
C21   H4    1.085128 S    
C24   H10   1.110707 S    
C11   H2    1.110246 S    
C23   H8    1.112332 S    
O3    Cu1   1.930291 S    
C26   H15   1.110759 S    
C5    C9    1.543803 S    
C2    C7    1.420450 S    
C25   C26   1.520479 S    
O18   C29   1.412054 S    
C28   H21   1.110826 S    
C3    C18   1.449723 S    
C13   C14   1.533683 S    
O3    C2    1.293595 A    
N2    H6    1.025750 S    
N5    O17   1.300285 A    
C32   H29   1.111143 S    
C17   O18   1.393356 S    
C24   H11   1.110655 S    
C24   H9    1.110423 S    
C32   H31   1.110991 S    
O13   C27   1.410583 S    
O1    C1    1.293982 A    
C23   C24   1.521174 S    
C28   H20   1.110426 S    
C27   C28   1.520902 S    
C29   H22   1.111659 S    
C17   C18   1.342230 D    
C22   N3    1.429176 S    
C31   H27   1.111686 S    
Cu2   O8    1.930295 S    
C25   H12   1.115471 S    
C29   H23   1.115522 S    
N4    O15   1.300225 A    
Cu2   N2    2.019447 S    
C9    C11   1.547008 S    
O19   C31   1.412622 S    
C11   C13   1.545411 S    
C23   H7    1.113604 S    
C26   H16   1.110825 S    
C6    C14   1.540855 S    
Cu1   O5    1.956478 S    
C31   H28   1.115636 S    
C21   C22   1.510391 S    
Cu1   N1    2.019619 S    
C4    C8    1.421624 S    
O2    Cu2   1.956479 S    
O8    C4    1.293899 A    
O6    C3    1.293745 A    
O4    Cu2   1.932057 S    
C19   O19   1.396279 S    
C19   C20   1.350591 D    
O2    C1    1.287355 A    
N5    O16   1.300265 A    
C28   H19   1.110844 S    
C30   H24   1.110999 S    
C30   H26   1.110814 S    
N3    O11   1.300659 A    
C22   N2    1.301807 D    
C5    C12   1.554229 S    
C30   H25   1.110682 S    
C12   C14   1.542919 S    
C27   H17   1.110296 S    
C29   C30   1.521623 S    
C13   N4    1.457379 S    
C31   C32   1.521407 S    
C9    C10   1.534210 S    
Cu2   O6    1.949325 S    
O10   C25   1.414449 S    
C10   C13   1.540866 S    
C11   C12   1.549510 S    
C6    O9    1.411407 S    
