data_mof_unit_40285.cif
_audit_creation_date              2012-10-26T20:00:53-0400
_audit_creation_method            fapswitch 2.2
_symmetry_space_group_name_H-M    P1
_symmetry_Int_Tables_number       1
_space_group_crystal_system       triclinic
_cell_length_a                    11.750874
_cell_length_b                    13.024306
_cell_length_c                    13.461987
_cell_angle_alpha                 93.858081
_cell_angle_beta                  76.888743
_cell_angle_gamma                 99.552356
_cell_volume                      1977.84143726

loop_
_atom_site_label
_atom_site_type_symbol
_atom_type_description
_atom_site_fract_x
_atom_site_fract_y
_atom_site_fract_z
_atom_type_partial_charge
C1    C     C_R   0.520900 0.700648 0.501068 0.575521
C2    C     C_R   0.397223 0.505647 0.810005 -0.032550
C3    C     C_R   0.465853 0.186873 0.504612 0.004222
C4    C     C_R   0.436778 0.501109 0.696471 0.590265
C5    C     C_R   0.534622 0.813892 0.496123 -0.021078
C6    C     C_R   0.650191 0.975424 0.426216 0.232700
C7    C     C_R   0.638187 0.868214 0.437421 -0.159326
C8    C     C_R   0.442375 0.867631 0.545384 0.267455
C9    C     C_R   0.449594 0.973310 0.528269 -0.027364
C10   C     C_R   0.555316 0.028953 0.471286 -0.000550
C11   C     C_R   0.562746 0.136306 0.461367 -0.136147
C12   C     C_R   0.450003 0.524108 0.977314 -0.028268
C13   C     C_R   0.359505 0.130378 0.557850 0.257550
C14   C     C_R   0.351842 0.023758 0.568117 -0.089180
C15   C     C_R   0.952282 0.609197 0.579841 -0.130222
C16   C     C_R   0.479182 0.299594 0.499030 0.548446
C17   C     C_R   0.836214 0.603981 0.567059 0.418250
C18   C     C_R   0.851575 0.446384 0.470215 0.029325
C19   C     C_R   0.973847 0.455370 0.472171 -0.074027
C20   C     C_R   0.023155 0.536703 0.530594 -0.074369
C21   C     C_R   0.142310 0.544277 0.538752 0.340472
C22   C     C_R   0.170016 0.401195 0.422327 0.435288
C23   C     C_R   0.477860 0.546824 0.872843 -0.038641
C24   C     C_R   0.047384 0.384668 0.420266 0.182017
C25   C     C_R   0.563480 0.511887 0.304593 0.562289
C26   C     C_R   0.748824 0.577098 0.037364 0.281973
C27   C     C_R   0.599387 0.535358 0.194313 -0.027203
C28   C     C_R   0.280878 0.458477 0.856613 0.258661
C29   C     C_R   0.251763 0.441650 0.962257 0.258024
C30   C     C_R   0.338520 0.468364 0.019004 -0.102904
C31   C     C_3   0.860576 0.615852 0.229294 -0.077607
C32   C     C_3   0.245464 0.188716 0.703607 -0.064821
C33   C     C_3   0.364742 0.820448 0.709118 -0.090686
C34   C     C_R   0.538496 0.549995 0.035417 -0.006216
C35   C     C_3   0.258123 0.325278 0.270516 -0.030257
C36   C     C_3   0.834916 0.780205 0.566353 -0.102882
C37   C     C_3   0.910170 0.702108 0.990161 -0.134040
C38   C     C_3   0.097251 0.458970 0.821844 -0.025832
C39   C     C_3   0.078133 0.446942 0.078228 -0.086158
C40   C     C_3   0.619129 0.780272 0.791937 -0.112181
C41   C     C_R   0.657680 0.577379 0.984453 -0.055599
C42   C     C_R   0.680845 0.610037 0.883754 -0.091132
C43   C     C_R   0.586765 0.609945 0.835357 0.299111
C44   C     C_R   0.511982 0.550555 0.142245 0.142896
C45   C     C_R   0.719111 0.547052 0.140281 0.256827
Cl1   Cl    Cl    0.783661 0.037795 0.351526 -0.536879
Cl2   Cl    Cl    0.190969 0.626177 0.633853 -0.593542
Cl3   Cl    Cl    0.986543 0.272357 0.357543 -0.544136
Cl4   Cl    Cl    0.383500 0.603043 0.207170 -0.631700
Cu1   Cu    Cu3+1 0.386470 0.492430 0.492410 1.167858
Cu2   Cu    Cu3+1 0.613530 0.507570 0.507590 1.030328
H1    H     H_    0.268732 0.980906 0.607867 0.175747
H2    H     H_    0.801828 0.676202 0.254053 0.102519
H3    H     H_    0.321235 0.241386 0.725498 0.132308
H4    H     H_    0.232139 0.112084 0.739843 0.087036
H5    H     H_    0.164149 0.223503 0.734201 0.203671
H6    H     H_    0.414106 0.756790 0.716260 0.168791
H7    H     H_    0.278466 0.806230 0.764430 0.164497
H8    H     H_    0.411717 0.897266 0.731109 0.068721
H9    H     H_    0.353750 0.347284 0.236989 0.130460
H10   H     H_    0.208227 0.376916 0.240467 0.120512
H11   H     H_    0.231251 0.244321 0.243801 0.181611
H12   H     H_    0.709352 0.826816 0.398868 0.142542
H13   H     H_    0.873685 0.774640 0.482895 0.114908
H14   H     H_    0.904024 0.812850 0.608908 0.112095
H15   H     H_    0.771826 0.836583 0.577789 0.149166
H16   H     H_    0.870978 0.743307 0.061904 0.114770
H17   H     H_    0.896099 0.741003 0.924178 0.118778
H18   H     H_    0.007026 0.711910 0.984428 0.136964
H19   H     H_    0.111156 0.542612 0.846897 0.143436
H20   H     H_    0.030666 0.412509 0.880464 0.175842
H21   H     H_    0.058702 0.453833 0.753426 0.165178
H22   H     H_    0.065200 0.517772 0.042866 0.138240
H23   H     H_    0.987285 0.673138 0.625124 0.161778
H24   H     H_    0.119378 0.469984 0.144477 0.132864
H25   H     H_    0.989412 0.401834 0.107722 0.213809
H26   H     H_    0.613468 0.832317 0.731973 0.125534
H27   H     H_    0.709899 0.800255 0.806132 0.124668
H28   H     H_    0.552081 0.796744 0.861665 0.105976
H29   H     H_    0.769016 0.642168 0.844458 0.150767
H30   H     H_    0.810502 0.383339 0.427591 0.197733
H31   H     H_    0.319360 0.440379 0.094998 0.152233
H32   H     H_    0.643376 0.181496 0.420102 0.202280
H33   H     H_    0.887567 0.594686 0.298068 0.146157
H34   H     H_    0.942523 0.648981 0.175342 0.128455
N1    N     N_R   0.215880 0.481050 0.481000 -0.218771
N2    N     N_R   0.784100 0.518950 0.519000 -0.239621
O1    O     O_R   0.419710 0.645650 0.494620 -0.409329
O2    O     O_3   0.261500 0.178520 0.596581 -0.520356
O3    O     O_3   0.343451 0.817317 0.609803 -0.509351
O4    O     O_3   0.240299 0.327771 0.377884 -0.491226
O5    O     O_3   0.773205 0.683561 0.605659 -0.494639
O6    O     O_3   0.866448 0.594263 0.986674 -0.575444
O7    O     O_3   0.202906 0.415362 0.795968 -0.558336
O8    O     O_3   0.144610 0.383478 0.006192 -0.566376
O9    O     O_3   0.596922 0.675791 0.756466 -0.513127
O10   O     O_R   0.611450 0.658430 0.507430 -0.476901
O11   O     O_R   0.357340 0.490460 0.641450 -0.423246
O12   O     O_R   0.549080 0.503250 0.654260 -0.455670
O13   O     O_R   0.388550 0.341570 0.492570 -0.405668
O14   O     O_R   0.580290 0.354350 0.505380 -0.546327
O15   O     O_R   0.450920 0.496750 0.345740 -0.458262
O16   O     O_R   0.642660 0.509540 0.358550 -0.496346
O17   O     O_3   0.806095 0.524238 0.185854 -0.545028

loop_
_geom_bond_atom_site_label_1
_geom_bond_atom_site_label_2
_ccdc_geom_bond_type
C44   Cl4   S    
Cu2   O10   S    
C38   H19   S    
C42   H29   S    
C33   H7    S    
C31   H34   S    
C37   H18   S    
C41   C42   A    
C19   C20   A    
C34   C41   A    
C12   C23   A    
C1    C5    S    
C28   C29   A    
C4    O11   A    
C36   H15   S    
C25   O15   A    
Cu2   O16   S    
C37   H17   S    
C18   H30   S    
C23   C43   A    
C28   O7    S    
C18   C19   A    
C26   C45   A    
C38   H20   S    
C27   C44   A    
C3    C16   S    
C14   H1    S    
C8    C9    A    
C22   O4    S    
C39   H24   S    
C9    C10   A    
C32   H4    S    
C3    C13   A    
Cu1   O1    S    
C12   C30   A    
C27   C45   A    
C1    O1    A    
C22   N1    A    
C33   H8    S    
C13   C14   A    
C17   O5    S    
C40   O9    S    
C32   H3    S    
C43   O9    S    
Cu2   O12   S    
C15   C20   A    
C38   H21   S    
Cu1   O11   S    
C24   Cl3   S    
C34   C44   A    
Cu2   N2    S    
C5    C7    A    
C36   H14   S    
C16   O13   A    
C11   H32   S    
C31   H33   S    
C35   H9    S    
C30   H31   S    
C2    C4    S    
C9    C14   A    
C29   C30   A    
C45   O17   S    
C32   O2    S    
C7    H12   S    
C38   O7    S    
Cu1   Cu2   S    
C40   H28   S    
C37   O6    S    
C35   H10   S    
C39   H25   S    
C31   H2    S    
C39   O8    S    
Cu1   O15   S    
C22   C24   A    
C8    O3    S    
C42   C43   A    
C1    O10   A    
C29   O8    S    
C15   C17   A    
C21   N1    A    
C33   H6    S    
C6    Cl1   S    
C13   O2    S    
C17   N2    A    
C25   O16   A    
C6    C10   A    
C5    C8    A    
C6    C7    A    
C25   C27   S    
Cu1   O13   S    
C18   N2    A    
C31   O17   S    
C19   C24   A    
C33   O3    S    
C36   O5    S    
C26   O6    S    
C37   H16   S    
C35   H11   S    
C40   H27   S    
C39   H22   S    
C3    C11   A    
C10   C11   A    
Cu1   N1    S    
C16   O14   A    
C15   H23   S    
C20   C21   A    
C4    O12   A    
C2    C23   A    
C40   H26   S    
C2    C28   A    
C36   H13   S    
C12   C34   A    
C32   H5    S    
Cu2   O14   S    
C26   C41   A    
C21   Cl2   S    
C35   O4    S    
