data_mof_unit_21631.cif
_audit_creation_date              2012-12-10T20:31:51-0500
_audit_creation_method            fapswitch 2.2
_symmetry_space_group_name_H-M    P1
_symmetry_Int_Tables_number       1
_space_group_crystal_system       triclinic
_cell_length_a                    9.926437
_cell_length_b                    10.710243
_cell_length_c                    15.619026
_cell_angle_alpha                 91.511958
_cell_angle_beta                  68.10524
_cell_angle_gamma                 90.531287
_cell_volume                      1540.21962988

loop_
_atom_site_label
_atom_site_type_symbol
_atom_type_description
_atom_site_fract_x
_atom_site_fract_y
_atom_site_fract_z
_atom_type_partial_charge
C1    C     C_R   0.498680 0.739933 0.503059 0.868809
C2    C     C_R   0.414293 0.484171 0.913432 0.097629
C3    C     C_R   0.271049 0.521619 0.967084 0.145164
C4    C     C_R   0.515358 0.464690 0.955745 0.082707
C5    C     C_R   0.482001 0.508166 0.047859 0.069646
C6    C     C_R   0.342147 0.559478 0.097021 -0.236216
C7    C     C_R   0.236185 0.559245 0.058721 -0.223529
C8    C     C_R   0.644336 0.396061 0.910174 -0.238864
C9    C     C_R   0.740048 0.372787 0.953319 -0.263654
C10   C     C_R   0.713896 0.420449 0.041479 0.176312
C11   C     C_R   0.586195 0.491138 0.089000 0.099792
C12   C     C_R   0.408987 0.494561 0.675587 0.868162
C13   C     C_R   0.810633 0.392273 0.084661 -0.229262
C14   C     C_R   0.776792 0.426057 0.176814 -0.205250
C15   C     C_R   0.562810 0.534347 0.178664 -0.275882
C16   C     C_R   0.367754 0.935059 0.518669 0.068304
C17   C     C_R   0.490085 0.871798 0.517915 -0.124082
C18   C     C_R   0.600457 0.937341 0.535565 -0.213765
C19   C     C_R   0.599609 0.066804 0.536457 -0.223804
C20   C     C_R   0.488263 0.129170 0.519823 -0.089848
C21   C     C_R   0.367319 0.062924 0.519807 0.073068
C22   C     C_3   0.290981 0.068948 0.454239 -0.533695
C23   C     C_R   0.497638 0.260176 0.503731 0.870080
C24   C     C_3   0.293697 0.927511 0.450670 0.043280
C25   C     C_R   0.905695 0.595385 0.541738 0.201637
C26   C     C_R   0.955777 0.414633 0.449338 -0.215561
C27   C     C_R   0.100654 0.415908 0.447155 0.232233
C28   C     C_R   0.047132 0.594932 0.542192 0.230108
C29   C     C_3   0.994342 0.634774 0.641105 -0.509961
C30   C     C_3   0.841877 0.636899 0.640394 -0.511469
C31   C     C_R   0.591128 0.501380 0.324795 0.869728
C32   C     C_R   0.352926 0.485546 0.776744 -0.089079
C33   C     C_R   0.649001 0.492405 0.224666 -0.050054
C34   C     C_R   0.165202 0.520439 0.927778 -0.294905
C35   C     C_R   0.204241 0.493136 0.833297 0.228613
C36   C     C_R   0.454402 0.472906 0.818087 -0.322391
H1    H     H_    0.127759 0.591925 0.100206 0.152497
H2    H     H_    0.907918 0.337898 0.048790 0.145163
H3    H     H_    0.691523 0.889559 0.542354 0.163233
H4    H     H_    0.690505 0.116730 0.543465 0.167304
H5    H     H_    0.180765 0.109069 0.489864 0.200558
H6    H     H_    0.358686 0.110802 0.387462 0.198665
H7    H     H_    0.362887 0.885070 0.382737 0.147014
H8    H     H_    0.923431 0.345064 0.409236 0.152974
H9    H     H_    0.008942 0.560626 0.684410 0.236888
H10   H     H_    0.473689 0.595276 0.216651 0.135313
H11   H     H_    0.035092 0.728312 0.652114 0.205749
H12   H     H_    0.770034 0.565679 0.685287 0.216299
H13   H     H_    0.795059 0.732408 0.648939 0.199634
H14   H     H_    0.845785 0.394518 0.211754 0.154020
H15   H     H_    0.832521 0.313278 0.918784 0.159713
H16   H     H_    0.052568 0.538394 0.970563 0.148781
H17   H     H_    0.566882 0.460478 0.774717 0.163757
H18   H     H_    0.308080 0.595535 0.166714 0.138636
H19   H     H_    0.668860 0.351471 0.843247 0.148979
N1    N     N_R   0.856900 0.500860 0.500610 -0.115186
N2    N     N_R   0.142540 0.500820 0.500610 -0.123826
O1    O     O_R   0.385310 0.683210 0.499990 -0.605197
O2    O     O_R   0.614650 0.683240 0.500000 -0.617405
O3    O     O_R   0.319830 0.499970 0.632240 -0.591582
O4    O     O_R   0.549170 0.500000 0.632250 -0.622827
O5    O     O_R   0.385350 0.316760 0.500000 -0.595708
O6    O     O_R   0.614690 0.316790 0.500010 -0.628459
O7    O     O_R   0.450830 0.500000 0.367750 -0.592365
O8    O     O_R   0.680170 0.500030 0.367760 -0.617173
Zn1   Zn    Zn3+2 0.346870 0.499980 0.499990 0.970396
Zn2   Zn    Zn3+2 0.653130 0.500020 0.500010 0.934883
N3    N     N_2   0.149302 0.873814 0.489142 -0.271197
H20   H     H_    0.086080 0.907811 0.554110 0.227245
C37   C     C_3   0.073078 0.868590 0.426192 -0.799997
H21   H     H_    0.963858 0.827359 0.460839 0.231966
H22   H     H_    0.133927 0.809413 0.364564 0.242430
H23   H     H_    0.059201 0.963974 0.404350 0.236162
N4    N     N_2   0.202118 0.330436 0.386885 -0.260449
H24   H     H_    0.159234 0.241921 0.392705 0.194956
C38   C     C_3   0.251998 0.364667 0.291197 -0.748348
H25   H     H_    0.166953 0.344614 0.262349 0.209084
H26   H     H_    0.351130 0.310438 0.250723 0.244689
H27   H     H_    0.277299 0.465436 0.284735 0.249854
N5    N     N_2   0.094330 0.469412 0.797274 -0.306479
H28   H     H_    0.993816 0.504765 0.837959 0.224664
C39   C     C_3   0.086902 0.340423 0.768551 -0.787258
H29   H     H_    0.996140 0.329121 0.743680 0.225381
H30   H     H_    0.069273 0.277415 0.827116 0.223819
H31   H     H_    0.188615 0.311420 0.711554 0.258748

loop_
_geom_bond_atom_site_label_1
_geom_bond_atom_site_label_2
_ccdc_geom_bond_type
C16   C21   A    
C19   C20   A    
C9    H15   S    
C38   H27   S    
N2    Zn1   S    
C4    C8    A    
C14   C33   A    
C26   H8    S    
C22   H6    S    
C28   N2    A    
C25   C28   A    
C26   C27   A    
N4    C38   S    
C29   H11   S    
C32   C36   A    
C30   H12   S    
C28   C29   S    
C38   H26   S    
C5    C11   A    
C3    C7    A    
C1    O2    A    
C5    C6    A    
N5    H28   S    
C22   H5    S    
C16   C17   A    
C35   N5    S    
C18   C19   A    
C34   C35   A    
C36   H17   S    
O2    Zn2   S    
C11   C15   A    
O1    Zn1   S    
C23   O5    A    
C8    C9    A    
O8    Zn2   S    
C25   N1    A    
C37   H21   S    
C27   N4    S    
C9    C10   A    
C23   O6    A    
O3    Zn1   S    
C16   C24   S    
C13   C14   A    
C12   C32   S    
C6    H18   S    
C8    H19   S    
C19   H4    S    
O6    Zn2   S    
N4    H24   S    
O5    Zn1   S    
C32   C35   A    
C38   H25   S    
N5    C39   S    
C27   N2    A    
N3    H20   S    
C3    C34   A    
C29   H9    S    
O7    Zn1   S    
C2    C4    A    
C18   H3    S    
C29   C30   S    
O4    Zn2   S    
C20   C23   S    
C37   H23   S    
C31   C33   S    
C17   C18   A    
C7    H1    S    
C13   H2    S    
C30   H13   S    
C39   H30   S    
C22   C24   S    
C39   H31   S    
C2    C36   A    
C25   C30   S    
C31   O8    A    
C1    C17   S    
C31   O7    A    
C4    C5    A    
C10   C13   A    
C26   N1    A    
C6    C7    A    
N1    Zn2   S    
C34   H16   S    
C2    C3    A    
C1    O1    A    
C12   O4    A    
C14   H14   S    
C10   C11   A    
C24   N3    S    
C12   O3    A    
C20   C21   A    
N3    C37   S    
C39   H29   S    
C24   H7    S    
C37   H22   S    
C15   H10   S    
C21   C22   S    
C15   C33   A    
