data_mof_unit_7574.cif
_audit_creation_date              2012-12-11T15:39:30-0500
_audit_creation_method            fapswitch 2.2
_symmetry_space_group_name_H-M    P1
_symmetry_Int_Tables_number       1
_space_group_crystal_system       triclinic
_cell_length_a                    14.350384
_cell_length_b                    14.792284
_cell_length_c                    33.19502
_cell_angle_alpha                 97.600824
_cell_angle_beta                  90.330229
_cell_angle_gamma                 118.920279
_cell_volume                      6093.76181949

loop_
_atom_site_label
_atom_site_type_symbol
_atom_type_description
_atom_site_fract_x
_atom_site_fract_y
_atom_site_fract_z
_atom_type_partial_charge
C1    C     C_R   0.616999 0.910243 0.437063 0.543671
C2    C     C_R   0.712409 0.438105 0.949138 0.532899
C3    C     C_R   0.753971 0.819859 0.765754 -0.115146
C4    C     C_R   0.746696 0.840880 0.726666 -0.115009
C5    C     C_R   0.685769 0.759533 0.694798 0.032790
C6    C     C_R   0.632573 0.655934 0.703021 -0.111964
C7    C     C_R   0.639784 0.634756 0.742529 -0.110900
C8    C     C_R   0.700718 0.716859 0.774217 0.032798
C9    C     C_R   0.570825 0.735113 0.632885 -0.119607
C10   C     C_R   0.553468 0.771264 0.598388 -0.126886
C11   C     C_R   0.739204 0.905889 0.604768 -0.128724
C12   C     C_3   0.948363 0.098932 0.185251 -0.322703
C13   C     C_R   0.743488 0.716483 0.945930 0.567302
C14   C     C_R   0.829237 0.438664 0.164971 -0.119059
C15   C     C_R   0.827238 0.452113 0.124236 -0.125626
C16   C     C_R   0.780526 0.354644 0.246374 -0.113615
C17   C     C_R   0.773473 0.342169 0.287308 -0.110804
C18   C     C_R   0.733374 0.394869 0.313933 0.030360
C19   C     C_R   0.706292 0.464767 0.299500 -0.115705
C20   C     C_R   0.712832 0.476778 0.258559 -0.113651
C21   C     C_R   0.746930 0.419402 0.231522 0.029250
C22   C     C_R   0.742069 0.423535 0.187628 0.032420
C23   C     C_R   0.607357 0.345878 0.368487 -0.118006
C24   C     C_R   0.594098 0.205632 0.456656 0.544333
C25   C     C_R   0.572894 0.299297 0.403247 -0.126263
C26   C     C_R   0.740743 0.299831 0.412957 -0.126319
C27   C     C_R   0.775267 0.346652 0.378241 -0.121446
C28   C     C_R   0.707237 0.366378 0.354882 0.033005
C29   C     C_R   0.637633 0.272109 0.424832 0.022049
C30   C     C_R   0.244617 0.877969 0.393447 0.020248
C31   C     C_R   0.232536 0.959234 0.380820 -0.127781
C32   C     C_R   0.208350 0.956664 0.339725 -0.114996
C33   C     C_R   0.756831 0.868958 0.639038 -0.119173
C34   C     C_R   0.195305 0.872705 0.310872 0.040505
C35   C     C_R   0.200233 0.788379 0.323449 -0.112868
C36   C     C_R   0.295597 0.892789 0.434409 0.541942
C37   C     C_R   0.224506 0.790755 0.364515 -0.128081
C38   C     C_R   0.195617 0.807882 0.163205 -0.111942
C39   C     C_R   0.167876 0.786774 0.121333 -0.125327
C40   C     C_R   0.088281 0.899446 0.129885 -0.129337
C41   C     C_R   0.115640 0.919965 0.171869 -0.115363
C42   C     C_R   0.165902 0.871202 0.188679 0.039661
C43   C     C_1   0.176917 0.876413 0.232056 -0.029711
C44   C     C_R   0.671944 0.785508 0.654309 0.033347
C45   C     C_1   0.184466 0.875939 0.268144 -0.029790
C46   C     C_R   0.109832 0.828734 0.104500 0.020470
C47   C     C_R   0.637857 0.878534 0.395630 0.020383
C48   C     C_R   0.613884 0.904770 0.551561 0.543373
C49   C     C_R   0.553101 0.800662 0.368414 -0.130394
C50   C     C_R   0.565909 0.788767 0.326756 -0.117019
C51   C     C_R   0.663531 0.853853 0.312078 0.039056
C52   C     C_R   0.750476 0.926072 0.339187 -0.113605
C53   C     C_R   0.737896 0.938275 0.380817 -0.125428
C54   C     C_R   0.779102 0.927452 0.174247 0.167124
C55   C     C_R   0.636670 0.859084 0.584744 0.019371
C56   C     C_R   0.790766 0.911821 0.132085 -0.099901
C57   C     C_R   0.622860 0.749169 0.122817 -0.139849
C58   C     C_R   0.610042 0.763639 0.164172 -0.145871
C59   C     C_R   0.689192 0.849608 0.190075 0.049223
C60   C     C_R   0.589792 0.199622 0.570824 0.541531
C61   C     C_1   0.679669 0.852143 0.233129 -0.028329
C62   C     C_1   0.672305 0.852295 0.269134 -0.035712
C63   C     C_R   0.715663 0.820394 0.106748 -0.011515
C64   C     C_R   0.623970 0.251866 0.613492 0.019850
C65   C     C_R   0.559912 0.284866 0.635849 -0.129304
C66   C     C_R   0.051994 0.781264 0.063818 0.544438
C67   C     C_R   0.577588 0.311165 0.678198 -0.116569
C68   C     C_R   0.659460 0.305044 0.698546 0.041396
C69   C     C_R   0.728354 0.279694 0.676382 -0.114357
C70   C     C_R   0.711099 0.253670 0.634018 -0.129458
C71   C     C_R   0.764398 0.349408 0.844619 -0.115961
C72   C     C_R   0.288880 0.886711 0.548447 0.544464
C73   C     C_R   0.773174 0.373661 0.887031 -0.129297
C74   C     C_R   0.594496 0.352173 0.884606 -0.126148
C75   C     C_R   0.585957 0.327879 0.842207 -0.113334
C76   C     C_R   0.672324 0.330245 0.822156 0.042183
C77   C     C_R   0.743946 0.486809 0.066212 0.546181
C78   C     C_1   0.669505 0.321351 0.778617 -0.031625
C79   C     C_1   0.666364 0.315206 0.742127 -0.032302
C80   C     C_R   0.690154 0.380067 0.907320 0.021561
C81   C     C_R   0.064111 0.751094 0.907537 0.021749
C82   C     C_R   0.101950 0.849655 0.895594 -0.143056
C83   C     C_R   0.117507 0.861098 0.854785 -0.127956
C84   C     C_R   0.737751 0.450080 0.105684 0.020965
C85   C     C_R   0.095504 0.774105 0.825545 0.031281
C86   C     C_R   0.064416 0.677167 0.838053 -0.117848
C87   C     C_R   0.049493 0.665893 0.878773 -0.120291
C88   C     C_R   0.742925 0.789244 0.066422 0.553984
C89   C     C_R   0.143452 0.731018 0.756567 -0.113390
C90   C     C_R   0.147609 0.738041 0.715263 -0.111300
C91   C     C_R   0.108742 0.796810 0.698461 0.032921
C92   C     C_R   0.063885 0.847088 0.723541 -0.109682
C93   C     C_R   0.060014 0.840295 0.765018 -0.109984
C94   C     C_R   0.100436 0.782690 0.781872 0.032977
C95   C     C_R   0.174654 0.917635 0.647250 -0.120902
C96   C     C_R   0.647888 0.427693 0.127760 -0.124607
C97   C     C_R   0.220118 0.940048 0.610425 -0.129281
C98   C     C_R   0.163525 0.756424 0.589394 -0.128076
C99   C     C_R   0.021454 0.732008 0.947351 0.532149
C100  C     C_R   0.117324 0.733952 0.626039 -0.121939
C101  C     C_R   0.128007 0.815216 0.656116 0.032232
C102  C     C_R   0.219964 0.860324 0.582278 0.022044
C103  C     C_R   0.728080 0.701655 0.901133 0.016733
C104  C     C_R   0.629222 0.636007 0.878657 -0.124399
C105  C     C_R   0.620088 0.635166 0.836369 -0.116036
C106  C     C_R   0.710061 0.698611 0.816461 0.032569
C107  C     C_R   0.809653 0.756045 0.838716 -0.114599
C108  C     C_R   0.650243 0.414908 0.168424 -0.119938
C109  C     C_R   0.818124 0.758584 0.880433 -0.123124
Cr1   Cr    Cr6+3 0.424820 0.846020 0.489780 1.008671
Cr2   Cr    Cr6+3 0.657880 0.078580 0.505700 1.008128
Cr3   Cr    Cr6+3 0.417280 0.075360 0.504550 1.008519
Cr4   Cr    Cr6+3 0.903360 0.812540 0.006510 1.002909
Cr5   Cr    Cr6+3 0.914630 0.587050 0.006280 1.004495
Cr6   Cr    Cr6+3 0.673560 0.582680 0.008540 1.009278
H1    H     H_    0.577564 0.425096 0.114277 0.128478
H2    H     H_    0.092253 0.968971 0.191436 0.108254
H3    H     H_    0.042602 0.932056 0.117930 0.123415
H4    H     H_    0.897744 0.469372 0.107982 0.127571
H5    H     H_    0.204292 0.022119 0.330270 0.105293
H6    H     H_    0.861611 0.966433 0.119285 0.124107
H7    H     H_    0.826497 0.976308 0.327978 0.104446
H8    H     H_    0.804680 0.998674 0.401036 0.125695
H9    H     H_    0.475001 0.753794 0.378845 0.125464
H10   H     H_    0.540514 0.704684 0.176336 0.109314
H11   H     H_    0.563185 0.678519 0.103935 0.131398
H12   H     H_    0.493202 0.279149 0.411767 0.125896
H13   H     H_    0.498348 0.732350 0.305857 0.104569
H14   H     H_    0.847997 0.394953 0.903539 0.123544
H15   H     H_    0.853285 0.363328 0.368663 0.102164
H16   H     H_    0.831489 0.350968 0.829273 0.103065
H17   H     H_    0.792161 0.275119 0.691962 0.105585
H18   H     H_    0.761869 0.228643 0.617724 0.126814
H19   H     H_    0.492426 0.284598 0.620949 0.123476
H20   H     H_    0.514173 0.312672 0.824966 0.103814
H21   H     H_    0.529261 0.356706 0.899196 0.126389
H22   H     H_    0.524229 0.331296 0.695197 0.099668
H23   H     H_    0.900602 0.444979 0.179278 0.103527
H24   H     H_    0.113810 0.916356 0.917393 0.116526
H25   H     H_    0.019056 0.588724 0.887130 0.124238
H26   H     H_    0.079556 0.654047 0.632004 0.105245
H27   H     H_    0.793475 0.286647 0.297532 0.108619
H28   H     H_    0.185417 0.700994 0.696793 0.103529
H29   H     H_    0.176504 0.687401 0.768917 0.101673
H30   H     H_    0.143681 0.937104 0.845901 0.104510
H31   H     H_    0.033440 0.892787 0.711170 0.099049
H32   H     H_    0.025579 0.880167 0.783827 0.090350
H33   H     H_    0.184182 0.981694 0.670043 0.102120
H34   H     H_    0.792967 0.281011 0.429364 0.123537
H35   H     H_    0.262513 0.020770 0.605471 0.126559
H36   H     H_    0.046080 0.608672 0.816063 0.102680
H37   H     H_    0.160402 0.693324 0.567696 0.124606
H38   H     H_    0.558827 0.589756 0.893860 0.122188
H39   H     H_    0.806917 0.309670 0.225938 0.110699
H40   H     H_    0.895246 0.808749 0.896910 0.137930
H41   H     H_    0.836294 0.907969 0.654414 0.100156
H42   H     H_    0.785973 0.921657 0.721794 0.099914
H43   H     H_    0.799558 0.885058 0.789755 0.101901
H44   H     H_    0.542274 0.589662 0.819744 0.101499
H45   H     H_    0.185409 0.732008 0.102561 0.124038
H46   H     H_    0.585302 0.591525 0.678983 0.100360
H47   H     H_    0.598574 0.554662 0.748268 0.101411
H48   H     H_    0.503591 0.671443 0.644031 0.101084
H49   H     H_    0.473439 0.733256 0.583564 0.129037
H50   H     H_    0.880613 0.803537 0.824136 0.106419
H51   H     H_    0.581157 0.400726 0.185214 0.105366
H52   H     H_    0.805128 0.972735 0.594634 0.123663
H53   H     H_    0.676710 0.507380 0.319589 0.105818
H54   H     H_    0.688818 0.529006 0.247750 0.108779
H55   H     H_    0.552847 0.359355 0.350804 0.103358
H56   H     H_    0.234760 0.769963 0.175966 0.107750
H57   H     H_    0.871927 0.005243 0.229781 0.250596
H58   H     H_    0.995075 0.164734 0.210225 0.136225
H59   H     H_    0.921706 0.129674 0.161510 0.154765
H60   H     H_    0.000870 0.068361 0.172553 0.128721
H61   H     H_    0.189866 0.722829 0.301282 0.106324
H62   H     H_    0.233553 0.727170 0.373153 0.123193
H63   H     H_    0.247673 0.027614 0.402278 0.123846
N1    N     N_2   0.856989 0.017657 0.201177 -0.518036
O1    O     O_R   0.318160 0.824460 0.443680 -0.521767
O2    O     O_R   0.668160 0.499860 0.053480 -0.517799
O3    O     O_R   0.689170 0.693840 0.050110 -0.492993
O4    O     O_R   0.525040 0.857250 0.449830 -0.502696
O5    O     O_R   0.803860 0.812940 0.962540 -0.510806
O6    O     O_R   0.982950 0.787950 0.964120 -0.527477
O7    O     O_R   0.007050 0.649970 0.960540 -0.516706
O8    O     O_R   0.807910 0.482370 0.965590 -0.504664
O9    O     O_R   0.643310 0.460980 0.963840 -0.526054
O10   O     O_R   0.666140 0.657800 0.967020 -0.499203
O11   O     O_3   0.830520 0.660760 0.007110 -0.260803
O12   O     O_R   0.645130 0.163230 0.552140 -0.502505
O13   O     O_R   0.684760 0.998800 0.456360 -0.518500
O14   O     O_R   0.647540 0.166310 0.470260 -0.501587
O15   O     O_R   0.500960 0.181750 0.467450 -0.520114
O16   O     O_R   0.331100 0.981120 0.457080 -0.501377
O17   O     O_R   0.315560 0.821140 0.532010 -0.520460
O18   O     O_R   0.522630 0.854180 0.531710 -0.501290
O19   O     O_R   0.682160 0.995480 0.544690 -0.519396
O20   O     O_R   0.498360 0.178430 0.555780 -0.520100
O21   O     O_R   0.328690 0.978040 0.538950 -0.501751
O22   O     O_3   0.499990 0.999990 0.500010 -0.233088
O23   O     O_R   0.828710 0.851830 0.052170 -0.517811
O24   O     O_R   0.005980 0.823990 0.047210 -0.501103
O25   O     O_R   0.031900 0.688850 0.050170 -0.514534
O26   O     O_R   0.830940 0.518420 0.048680 -0.498206

loop_
_geom_bond_atom_site_label_1
_geom_bond_atom_site_label_2
_ccdc_geom_bond_type
C48   C55   S    
C40   H3    S    
C107  H50   S    
Cr2   O12   S    
C16   C21   A    
Cr5   O11   S    
C63   C88   S    
C41   C42   A    
C19   C20   A    
C36   O1    A    
C99   O6    A    
C87   H25   S    
Cr2   O22   S    
C81   C82   A    
C1    O4    A    
C33   H41   S    
C7    C8    A    
C47   C49   A    
C98   H37   S    
C85   C86   A    
C40   C46   A    
Cr4   O11   S    
C26   C27   A    
C93   C94   A    
Cr1   O22   S    
C35   H61   S    
C35   C37   A    
C91   C101  S    
C46   C66   S    
C100  H26   S    
C69   H17   S    
Cr2   O19   S    
C5    C6    A    
C39   H45   S    
C75   H20   S    
Cr4   O5    S    
C106  C107  A    
C13   O10   A    
C54   N1    S    
C17   C18   A    
C34   C35   A    
C84   C96   A    
C89   C94   A    
C9    H48   S    
C24   C29   S    
C92   C93   A    
C60   O20   A    
C83   H30   S    
Cr6   O11   S    
C52   H7    S    
C14   H23   S    
C42   C43   S    
C16   C17   A    
C65   C67   A    
C74   H21   S    
C3    H43   S    
C77   O2    A    
C97   H35   S    
C64   C70   A    
C104  H38   S    
C13   C103  S    
C9    C10   A    
Cr3   O20   S    
C90   H28   S    
C47   C53   A    
C66   O25   A    
C68   C79   S    
Cr4   O24   S    
C20   H54   S    
C96   C108  A    
Cr2   O13   S    
C74   C80   A    
C21   C22   S    
Cr1   O18   S    
C11   H52   S    
C107  C109  A    
C61   C62   T    
C51   C62   S    
Cr3   O22   S    
C32   H5    S    
C67   H22   S    
C104  C105  A    
Cr6   O2    S    
C60   C64   S    
C57   C63   A    
C6    C7    A    
C54   C56   A    
C54   C59   A    
C25   C29   A    
C7    H47   S    
C73   H14   S    
C59   C61   S    
C74   C75   A    
C31   H63   S    
C92   H31   S    
C51   C52   A    
C38   H56   S    
C18   C28   S    
C3    C8    A    
C53   H8    S    
C57   H11   S    
C71   C73   A    
C78   C79   T    
C18   C19   A    
C81   C99   S    
C77   C84   S    
C58   C59   A    
C98   C102  A    
C49   H9    S    
C4    H42   S    
Cr5   O8    S    
C67   C68   A    
C30   C37   A    
C48   O19   A    
C17   H27   S    
C32   C34   A    
C75   C76   A    
Cr3   O16   S    
C82   H24   S    
C77   O26   A    
C72   O21   A    
C85   C94   S    
C88   O3    A    
C31   C32   A    
C6    H46   S    
Cr1   O1    S    
C30   C31   A    
C13   O5    A    
Cr4   O6    S    
C12   N1    S    
C50   C51   A    
C56   C63   A    
C34   C45   S    
Cr4   O23   S    
C10   C55   A    
C43   C45   T    
Cr3   O15   S    
C81   C87   A    
Cr2   O14   S    
C39   C46   A    
C66   O24   A    
H57   N1    S    
C40   C41   A    
C83   C85   A    
C5    C44   S    
Cr1   O4    S    
C82   C83   A    
C98   C100  A    
C12   H60   S    
Cr1   O17   S    
C58   H10   S    
Cr5   O25   S    
C23   C28   A    
C24   O15   A    
C3    C4    A    
C89   C90   A    
C71   C76   A    
C91   C92   A    
Cr6   O3    S    
C11   C55   A    
C52   C53   A    
C12   H59   S    
C108  H51   S    
C9    C44   A    
C10   H49   S    
C86   C87   A    
C33   C44   A    
C68   C69   A    
C26   H34   S    
C1    C47   S    
C95   H33   S    
C97   C102  A    
C76   C78   S    
C4    C5    A    
C8    C106  S    
C72   O17   A    
C95   C97   A    
C38   C42   A    
C15   C84   A    
C11   C33   A    
C89   H29   S    
C37   H62   S    
C105  C106  A    
C70   H18   S    
Cr5   O7    S    
Cr5   O26   S    
C30   C36   S    
C48   O18   A    
C103  C109  A    
C41   H2    S    
C56   H6    S    
C14   C22   A    
C25   H12   S    
C36   O16   A    
C86   H36   S    
C64   C65   A    
C16   H39   S    
Cr6   O9    S    
C90   C91   A    
C38   C39   A    
C23   H55   S    
C72   C102  S    
C24   O14   A    
C60   O12   A    
C22   C108  A    
C100  C101  A    
C73   C80   A    
C15   H4    S    
C93   H32   S    
C65   H19   S    
C23   C25   A    
C69   C70   A    
C109  H40   S    
C2    O9    A    
C2    C80   S    
C105  H44   S    
C71   H16   S    
Cr6   O10   S    
C1    O13   A    
C2    O8    A    
C50   H13   S    
C20   C21   A    
C26   C29   A    
C49   C50   A    
C19   H53   S    
C103  C104  A    
C27   H15   S    
C14   C15   A    
C96   H1    S    
C88   O23   A    
C57   C58   A    
Cr3   O21   S    
C99   O7    A    
C95   C101  A    
C12   H58   S    
C27   C28   A    
