data_mof_unit_64127.cif
_audit_creation_date              2012-12-10T18:07:15-0500
_audit_creation_method            fapswitch 2.2
_symmetry_space_group_name_H-M    P1
_symmetry_Int_Tables_number       1
_space_group_crystal_system       triclinic
_cell_length_a                    18.322929
_cell_length_b                    18.25436
_cell_length_c                    43.069215
_cell_angle_alpha                 89.830115
_cell_angle_beta                  90.070733
_cell_angle_gamma                 90.082211
_cell_volume                      14405.4152338

loop_
_atom_site_label
_atom_site_type_symbol
_atom_type_description
_atom_site_fract_x
_atom_site_fract_y
_atom_site_fract_z
_atom_type_partial_charge
C1    C     C_R   0.441710 0.967155 0.114535 -0.029472
C2    C     C_R   0.558512 0.031938 0.885529 -0.029356
C3    C     C_R   0.045714 0.451616 0.114886 -0.026487
C4    C     C_R   0.954558 0.548619 0.885128 -0.026920
C5    C     C_R   0.558020 0.032684 0.114463 -0.031049
C6    C     C_R   0.441821 0.967091 0.885504 -0.031647
C7    C     C_R   0.954580 0.548898 0.114724 -0.030883
C8    C     C_R   0.045186 0.450862 0.885284 -0.031135
C9    C     C_R   0.950846 0.545301 0.614782 -0.030246
C10   C     C_R   0.051354 0.457804 0.385438 -0.040140
C11   C     C_R   0.542030 0.948731 0.614691 -0.038013
C12   C     C_R   0.454163 0.048673 0.385037 -0.028406
C13   C     C_R   0.048707 0.454814 0.614884 -0.031400
C14   C     C_R   0.949024 0.543176 0.385158 -0.027510
C15   C     C_R   0.457169 0.051610 0.614675 -0.030388
C16   C     C_R   0.544694 0.950798 0.385306 -0.033000
C17   C     C_R   0.442214 0.967512 0.082138 -0.181376
C18   C     C_R   0.557881 0.031530 0.917921 -0.181574
C19   C     C_R   0.045374 0.452017 0.082442 -0.174716
C20   C     C_R   0.954888 0.548192 0.917573 -0.175001
C21   C     C_R   0.557368 0.032324 0.082074 -0.182179
C22   C     C_R   0.442364 0.967387 0.917898 -0.181623
C23   C     C_R   0.954973 0.548546 0.082273 -0.175757
C24   C     C_R   0.044793 0.451204 0.917736 -0.176134
C25   C     C_R   0.951170 0.544999 0.582339 -0.179058
C26   C     C_R   0.050717 0.458188 0.417873 -0.178521
C27   C     C_R   0.541572 0.949360 0.582261 -0.177560
C28   C     C_R   0.454377 0.048354 0.417477 -0.175402
C29   C     C_R   0.048303 0.455303 0.582442 -0.178448
C30   C     C_R   0.949279 0.542856 0.417608 -0.178218
C31   C     C_R   0.457401 0.051336 0.582222 -0.176262
C32   C     C_R   0.544122 0.951197 0.417746 -0.178872
C33   C     C_R   0.499881 0.999967 0.131268 -0.090971
C34   C     C_R   0.500132 0.999648 0.868742 -0.092430
C35   C     C_R   0.000143 0.500250 0.131431 -0.083829
C36   C     C_R   0.999871 0.499748 0.868577 -0.083138
C37   C     C_R   0.999836 0.500050 0.631463 -0.087514
C38   C     C_R   0.000141 0.500298 0.368620 -0.088194
C39   C     C_R   0.499808 0.000203 0.631356 -0.087954
C40   C     C_R   0.499558 0.999750 0.368551 -0.086143
C41   C     C_R   0.999763 0.500427 0.468532 0.313572
C42   C     C_R   0.999711 0.500300 0.531599 0.313802
C43   C     C_R   0.499187 0.000020 0.468395 0.313984
C44   C     C_R   0.499359 0.000381 0.531457 0.313744
C45   C     C_R   0.499974 0.999565 0.968526 0.313532
C46   C     C_R   0.499795 0.999816 0.031489 0.313608
C47   C     C_R   0.999904 0.499815 0.968467 0.313979
C48   C     C_R   0.000101 0.500144 0.031545 0.313940
C49   C     C_R   0.499906 0.999909 0.334268 0.803101
C50   C     C_R   0.499998 0.000077 0.665697 0.799718
C51   C     C_R   0.000051 0.500012 0.334271 0.799764
C52   C     C_R   0.999952 0.500014 0.665761 0.801257
C53   C     C_R   0.999977 0.499910 0.834277 0.792364
C54   C     C_R   0.000026 0.500090 0.165726 0.798312
C55   C     C_R   0.500044 0.999911 0.834320 0.807328
C56   C     C_R   0.499960 0.999997 0.165684 0.803342
C57   C     C_R   0.359852 0.139774 0.250022 0.877173
C58   C     C_R   0.639756 0.859881 0.750133 0.898447
C59   C     C_R   0.860117 0.360056 0.250009 0.862741
C60   C     C_R   0.140155 0.639698 0.750194 0.893070
C61   C     C_R   0.639480 0.859450 0.249912 0.850533
C62   C     C_R   0.360456 0.140449 0.750051 0.850277
C63   C     C_R   0.140205 0.639711 0.249742 0.887145
C64   C     C_R   0.859764 0.360329 0.750289 0.885050
C65   C     C_R   0.359804 0.860351 0.749730 0.886445
C66   C     C_R   0.639850 0.140030 0.250009 0.913151
C67   C     C_R   0.860036 0.639986 0.749999 0.862937
C68   C     C_R   0.140112 0.360206 0.249964 0.879555
C69   C     C_R   0.640165 0.139782 0.749742 0.871282
C70   C     C_R   0.359820 0.860248 0.250244 0.889166
C71   C     C_R   0.139535 0.359545 0.749937 0.849976
C72   C     C_R   0.860357 0.640316 0.249988 0.848441
C73   C     C_R   0.304233 0.750456 0.226384 -0.106361
C74   C     C_R   0.696977 0.248340 0.774178 -0.104428
C75   C     C_R   0.259973 0.314637 0.232229 -0.096899
C76   C     C_R   0.740507 0.685665 0.768298 -0.089650
C77   C     C_R   0.697787 0.248241 0.225587 -0.089794
C78   C     C_R   0.303283 0.751132 0.773864 -0.083763
C79   C     C_R   0.823231 0.769621 0.255615 -0.105562
C80   C     C_R   0.176664 0.230153 0.744025 -0.106198
C81   C     C_R   0.231272 0.176315 0.743027 -0.094796
C82   C     C_R   0.768583 0.823279 0.256772 -0.103425
C83   C     C_R   0.248179 0.697360 0.774201 -0.106414
C84   C     C_R   0.751498 0.303449 0.225920 -0.100255
C85   C     C_R   0.686190 0.740161 0.768296 -0.110266
C86   C     C_R   0.313322 0.259244 0.231649 -0.104914
C87   C     C_R   0.751624 0.302652 0.774299 -0.092267
C88   C     C_R   0.249688 0.696044 0.226283 -0.092078
C89   C     C_R   0.802289 0.252493 0.725814 -0.103253
C90   C     C_R   0.196091 0.749183 0.273616 -0.105370
C91   C     C_R   0.759897 0.815103 0.732464 -0.098723
C92   C     C_R   0.239677 0.185014 0.267806 -0.095019
C93   C     C_R   0.198406 0.747197 0.725320 -0.086520
C94   C     C_R   0.801780 0.252446 0.274421 -0.074885
C95   C     C_R   0.323349 0.269871 0.755884 -0.106623
C96   C     C_R   0.676400 0.729788 0.244178 -0.106518
C97   C     C_R   0.731018 0.675936 0.243171 -0.095225
C98   C     C_R   0.268735 0.323698 0.756890 -0.095446
C99   C     C_R   0.746197 0.199261 0.274900 -0.105707
C100  C     C_R   0.252197 0.802283 0.725480 -0.104316
C101  C     C_R   0.185325 0.239542 0.267747 -0.098093
C102  C     C_R   0.813861 0.760310 0.732179 -0.101975
C103  C     C_R   0.250577 0.803598 0.273745 -0.093515
C104  C     C_R   0.747362 0.198595 0.725540 -0.077289
C105  C     C_R   0.195649 0.696575 0.249628 -0.152672
C106  C     C_R   0.804339 0.303461 0.750407 -0.155978
C107  C     C_R   0.303076 0.195378 0.249664 -0.148905
C108  C     C_R   0.696091 0.803936 0.750169 -0.148585
C109  C     C_R   0.803816 0.304084 0.249995 -0.155612
C110  C     C_R   0.195719 0.696496 0.750169 -0.156729
C111  C     C_R   0.695585 0.803130 0.250673 -0.148527
C112  C     C_R   0.304243 0.196579 0.749234 -0.147451
C113  C     C_R   0.195754 0.303422 0.750718 -0.145845
C114  C     C_R   0.804083 0.696313 0.249133 -0.143721
C115  C     C_R   0.304482 0.803318 0.749576 -0.154255
C116  C     C_R   0.695747 0.196548 0.250084 -0.161712
C117  C     C_R   0.803731 0.696104 0.750068 -0.148828
C118  C     C_R   0.196533 0.304286 0.250341 -0.146188
C119  C     C_R   0.695280 0.197010 0.749671 -0.151343
C120  C     C_R   0.304491 0.803261 0.250333 -0.151458
C121  C     C_R   0.499761 0.999915 0.065697 0.049757
C122  C     C_R   0.500071 0.999487 0.934318 0.049860
C123  C     C_R   0.000172 0.500271 0.065868 0.046041
C124  C     C_R   0.999836 0.499698 0.934144 0.046145
C125  C     C_R   0.999730 0.500214 0.565909 0.046719
C126  C     C_R   0.999864 0.500464 0.434220 0.049049
C127  C     C_R   0.499478 0.000443 0.565765 0.049519
C128  C     C_R   0.499198 0.999836 0.434090 0.047032
H1    H     H_    0.397418 0.941940 0.069746 0.163836
H2    H     H_    0.602840 0.056724 0.930347 0.163759
H3    H     H_    0.080897 0.414592 0.070141 0.164477
H4    H     H_    0.919569 0.585807 0.929876 0.164521
H5    H     H_    0.602177 0.057792 0.069634 0.164074
H6    H     H_    0.397415 0.942085 0.930307 0.164059
H7    H     H_    0.919400 0.585916 0.069837 0.163899
H8    H     H_    0.080170 0.413645 0.930170 0.163949
H9    H     H_    0.913526 0.580309 0.569926 0.164132
H10   H     H_    0.090132 0.425026 0.430357 0.163320
H11   H     H_    0.574494 0.909713 0.569900 0.163104
H12   H     H_    0.419009 0.085991 0.429743 0.164248
H13   H     H_    0.085872 0.420003 0.570111 0.164106
H14   H     H_    0.909926 0.576251 0.429888 0.163410
H15   H     H_    0.424168 0.090882 0.569821 0.163179
H16   H     H_    0.579400 0.913620 0.430222 0.163524
N1    N     N_R   0.555631 0.030734 0.015435 -0.164002
N2    N     N_R   0.444129 0.968648 0.984579 -0.163888
N3    N     N_R   0.956721 0.546882 0.015354 -0.162873
N4    N     N_R   0.043282 0.453076 0.984657 -0.162836
N5    N     N_R   0.444043 0.968766 0.015444 -0.163704
N6    N     N_R   0.555718 0.030613 0.984573 -0.163819
N7    N     N_R   0.043375 0.453236 0.015550 -0.163103
N8    N     N_R   0.956630 0.546723 0.984462 -0.163141
N9    N     N_R   0.047775 0.458417 0.515582 -0.163516
N10   N     N_R   0.951675 0.542303 0.484547 -0.163420
N11   N     N_R   0.457508 0.048503 0.515267 -0.163073
N12   N     N_R   0.541040 0.951926 0.484590 -0.163243
N13   N     N_R   0.951660 0.542251 0.515439 -0.163571
N14   N     N_R   0.047807 0.458490 0.484695 -0.163643
N15   N     N_R   0.541107 0.952093 0.515473 -0.163565
N16   N     N_R   0.457419 0.048317 0.484374 -0.163422
O1    O     O_3   0.500000 0.000000 0.250000 -0.527179
O2    O     O_3   0.500000 0.000000 0.750000 -0.527227
O3    O     O_3   0.000000 0.500000 0.250000 -0.529291
O4    O     O_3   1.000000 0.500000 0.750000 -0.529404
O5    O     O_R   0.500000 0.939250 0.319430 -0.612669
O6    O     O_R   0.500000 0.060750 0.680570 -0.616296
O7    O     O_R   0.060750 0.500000 0.319430 -0.626469
O8    O     O_R   0.939250 0.500000 0.680570 -0.630539
O9    O     O_R   0.500000 0.060750 0.319430 -0.633067
O10   O     O_R   0.500000 0.939250 0.680570 -0.612379
O11   O     O_R   0.939250 0.500000 0.319430 -0.616076
O12   O     O_R   0.060750 0.500000 0.680570 -0.629221
O13   O     O_R   0.000000 0.439250 0.819430 -0.614701
O14   O     O_R   1.000000 0.560750 0.180570 -0.614531
O15   O     O_R   0.560750 0.000000 0.819430 -0.619904
O16   O     O_R   0.439250 0.000000 0.180570 -0.622033
O17   O     O_R   0.000000 0.560750 0.819430 -0.621263
O18   O     O_R   1.000000 0.439250 0.180570 -0.616982
O19   O     O_R   0.439250 0.000000 0.819430 -0.633537
O20   O     O_R   0.560750 0.000000 0.180570 -0.635693
O21   O     O_R   0.414500 0.146140 0.268270 -0.641351
O22   O     O_R   0.585500 0.853860 0.731730 -0.607576
O23   O     O_R   0.853860 0.414500 0.268270 -0.594718
O24   O     O_R   0.146140 0.585500 0.731730 -0.642232
O25   O     O_R   0.585500 0.853860 0.268270 -0.591967
O26   O     O_R   0.414500 0.146140 0.731730 -0.592039
O27   O     O_R   0.146140 0.585500 0.268270 -0.631825
O28   O     O_R   0.853860 0.414500 0.731730 -0.629654
O29   O     O_R   0.414500 0.853860 0.731730 -0.574643
O30   O     O_R   0.585500 0.146140 0.268270 -0.616770
O31   O     O_R   0.853860 0.585500 0.731730 -0.608981
O32   O     O_R   0.146140 0.414500 0.268270 -0.576584
O33   O     O_R   0.585500 0.146140 0.731730 -0.572666
O34   O     O_R   0.414500 0.853860 0.268270 -0.577522
O35   O     O_R   0.146140 0.414500 0.731730 -0.633556
O36   O     O_R   0.853860 0.585500 0.268270 -0.632374
O37   O     O_R   0.914500 0.646140 0.768270 -0.607392
O38   O     O_R   0.085500 0.353860 0.231730 -0.647470
O39   O     O_R   0.353860 0.914500 0.768270 -0.640428
O40   O     O_R   0.646140 0.085500 0.231730 -0.618932
O41   O     O_R   0.085500 0.353860 0.768270 -0.593608
O42   O     O_R   0.914500 0.646140 0.231730 -0.595090
O43   O     O_R   0.646140 0.085500 0.768270 -0.642111
O44   O     O_R   0.353860 0.914500 0.231730 -0.631305
O45   O     O_R   0.914500 0.353860 0.231730 -0.598247
O46   O     O_R   0.085500 0.646140 0.768270 -0.564420
O47   O     O_R   0.353860 0.085500 0.231730 -0.575227
O48   O     O_R   0.646140 0.914500 0.768270 -0.613566
O49   O     O_R   0.085500 0.646140 0.231730 -0.576676
O50   O     O_R   0.914500 0.353860 0.768270 -0.576558
O51   O     O_R   0.646140 0.914500 0.231730 -0.631728
O52   O     O_R   0.353860 0.085500 0.768270 -0.634222
Zn1   Zn    Zn3+2 0.413200 0.000000 0.224130 1.078355
Zn2   Zn    Zn3+2 0.586800 0.000000 0.775870 1.058905
Zn3   Zn    Zn3+2 1.000000 0.413200 0.224130 1.056277
Zn4   Zn    Zn3+2 0.000000 0.586800 0.775870 1.090011
Zn5   Zn    Zn3+2 0.586800 0.000000 0.224130 1.064194
Zn6   Zn    Zn3+2 0.413200 0.000000 0.775870 1.049968
Zn7   Zn    Zn3+2 1.000000 0.586800 0.224130 1.087569
Zn8   Zn    Zn3+2 1.000000 0.413200 0.775870 1.086995
Zn9   Zn    Zn3+2 0.913200 0.500000 0.724130 1.063480
Zn10  Zn    Zn3+2 0.086800 0.500000 0.275870 1.070100
Zn11  Zn    Zn3+2 0.500000 0.913200 0.724130 1.087693
Zn12  Zn    Zn3+2 0.500000 0.086800 0.275870 1.062909
Zn13  Zn    Zn3+2 0.086800 0.500000 0.724130 1.052056
Zn14  Zn    Zn3+2 0.913200 0.500000 0.275870 1.065394
Zn15  Zn    Zn3+2 0.500000 0.086800 0.724130 1.088364
Zn16  Zn    Zn3+2 0.500000 0.913200 0.275870 1.094920
C129  C     C_1   0.381319 0.930852 0.129750 0.227274
N17   N     N_1   0.332821 0.901919 0.141872 -0.128195
C130  C     C_1   0.619426 0.067512 0.870388 0.228069
N18   N     N_1   0.668378 0.095811 0.858331 -0.128265
C131  C     C_1   0.095148 0.402171 0.130591 0.204856
N19   N     N_1   0.134705 0.362570 0.143165 -0.136608
C132  C     C_1   0.905418 0.598378 0.869436 0.205257
N20   N     N_1   0.866101 0.638239 0.856874 -0.136443
C133  C     C_1   0.618744 0.068563 0.129584 0.221084
N21   N     N_1   0.667553 0.097093 0.141628 -0.130036
C134  C     C_1   0.381142 0.931240 0.870334 0.221185
N22   N     N_1   0.332398 0.902687 0.858251 -0.127525
C135  C     C_1   0.904855 0.598014 0.130276 0.221477
N23   N     N_1   0.865018 0.637287 0.142740 -0.128510
C136  C     C_1   0.094674 0.401496 0.869737 0.222688
N24   N     N_1   0.134321 0.362022 0.857278 -0.127793
C137  C     C_1   0.901150 0.594451 0.630329 0.213518
N25   N     N_1   0.861350 0.633790 0.642773 -0.133629
C138  C     C_1   0.104179 0.411624 0.370133 0.226938
N26   N     N_1   0.146637 0.374687 0.357960 -0.105062
C139  C     C_1   0.587941 0.895580 0.630147 0.229183
N27   N     N_1   0.624657 0.852854 0.642439 -0.105130
C140  C     C_1   0.404985 0.098292 0.369280 0.202188
N28   N     N_1   0.365622 0.138018 0.356666 -0.140319
C141  C     C_1   0.098187 0.405324 0.630545 0.222181
N29   N     N_1   0.137759 0.365673 0.643088 -0.137744
C142  C     C_1   0.897279 0.590253 0.369486 0.226962
N30   N     N_1   0.855888 0.627983 0.356942 -0.137589
C143  C     C_1   0.410397 0.103608 0.630204 0.226537
N31   N     N_1   0.372912 0.145195 0.642638 -0.126717
C144  C     C_1   0.594163 0.901288 0.369826 0.232687
N32   N     N_1   0.633791 0.861694 0.357425 -0.122117
C145  C     C_2   0.359079 0.753819 0.200757 0.953642
O53   O     O_2   0.423268 0.766444 0.206445 -0.635491
O54   O     O_R   0.336934 0.742616 0.170046 -0.761281
H17   H     H_    0.378966 0.745898 0.154813 0.359682
C146  C     C_2   0.643054 0.244044 0.800133 0.957173
O55   O     O_2   0.578635 0.231809 0.794760 -0.633247
O56   O     O_R   0.666261 0.254140 0.830772 -0.762023
H18   H     H_    0.624719 0.250558 0.846235 0.359096
C147  C     C_2   0.268425 0.381453 0.212527 0.941416
O57   O     O_2   0.259138 0.442253 0.223677 -0.597218
O58   O     O_R   0.287089 0.374544 0.181203 -0.764680
H19   H     H_    0.291077 0.423665 0.170278 0.363915
C148  C     C_2   0.732828 0.619494 0.788453 0.942506
O59   O     O_2   0.743470 0.558410 0.777809 -0.599121
O60   O     O_R   0.713243 0.627344 0.819634 -0.764649
H20   H     H_    0.709842 0.578614 0.830904 0.364144
C149  C     C_2   0.643941 0.244646 0.199599 0.956428
O61   O     O_2   0.579353 0.233640 0.204994 -0.637639
O62   O     O_R   0.667265 0.254559 0.168968 -0.762922
H21   H     H_    0.625633 0.251728 0.153485 0.353251
C150  C     C_2   0.358775 0.753700 0.799219 0.955985
O63   O     O_2   0.423239 0.762845 0.793015 -0.633534
O64   O     O_R   0.337169 0.745235 0.830152 -0.762949
H22   H     H_    0.379821 0.747510 0.845141 0.352189
C151  C     C_2   0.899744 0.789341 0.263305 0.981661
O65   O     O_2   0.916120 0.804801 0.290022 -0.568366
O66   O     O_R   0.952230 0.791956 0.239809 -0.720964
H23   H     H_    0.002012 0.807379 0.247750 0.376053
C152  C     C_2   0.100284 0.210729 0.735958 0.983002
O67   O     O_2   0.084751 0.194549 0.709226 -0.566284
O68   O     O_R   0.046928 0.209195 0.759112 -0.721682
H24   H     H_    0.997318 0.193952 0.750917 0.375879
C153  C     C_2   0.212098 0.099107 0.735065 0.965952
O69   O     O_2   0.248532 0.065450 0.716089 -0.618898
O70   O     O_R   0.152320 0.065154 0.749267 -0.751347
H25   H     H_    0.144961 0.012901 0.741971 0.378648
C154  C     C_2   0.787536 0.900012 0.265284 0.970560
O71   O     O_2   0.752362 0.931688 0.285247 -0.572058
O72   O     O_R   0.845760 0.935614 0.250649 -0.752094
H26   H     H_    0.853117 0.987428 0.258487 0.376781
C155  C     C_2   0.248685 0.638274 0.798168 0.968944
O73   O     O_2   0.304092 0.602383 0.802534 -0.570917
O74   O     O_R   0.186048 0.623799 0.815653 -0.770292
H27   H     H_    0.193157 0.582045 0.830933 0.350771
C156  C     C_2   0.750179 0.363435 0.202356 0.975599
O75   O     O_2   0.693876 0.397794 0.197850 -0.571299
O76   O     O_R   0.812940 0.380430 0.185360 -0.769364
H28   H     H_    0.805108 0.422518 0.170311 0.351556
C157  C     C_2   0.618943 0.731012 0.787282 0.988193
O77   O     O_2   0.582633 0.674968 0.785198 -0.541554
O78   O     O_R   0.597870 0.786380 0.807755 -0.788338
H29   H     H_    0.552863 0.772961 0.820190 0.367214
C158  C     C_2   0.380514 0.268024 0.212577 0.988562
O79   O     O_2   0.417342 0.323718 0.214712 -0.543680
O80   O     O_R   0.401115 0.212573 0.192059 -0.786612
H30   H     H_    0.446388 0.225569 0.179717 0.367869
C159  C     C_2   0.750499 0.362148 0.797944 0.981294
O81   O     O_2   0.694413 0.396848 0.802336 -0.559655
O82   O     O_R   0.813270 0.378411 0.815088 -0.777277
H31   H     H_    0.805634 0.420321 0.830132 0.338229
C160  C     C_2   0.252112 0.635252 0.203240 0.982944
O83   O     O_2   0.308793 0.601193 0.199345 -0.558044
O84   O     O_R   0.189857 0.616989 0.186114 -0.781370
H32   H     H_    0.198386 0.574363 0.171525 0.337972
C161  C     C_2   0.855718 0.257406 0.699733 0.958002
O85   O     O_2   0.920662 0.266534 0.705064 -0.632018
O86   O     O_R   0.831353 0.251928 0.669041 -0.759242
H33   H     H_    0.872558 0.256185 0.653446 0.359813
C162  C     C_2   0.141682 0.745278 0.299358 0.952755
O87   O     O_2   0.077102 0.734749 0.293707 -0.630870
O88   O     O_R   0.164762 0.753309 0.330126 -0.764108
H34   H     H_    0.123019 0.749527 0.345482 0.360350
C163  C     C_2   0.771086 0.885334 0.715268 0.967087
O89   O     O_2   0.829275 0.917905 0.717299 -0.547272
O90   O     O_R   0.714993 0.914341 0.696981 -0.810538
H35   H     H_    0.729324 0.961996 0.686499 0.347945
C164  C     C_2   0.231894 0.118958 0.288022 0.948184
O91   O     O_2   0.243581 0.057860 0.277595 -0.602078
O92   O     O_R   0.210914 0.126986 0.319031 -0.761822
H36   H     H_    0.207559 0.078363 0.330386 0.364205
C165  C     C_2   0.147447 0.740583 0.698388 0.957769
O93   O     O_2   0.082678 0.728041 0.702593 -0.596205
O94   O     O_R   0.174055 0.748266 0.668127 -0.769646
H37   H     H_    0.134434 0.742540 0.651856 0.353131
C166  C     C_2   0.859814 0.252020 0.298679 0.939966
O95   O     O_2   0.894435 0.195982 0.303702 -0.576088
O96   O     O_R   0.874029 0.315145 0.315973 -0.771860
H38   H     H_    0.914031 0.307683 0.331946 0.334567
C167  C     C_2   0.399759 0.289360 0.763890 0.982374
O97   O     O_2   0.415333 0.305867 0.790581 -0.569443
O98   O     O_R   0.453085 0.290626 0.740721 -0.720125
H39   H     H_    0.502718 0.305913 0.748879 0.375258
C168  C     C_2   0.599857 0.710162 0.236522 0.983509
O99   O     O_2   0.583657 0.693498 0.209917 -0.568735
O100  O     O_R   0.547154 0.708805 0.259947 -0.720910
H40   H     H_    0.497410 0.693096 0.252066 0.375655
C169  C     C_2   0.711773 0.598615 0.235459 0.967696
O101  O     O_2   0.747933 0.564726 0.216464 -0.617937
O102  O     O_R   0.652266 0.564811 0.249928 -0.750003
H41   H     H_    0.644833 0.512446 0.242794 0.380023
C170  C     C_2   0.287924 0.400922 0.764806 0.967356
O103  O     O_2   0.251611 0.434583 0.783822 -0.616797
O104  O     O_R   0.347575 0.434883 0.750510 -0.751111
H42   H     H_    0.354966 0.487152 0.757776 0.379758
C171  C     C_2   0.739651 0.148103 0.301851 0.952898
O105  O     O_2   0.728387 0.082886 0.297635 -0.595430
O106  O     O_R   0.746213 0.174950 0.332107 -0.762741
H43   H     H_    0.740730 0.135111 0.348394 0.358648
C172  C     C_2   0.250782 0.861800 0.701682 0.970316
O107  O     O_2   0.193982 0.894837 0.696551 -0.574336
O108  O     O_R   0.313939 0.879766 0.685133 -0.772146
H44   H     H_    0.305918 0.921354 0.669855 0.351379
C173  C     C_2   0.115374 0.227929 0.284782 0.974051
O109  O     O_2   0.082893 0.169595 0.282527 -0.546442
O110  O     O_R   0.086511 0.283799 0.303165 -0.808039
H45   H     H_    0.039041 0.269158 0.313528 0.347334
C174  C     C_2   0.879711 0.769031 0.712326 0.956040
O111  O     O_2   0.940514 0.760794 0.723467 -0.553493
O112  O     O_R   0.871906 0.787597 0.680980 -0.764052
H46   H     H_    0.920552 0.792112 0.669939 0.367219
C175  C     C_2   0.248273 0.863994 0.296987 0.981164
O113  O     O_2   0.191431 0.897527 0.301255 -0.557966
O114  O     O_R   0.310782 0.882422 0.313913 -0.781259
H47   H     H_    0.302279 0.924716 0.328677 0.339066
C176  C     C_2   0.746902 0.141007 0.701101 0.937012
O115  O     O_2   0.801906 0.104914 0.696295 -0.571348
O116  O     O_R   0.683959 0.128660 0.683492 -0.772144
H48   H     H_    0.690622 0.088560 0.667516 0.334361

loop_
_geom_bond_atom_site_label_1
_geom_bond_atom_site_label_2
_ccdc_geom_bond_type
C60   O24   A    
C4    C36   A    
C169  O101  D    
O1    Zn5   S    
C154  O72   S    
C78   C115  A    
N4    N7    A    
C157  O78   S    
C164  O91   D    
C163  O89   D    
O22   Zn11  S    
C11   C139  S    
O18   Zn3   S    
C91   C163  S    
C84   C156  S    
O58   H19   S    
O1    Zn12  S    
C71   C113  S    
C26   C126  A    
C36   C53   S    
C65   O39   A    
O60   H20   S    
C89   C106  A    
C3    C19   A    
C63   C105  S    
C15   C143  S    
C93   C110  A    
C101  C173  S    
C2    C34   A    
C165  O94   S    
C137  N25   T    
C64   O50   A    
C100  C115  A    
C20   H4    S    
C91   C108  A    
C21   H5    S    
C168  O100  S    
C22   C122  A    
C70   O44   A    
O84   H32   S    
C140  N28   T    
C99   C116  A    
C67   O37   A    
C155  O73   D    
O25   Zn16  S    
C69   C119  S    
O5    Zn16  S    
C54   O18   A    
O92   H36   S    
C12   C40   A    
C73   C88   A    
C129  N17   T    
O30   Zn12  S    
C14   C38   A    
C170  O104  S    
O12   Zn13  S    
C75   C86   A    
O74   H27   S    
C11   C27   A    
C7    C135  S    
C69   O33   A    
C93   C100  A    
C15   C39   A    
C5    C133  S    
C18   C122  A    
C65   O29   A    
C147  O58   S    
C175  O113  D    
C18   H2    S    
C42   N13   A    
C93   C165  S    
O114  H47   S    
C99   C171  S    
C90   C105  A    
C53   O17   A    
C72   O36   A    
O110  H45   S    
C64   C106  S    
O27   Zn10  S    
C94   C109  A    
C10   C38   A    
C82   C111  A    
C54   O14   A    
C151  O66   S    
C171  O105  D    
C3    C131  S    
C59   C109  S    
C76   C148  S    
C31   H15   S    
C32   H16   S    
O90   H35   S    
C4    C20   A    
C5    C21   A    
C47   N8    A    
C160  O83   D    
C48   N7    A    
O102  H41   S    
C44   N15   A    
C62   O52   A    
O16   Zn1   S    
C76   C85   A    
C66   O40   A    
O108  H44   S    
C176  O116  S    
O3    Zn7   S    
C167  O97   D    
C29   C125  A    
C89   C161  S    
C51   O7    A    
O98   H39   S    
C31   C127  A    
O8    Zn9   S    
C90   C162  S    
C52   O12   A    
C158  O79   D    
C53   O13   A    
C78   C150  S    
C19   C123  A    
C139  N27   T    
C12   C140  S    
C56   O16   A    
C101  C118  A    
C8    C36   A    
C141  N29   T    
C158  O80   S    
C40   C49   S    
C135  N23   T    
N9    N14   A    
C161  O86   S    
C68   C118  S    
O26   Zn15  S    
C70   C120  S    
O6    Zn15  S    
C156  O76   S    
C5    C33   A    
O11   Zn14  S    
O4    Zn13  S    
C58   O48   A    
C74   C87   A    
C131  N19   T    
O31   Zn9   S    
N1    N6    A    
C62   O26   A    
C104  C119  A    
O28   Zn9   S    
C24   H8    S    
C149  O61   D    
C65   C115  S    
O20   Zn5   S    
C27   C127  A    
O4    Zn9   S    
C73   C145  S    
C83   C155  S    
C96   C111  A    
O35   Zn13  S    
O49   Zn7   S    
O15   Zn2   S    
O33   Zn15  S    
C37   C52   S    
C23   C123  A    
C38   C51   S    
C77   C84   A    
C27   H11   S    
O82   H31   S    
C25   H9    S    
O7    Zn10  S    
C153  O69   D    
C71   O35   A    
C81   C112  A    
C3    C35   A    
C132  N20   T    
C29   H13   S    
C61   O25   A    
C152  O67   D    
C83   C110  A    
O2    Zn11  S    
C59   O23   A    
C146  O56   S    
C92   C164  S    
C64   O28   A    
O37   Zn4   S    
C63   O27   A    
C86   C158  S    
C72   O42   A    
O2    Zn2   S    
C55   O19   A    
C79   C82   A    
O56   H18   S    
C15   C31   A    
C150  O64   S    
C6    C134  S    
C1    C17   A    
C84   C109  A    
C32   C128  A    
O32   Zn10  S    
C89   C104  A    
C88   C105  A    
C60   O46   A    
C7    C23   A    
C66   O30   A    
C148  O60   S    
C20   C124  A    
O80   H30   S    
C46   N5    A    
C80   C113  A    
O64   H22   S    
C10   C138  S    
C97   C114  A    
C142  N30   T    
C172  O108  S    
C61   C111  S    
C79   C151  S    
O2    Zn6   S    
C44   C127  S    
C145  O53   D    
C134  N22   T    
O94   H37   S    
C96   C168  S    
C48   C123  S    
C168  O99   D    
C9    C25   A    
O112  H46   S    
O4    Zn4   S    
O39   Zn6   S    
C66   C116  S    
C12   C28   A    
C13   C29   A    
C172  O107  D    
C95   C112  A    
C173  O110  S    
C56   O20   A    
C74   C146  S    
O9    Zn12  S    
C136  N24   T    
C6    C22   A    
C48   N3    A    
C72   C114  S    
C45   N6    A    
C154  O71   D    
O34   Zn16  S    
C159  O82   S    
O13   Zn8   S    
C25   C125  A    
O3    Zn3   S    
C78   C83   A    
C94   C166  S    
C86   C107  A    
C50   O6    A    
O104  H42   S    
C166  O96   S    
C85   C108  A    
C9    C137  S    
O1    Zn16  S    
C59   O45   A    
C33   C56   S    
C163  O90   S    
C34   C55   S    
C169  O102  S    
C73   C120  A    
C147  O57   D    
C35   C54   S    
O40   Zn5   S    
C75   C118  A    
O24   Zn13  S    
C63   O49   A    
O38   Zn3   S    
C164  O92   S    
C155  O74   S    
O51   Zn5   S    
C82   C154  S    
O76   H28   S    
N10   N13   A    
O70   H25   S    
C98   C113  A    
C85   C157  S    
C8    C136  S    
C157  O77   D    
C97   C169  S    
C6    C34   A    
O72   H26   S    
C49   O5    A    
C151  O65   D    
N2    N5    A    
O66   H23   S    
C87   C159  S    
C50   O10   A    
C67   C117  S    
C92   C101  A    
C17   C121  A    
C16   C32   A    
O96   H38   S    
C176  O115  D    
O3    Zn10  S    
O48   Zn2   S    
C41   C126  S    
O41   Zn8   S    
C26   H10   S    
C43   C128  S    
C45   C122  S    
C102  C174  S    
C76   C117  A    
C30   H14   S    
C23   H7    S    
C58   O22   A    
O62   H21   S    
O86   H33   S    
C49   O9    A    
C47   C124  S    
C95   C167  S    
C103  C120  A    
C58   C108  S    
C161  O85   D    
C90   C103  A    
C60   C110  S    
O10   Zn11  S    
C62   C112  S    
O45   Zn3   S    
C156  O75   D    
C175  O114  S    
O14   Zn7   S    
C28   C128  A    
O78   H29   S    
C30   C126  A    
C2    C18   A    
C162  O87   D    
O43   Zn2   S    
O106  H43   S    
C28   H12   S    
C24   C124  A    
O88   H34   S    
C57   O21   A    
O2    Zn15  S    
C95   C98   A    
C1    C33   A    
C165  O93   D    
C74   C119  A    
C22   H6    S    
C143  N31   T    
C104  C176  S    
C171  O106  S    
C67   O31   A    
C80   C152  S    
C46   N1    A    
C68   O32   A    
O47   Zn1   S    
O50   Zn8   S    
C68   O38   A    
C61   O51   A    
C77   C149  S    
C81   C153  S    
C42   C125  S    
C8    C24   A    
C14   C142  S    
O100  H40   S    
C160  O84   S    
C46   C121  S    
C77   C116  A    
C146  O55   D    
C13   C37   A    
C70   O34   A    
C10   C26   A    
O68   H24   S    
C167  O98   S    
O21   Zn12  S    
O17   Zn4   S    
C14   C30   A    
O23   Zn14  S    
C19   H3    S    
C103  C175  S    
O36   Zn14  S    
C174  O112  S    
C100  C172  S    
C17   H1    S    
C45   N2    A    
C42   N9    A    
C43   N16   A    
C145  O54   S    
C16   C144  S    
C75   C147  S    
C150  O63   D    
O44   Zn1   S    
O42   Zn7   S    
C43   N12   A    
C92   C107  A    
C13   C141  S    
C96   C97   A    
C9    C37   A    
C148  O59   D    
C162  O88   S    
C11   C39   A    
C55   O15   A    
C174  O111  D    
C2    C130  S    
C88   C160  S    
C102  C117  A    
C57   C107  S    
C16   C40   A    
C69   O43   A    
C149  O62   S    
O19   Zn6   S    
C4    C132  S    
C91   C102  A    
C144  N32   T    
O3    Zn14  S    
C41   N10   A    
O46   Zn4   S    
C71   O41   A    
O1    Zn1   S    
C47   N4    A    
C41   N14   A    
N11   N16   A    
C44   N11   A    
C7    C35   A    
N12   N15   A    
C80   C81   A    
C138  N26   T    
O29   Zn11  S    
C170  O103  D    
C57   O47   A    
C51   O11   A    
N3    N8    A    
C153  O70   S    
C173  O109  D    
C52   O8    A    
O4    Zn8   S    
C87   C106  A    
O52   Zn6   S    
C94   C99   A    
O54   H17   S    
C152  O68   S    
C21   C121  A    
C159  O81   D    
C1    C129  S    
C39   C50   S    
C79   C114  A    
C130  N18   T    
C166  O95   D    
C133  N21   T    
O116  H48   S    
C98   C170  S    
