data_mof_unit_62098.cif
_audit_creation_date              2012-12-10T19:55:59-0500
_audit_creation_method            fapswitch 2.2
_symmetry_space_group_name_H-M    P1
_symmetry_Int_Tables_number       1
_space_group_crystal_system       triclinic
_cell_length_a                    18.275707
_cell_length_b                    18.275726
_cell_length_c                    35.583985
_cell_angle_alpha                 89.999879
_cell_angle_beta                  89.998665
_cell_angle_gamma                 90.0
_cell_volume                      11885.1155214

loop_
_atom_site_label
_atom_site_type_symbol
_atom_type_description
_atom_site_fract_x
_atom_site_fract_y
_atom_site_fract_z
_atom_type_partial_charge
C1    C     C_R   0.500000 0.141143 0.500000 0.937724
C2    C     C_1   0.717755 0.500000 0.499999 -0.183834
C3    C     C_3   0.144766 0.597317 0.195740 -0.314323
C4    C     C_3   0.402508 0.855337 0.804269 -0.314357
C5    C     C_3   0.855872 0.598242 0.804262 -0.314378
C6    C     C_3   0.597439 0.144762 0.804328 -0.314391
C7    C     C_3   0.144124 0.401746 0.804255 -0.314414
C8    C     C_3   0.901694 0.644088 0.695740 -0.314356
C9    C     C_3   0.355330 0.902485 0.695723 -0.314307
C10   C     C_3   0.098327 0.355933 0.695749 -0.314402
C11   C     C_3   0.644596 0.097528 0.695769 -0.314219
C12   C     C_3   0.901736 0.355906 0.304237 -0.314279
C13   C     C_1   0.500000 0.717754 0.500000 -0.183822
C14   C     C_3   0.355585 0.097824 0.304267 -0.314203
C15   C     C_3   0.098213 0.644173 0.304279 -0.314296
C16   C     C_3   0.644414 0.902113 0.304272 -0.314343
C17   C     C_1   0.282245 0.500000 0.500001 -0.183835
C18   C     C_1   0.000000 0.782245 0.000000 -0.183806
C19   C     C_1   0.217754 1.000000 0.999999 -0.183797
C20   C     C_1   1.000000 0.217754 1.000000 -0.183809
C21   C     C_1   0.782245 0.000000 0.000001 -0.183798
C22   C     C_1   0.500000 0.217524 0.500000 -0.189783
C23   C     C_1   0.782476 0.500000 0.499999 -0.189795
C24   C     C_1   0.500000 0.782476 0.500000 -0.189785
C25   C     C_R   0.858857 0.500000 0.500000 0.937694
C26   C     C_1   0.217524 0.500000 0.500001 -0.189798
C27   C     C_1   0.000000 0.717524 0.000000 -0.189786
C28   C     C_1   0.282476 1.000000 0.999999 -0.189777
C29   C     C_1   1.000000 0.282476 1.000000 -0.189790
C30   C     C_1   0.717524 0.000000 0.000001 -0.189778
C31   C     C_R   0.500001 0.999999 0.426637 0.930819
C32   C     C_R   0.999999 0.500000 0.426637 0.930794
C33   C     C_R   0.499999 0.000000 0.573364 0.930837
C34   C     C_R   0.000000 0.500000 0.573363 0.930782
C35   C     C_R   0.000001 0.500000 0.926637 0.930795
C36   C     C_R   0.500000 0.858857 0.500000 0.937723
C37   C     C_R   0.499999 0.000000 0.926636 0.930851
C38   C     C_R   0.999999 0.500000 0.073364 0.930855
C39   C     C_R   0.500001 1.000000 0.073364 0.930865
C40   C     C_R   0.487757 0.065580 0.173626 0.502771
C41   C     C_R   0.934421 0.487642 0.173622 0.502752
C42   C     C_R   0.512294 0.934400 0.173620 0.502720
C43   C     C_R   0.065564 0.512358 0.173622 0.502720
C44   C     C_R   0.487559 0.934442 0.826381 0.502731
C45   C     C_R   0.934514 0.512770 0.826381 0.502749
C46   C     C_R   0.512415 0.065555 0.826378 0.502787
C47   C     C_R   0.141143 0.500000 0.500000 0.937694
C48   C     C_R   0.065496 0.487225 0.826381 0.502745
C49   C     C_R   0.987204 0.565484 0.673619 0.502752
C50   C     C_R   0.434441 0.987551 0.673621 0.502782
C51   C     C_R   0.012810 0.434514 0.673618 0.502743
C52   C     C_R   0.565550 0.012454 0.673620 0.502739
C53   C     C_R   0.987219 0.434506 0.326383 0.502744
C54   C     C_R   0.434487 0.012579 0.326379 0.502771
C55   C     C_R   0.012753 0.565491 0.326381 0.502788
C56   C     C_R   0.565538 0.987382 0.326383 0.502767
C57   C     C_R   0.489387 0.065538 0.134378 -0.289049
C58   C     C_R   1.000000 0.641143 0.000000 0.937730
C59   C     C_R   0.934468 0.489282 0.134374 -0.289014
C60   C     C_R   0.510644 0.934452 0.134372 -0.288934
C61   C     C_R   0.065522 0.510718 0.134375 -0.288973
C62   C     C_R   0.489202 0.934484 0.865628 -0.288983
C63   C     C_R   0.934545 0.511125 0.865629 -0.288965
C64   C     C_R   0.510780 0.065514 0.865626 -0.289078
C65   C     C_R   0.065462 0.488873 0.865629 -0.288949
C66   C     C_R   0.988848 0.565453 0.634371 -0.288959
C67   C     C_R   0.434484 0.989192 0.634374 -0.288990
C68   C     C_R   0.011161 0.434546 0.634371 -0.288931
C69   C     C_R   0.358857 0.000000 1.000000 0.937756
C70   C     C_R   0.565509 0.010812 0.634373 -0.288930
C71   C     C_R   0.988871 0.434540 0.365631 -0.288923
C72   C     C_R   0.434519 0.010943 0.365627 -0.289002
C73   C     C_R   0.011111 0.565459 0.365629 -0.288999
C74   C     C_R   0.565495 0.989035 0.365630 -0.288964
C75   C     C_R   0.500009 0.999997 0.114570 -0.186710
C76   C     C_R   0.999996 0.500000 0.114569 -0.186700
C77   C     C_R   0.499995 0.999999 0.885432 -0.186682
C78   C     C_R   0.000003 0.499999 0.885433 -0.186710
C79   C     C_R   0.000002 0.500000 0.614567 -0.186710
C80   C     C_R   1.000000 0.358857 1.000000 0.937729
C81   C     C_R   0.499997 0.000001 0.614568 -0.186736
C82   C     C_R   0.999995 0.500000 0.385434 -0.186713
C83   C     C_R   0.500005 0.999993 0.385433 -0.186713
C84   C     C_R   0.358630 0.500000 0.500000 0.931866
C85   C     C_R   0.500000 0.358630 0.500000 0.931866
C86   C     C_R   0.641370 0.500000 0.499999 0.931866
C87   C     C_R   0.500000 0.641370 0.500000 0.931864
C88   C     C_R   0.858630 1.000000 0.000000 0.931845
C89   C     C_R   0.000000 0.858630 0.000000 0.931846
C90   C     C_R   0.141370 1.000000 1.000000 0.931845
C91   C     C_R   0.641143 1.000000 0.000000 0.937755
C92   C     C_R   1.000000 0.141370 1.000000 0.931844
C93   C     C_R   0.500028 0.999987 0.193124 -0.117393
C94   C     C_R   0.999992 0.500000 0.193124 -0.117376
C95   C     C_R   0.499987 0.999998 0.806878 -0.117369
C96   C     C_R   0.000006 0.499997 0.806879 -0.117450
C97   C     C_R   0.000009 0.499999 0.693121 -0.117463
C98   C     C_R   0.499995 0.000002 0.693122 -0.117458
C99   C     C_R   0.999985 0.499998 0.306880 -0.117484
C100  C     C_R   0.500015 0.999977 0.306879 -0.117456
C101  C     C_1   0.500026 0.999980 0.233206 0.099597
C102  C     C_1   0.500000 0.282245 0.500000 -0.183820
C103  C     C_1   0.999989 0.499997 0.233207 0.099566
C104  C     C_1   0.499991 0.999997 0.766795 0.099675
C105  C     C_1   0.000007 0.499997 0.766795 0.099419
C106  C     C_1   0.000008 0.499998 0.733205 0.099411
C107  C     C_1   0.499993 0.999998 0.733205 0.099542
C108  C     C_1   0.999987 0.499996 0.266797 0.099488
C109  C     C_1   0.500022 0.999977 0.266796 0.099570
C110  C     C_3   0.402938 0.144991 0.195702 -0.314244
C111  C     C_3   0.855159 0.402696 0.195702 -0.314382
C112  C     C_3   0.597156 0.855102 0.195748 -0.314333
H1    H     H_    0.481498 0.116698 0.119546 0.189068
H2    H     H_    0.383350 0.981156 0.619539 0.189086
H3    H     H_    0.019481 0.383460 0.619534 0.189067
H4    H     H_    0.616643 0.018851 0.619539 0.189114
H5    H     H_    0.980580 0.383448 0.380467 0.189087
H6    H     H_    0.383403 0.019098 0.380460 0.189075
H7    H     H_    0.019400 0.616552 0.380464 0.189054
H8    H     H_    0.616608 0.980882 0.380467 0.189089
H9    H     H_    0.373821 0.100261 0.210817 0.167776
H10   H     H_    0.378135 0.153890 0.167501 0.166676
H11   H     H_    0.395235 0.195925 0.212189 0.196163
H12   H     H_    0.883323 0.481321 0.119540 0.189071
H13   H     H_    0.899930 0.373672 0.210832 0.167921
H14   H     H_    0.846331 0.377861 0.167503 0.166716
H15   H     H_    0.804226 0.394912 0.212180 0.196151
H16   H     H_    0.626133 0.899831 0.210933 0.167847
H17   H     H_    0.622088 0.846344 0.167565 0.166684
H18   H     H_    0.604881 0.804125 0.212197 0.196180
H19   H     H_    0.099992 0.626268 0.210905 0.167979
H20   H     H_    0.153536 0.622225 0.167553 0.166690
H21   H     H_    0.195716 0.605105 0.212203 0.196155
H22   H     H_    0.373601 0.900149 0.789111 0.167812
H23   H     H_    0.518535 0.883296 0.119537 0.189117
H24   H     H_    0.377602 0.846587 0.832458 0.166679
H25   H     H_    0.394660 0.804403 0.787801 0.196208
H26   H     H_    0.900837 0.626899 0.789098 0.168190
H27   H     H_    0.847265 0.623207 0.832448 0.166686
H28   H     H_    0.804977 0.606363 0.787797 0.196125
H29   H     H_    0.626479 0.099951 0.789236 0.167729
H30   H     H_    0.622215 0.153631 0.832537 0.166702
H31   H     H_    0.605278 0.195659 0.787831 0.196202
H32   H     H_    0.099158 0.373106 0.789084 0.168191
H33   H     H_    0.152714 0.376767 0.832439 0.166695
H34   H     H_    0.116669 0.518684 0.119541 0.189093
H35   H     H_    0.195023 0.393622 0.787793 0.196129
H36   H     H_    0.873055 0.599107 0.710900 0.168178
H37   H     H_    0.876728 0.652691 0.667554 0.166687
H38   H     H_    0.893549 0.694975 0.712208 0.196125
H39   H     H_    0.400146 0.873563 0.710870 0.167787
H40   H     H_    0.346565 0.877598 0.667531 0.166669
H41   H     H_    0.304401 0.894626 0.712195 0.196192
H42   H     H_    0.126936 0.400910 0.710926 0.168194
H43   H     H_    0.123322 0.347366 0.667565 0.166691
H44   H     H_    0.106475 0.305034 0.712206 0.196135
H45   H     H_    0.481180 0.883351 0.880463 0.189094
H46   H     H_    0.599779 0.126362 0.710960 0.167854
H47   H     H_    0.653288 0.122507 0.667593 0.166633
H48   H     H_    0.695546 0.105386 0.712224 0.196197
H49   H     H_    0.873138 0.400869 0.289044 0.167959
H50   H     H_    0.876714 0.347353 0.332415 0.166651
H51   H     H_    0.893612 0.304994 0.287785 0.196216
H52   H     H_    0.400472 0.126633 0.289118 0.167777
H53   H     H_    0.346877 0.122743 0.332457 0.166638
H54   H     H_    0.304678 0.105799 0.287794 0.196228
H55   H     H_    0.126915 0.599209 0.289137 0.167894
H56   H     H_    0.883454 0.519419 0.880464 0.189057
H57   H     H_    0.123137 0.652822 0.332472 0.166669
H58   H     H_    0.106327 0.695056 0.287804 0.196205
H59   H     H_    0.599529 0.873333 0.289107 0.167770
H60   H     H_    0.653080 0.877177 0.332460 0.166676
H61   H     H_    0.695335 0.894124 0.287810 0.196237
H62   H     H_    0.518799 0.116650 0.880460 0.189051
H63   H     H_    0.116551 0.480577 0.880464 0.189062
H64   H     H_    0.980528 0.616539 0.619536 0.189057
O1    O     O_R   0.560470 0.107230 0.500140 -0.618541
O2    O     O_R   0.392770 0.060470 0.000140 -0.618545
O3    O     O_R   0.939530 0.392770 0.000140 -0.618543
O4    O     O_R   0.607230 0.939530 0.000140 -0.618540
O5    O     O_R   0.060470 0.392770 0.999860 -0.618565
O6    O     O_R   0.392770 0.939530 0.999860 -0.618555
O7    O     O_R   0.939530 0.607230 0.999860 -0.618565
O8    O     O_R   0.607230 0.060470 0.999860 -0.618562
O9    O     O_R   0.560470 0.999900 0.444700 -0.624849
O10   O     O_R   0.000100 0.560470 0.444700 -0.624828
O11   O     O_R   0.439530 0.000100 0.444700 -0.624845
O12   O     O_R   0.892770 0.560470 0.500140 -0.618552
O13   O     O_R   0.999900 0.439530 0.444700 -0.624828
O14   O     O_R   0.560470 0.000100 0.555300 -0.624859
O15   O     O_R   0.000100 0.439530 0.555300 -0.624824
O16   O     O_R   0.439530 0.999900 0.555300 -0.624862
O17   O     O_R   0.999900 0.560470 0.555300 -0.624825
O18   O     O_R   0.060470 0.499900 0.944700 -0.624830
O19   O     O_R   0.500100 0.060470 0.944700 -0.624872
O20   O     O_R   0.939530 0.500100 0.944700 -0.624831
O21   O     O_R   0.499900 0.939530 0.944700 -0.624870
O22   O     O_R   0.060470 0.500100 0.055300 -0.624878
O23   O     O_R   0.439530 0.892770 0.500140 -0.618545
O24   O     O_R   0.500100 0.939530 0.055300 -0.624887
O25   O     O_R   0.939530 0.499900 0.055300 -0.624880
O26   O     O_R   0.499900 0.060470 0.055300 -0.624885
O27   O     O_R   0.392480 0.499860 0.468850 -0.620464
O28   O     O_R   0.500140 0.392480 0.468850 -0.620464
O29   O     O_R   0.607520 0.500140 0.468850 -0.620467
O30   O     O_R   0.499860 0.607520 0.468850 -0.620464
O31   O     O_R   0.392480 0.500140 0.531150 -0.620454
O32   O     O_R   0.500140 0.607520 0.531150 -0.620446
O33   O     O_R   0.607520 0.499860 0.531150 -0.620451
O34   O     O_R   0.107230 0.439530 0.500140 -0.618550
O35   O     O_R   0.499860 0.392480 0.531150 -0.620446
O36   O     O_R   0.892480 0.999860 0.968850 -0.620457
O37   O     O_R   0.000140 0.892480 0.968850 -0.620464
O38   O     O_R   0.107520 0.000140 0.968850 -0.620459
O39   O     O_R   0.999860 0.107520 0.968850 -0.620466
O40   O     O_R   0.892480 0.000140 0.031150 -0.620430
O41   O     O_R   0.000140 0.107520 0.031150 -0.620428
O42   O     O_R   0.107520 0.999860 0.031150 -0.620427
O43   O     O_R   0.999860 0.892480 0.031150 -0.620428
O44   O     O_3   0.478519 0.130580 0.192920 -0.594255
O45   O     O_R   0.560470 0.892770 0.499860 -0.618552
O46   O     O_3   0.869433 0.478302 0.192912 -0.594300
O47   O     O_3   0.521560 0.869394 0.192903 -0.594231
O48   O     O_3   0.130552 0.521705 0.192911 -0.594285
O49   O     O_3   0.478137 0.869466 0.807092 -0.594200
O50   O     O_3   0.869590 0.522539 0.807093 -0.594324
O51   O     O_3   0.521823 0.130527 0.807084 -0.594229
O52   O     O_3   0.130422 0.477451 0.807093 -0.594321
O53   O     O_3   0.977404 0.630404 0.692908 -0.594316
O54   O     O_3   0.369465 0.978114 0.692911 -0.594199
O55   O     O_3   0.022615 0.369593 0.692905 -0.594310
O56   O     O_R   0.892770 0.439530 0.499860 -0.618549
O57   O     O_3   0.630527 0.021893 0.692906 -0.594176
O58   O     O_3   0.977444 0.369578 0.307098 -0.594203
O59   O     O_3   0.369537 0.022163 0.307087 -0.594173
O60   O     O_3   0.022514 0.630416 0.307090 -0.594225
O61   O     O_3   0.630493 0.977781 0.307097 -0.594175
O62   O     O_R   0.439530 0.107230 0.499860 -0.618553
O63   O     O_R   0.107230 0.560470 0.499860 -0.618553
O64   O     O_R   0.060470 0.607230 0.000140 -0.618539
Zn1   Zn    Zn3+2 0.580800 1.000000 0.500000 0.968136
Zn2   Zn    Zn3+2 0.500000 0.500000 0.541650 0.974525
Zn3   Zn    Zn3+2 1.000000 1.000000 0.958350 0.974528
Zn4   Zn    Zn3+2 0.000000 1.000000 0.041650 0.974655
Zn5   Zn    Zn3+2 1.000000 0.580800 0.500000 0.968151
Zn6   Zn    Zn3+2 0.419200 1.000000 0.500000 0.968125
Zn7   Zn    Zn3+2 1.000000 0.419200 0.500000 0.968164
Zn8   Zn    Zn3+2 0.080800 0.500000 0.000000 0.968092
Zn9   Zn    Zn3+2 0.500000 0.080800 0.000000 0.968050
Zn10  Zn    Zn3+2 0.919200 0.500000 0.000000 0.968084
Zn11  Zn    Zn3+2 0.500000 0.919200 0.000000 0.968074
Zn12  Zn    Zn3+2 0.500000 0.500000 0.458350 0.974461

loop_
_geom_bond_atom_site_label_1
_geom_bond_atom_site_label_2
_ccdc_geom_bond_type
C16   H61   S    
C11   O57   S    
O1    Zn1   S    
C96   C105  S    
C25   O56   A    
O40   Zn4   S    
C3    O48   S    
C73   H7    S    
O64   Zn8   S    
O13   Zn7   S    
C42   C93   A    
O15   Zn7   S    
C64   C77   A    
C62   C77   A    
C54   O59   S    
C28   C69   S    
C84   O31   A    
C36   O23   A    
C40   C93   A    
C39   O24   A    
C66   H64   S    
C10   H42   S    
O5    Zn8   S    
O16   Zn6   S    
C5    H26   S    
C9    H40   S    
C38   C76   S    
C5    O50   S    
C7    H33   S    
C12   O58   S    
C99   C108  S    
C20   C92   S    
C43   C61   A    
C24   C36   S    
C105  C106  T    
C33   O16   A    
C3    H19   S    
C17   C26   T    
C37   O19   A    
C34   C79   S    
C4    H22   S    
C34   O15   A    
C67   H2    S    
O32   Zn2   S    
O36   Zn3   S    
C6    O51   S    
O24   Zn11  S    
C48   O52   S    
O4    Zn11  S    
O2    Zn9   S    
C7    O52   S    
O21   Zn11  S    
C101  C109  T    
C48   C96   A    
C40   O44   S    
C43   C94   A    
C31   C83   S    
O43   Zn4   S    
C15   H57   S    
C92   O39   A    
C70   C81   A    
C7    H32   S    
C90   O42   A    
C85   O28   A    
C12   H49   S    
C1    O1    A    
C36   O45   A    
C110  H11   S    
C46   C95   A    
O22   Zn8   S    
C44   C62   A    
C38   O25   A    
C15   O60   S    
C52   O57   S    
C43   O48   S    
C46   O51   S    
C86   O33   A    
C2    C86   S    
C103  C108  T    
C65   C78   A    
C39   C75   S    
C48   C65   A    
C6    H30   S    
C110  O44   S    
C44   O49   S    
C74   C83   A    
C31   O9    A    
C41   O46   S    
O23   Zn6   S    
C69   O6    A    
C13   C87   S    
C71   C82   A    
C68   C79   A    
C4    H25   S    
C21   C88   S    
C9    H41   S    
C100  C109  S    
C55   O60   S    
O18   Zn8   S    
C91   O8    A    
C65   H63   S    
C14   H52   S    
O35   Zn2   S    
C54   C100  A    
C8    H36   S    
O20   Zn10  S    
O34   Zn7   S    
C58   O64   A    
C85   O35   A    
C86   O29   A    
C6    H29   S    
C14   O59   S    
C11   H48   S    
C5    H27   S    
C7    H35   S    
C20   C29   T    
C51   C97   A    
C61   C76   A    
C33   O14   A    
C50   C98   A    
C56   C74   A    
C49   C66   A    
C71   H5    S    
C51   O55   S    
C3    H20   S    
C72   C83   A    
C80   O3    A    
C56   O61   S    
O37   Zn3   S    
C44   C95   A    
C41   C59   A    
O7    Zn10  S    
O31   Zn2   S    
C10   H44   S    
O3    Zn10  S    
C93   C101  S    
O45   Zn1   S    
C70   H4    S    
C80   O5    A    
C37   C77   S    
C45   C63   A    
C51   C68   A    
C53   C99   A    
C98   C107  S    
O27   Zn12  S    
C13   C24   T    
C46   C64   A    
C9    O54   S    
C3    H21   S    
C111  O46   S    
C55   C73   A    
O33   Zn2   S    
C8    H38   S    
C61   H34   S    
C87   O30   A    
C111  H13   S    
C66   C79   A    
C25   O12   A    
C69   O2    A    
C89   O43   A    
C8    O53   S    
C16   H60   S    
C41   C94   A    
C91   O4    A    
O62   Zn6   S    
C111  H14   S    
C38   O22   A    
C11   H47   S    
C62   H45   S    
O12   Zn5   S    
C4    O49   S    
C14   H53   S    
C19   C28   T    
C53   O58   S    
C60   H23   S    
C26   C47   S    
O6    Zn11  S    
C47   O63   A    
C97   C106  S    
C35   O20   A    
C34   O17   A    
C63   H56   S    
C16   O61   S    
C67   C81   A    
C37   O21   A    
C111  H15   S    
C112  H17   S    
C112  O47   S    
C39   O26   A    
C14   H54   S    
C56   C100  A    
C42   C60   A    
C42   O47   S    
C53   C71   A    
C15   H55   S    
C73   C82   A    
C90   O38   A    
O30   Zn12  S    
C95   C104  S    
C84   O27   A    
C5    H28   S    
C89   O37   A    
C50   C67   A    
C59   H12   S    
C9    H39   S    
C40   C57   A    
C88   O40   A    
C18   C89   S    
C18   C27   T    
C30   C91   S    
C27   C58   S    
C10   H43   S    
C94   C103  S    
C57   H1    S    
C1    O62   A    
O11   Zn6   S    
C32   C82   S    
C21   C30   T    
C35   C78   S    
O39   Zn3   S    
C22   C102  T    
C32   O10   A    
O63   Zn5   S    
C17   C84   S    
C112  H18   S    
O8    Zn9   S    
O56   Zn7   S    
C8    H37   S    
O41   Zn4   S    
C110  H9    S    
O29   Zn12  S    
C110  H10   S    
C12   H51   S    
C16   H59   S    
C57   C75   A    
C29   C80   S    
C33   C81   S    
O38   Zn3   S    
O19   Zn9   S    
C52   C98   A    
C10   O55   S    
C32   O13   A    
C50   O54   S    
C2    C23   T    
C45   O50   S    
C23   C25   S    
C49   O53   S    
C92   O41   A    
C87   O32   A    
C112  H16   S    
C60   C75   A    
C52   C70   A    
O10   Zn5   S    
C11   H46   S    
C68   H3    S    
C12   H50   S    
C74   H8    S    
O28   Zn12  S    
C4    H24   S    
C1    C22   S    
O26   Zn9   S    
C54   C72   A    
C15   H58   S    
O14   Zn1   S    
O25   Zn10  S    
C88   O36   A    
C47   O34   A    
C55   C99   A    
O42   Zn4   S    
C19   C90   S    
O17   Zn5   S    
C58   O7    A    
C31   O11   A    
C6    H31   S    
C45   C96   A    
C64   H62   S    
C59   C76   A    
C104  C107  T    
O9    Zn1   S    
C85   C102  S    
C72   H6    S    
C35   O18   A    
C63   C78   A    
C49   C97   A    
