data_mof_unit_53787.cif
_audit_creation_date              2012-12-10T17:02:37-0500
_audit_creation_method            fapswitch 2.2
_symmetry_space_group_name_H-M    P1
_symmetry_Int_Tables_number       1
_space_group_crystal_system       triclinic
_cell_length_a                    15.195944
_cell_length_b                    15.094694
_cell_length_c                    15.536979
_cell_angle_alpha                 96.820021
_cell_angle_beta                  82.512128
_cell_angle_gamma                 90.011199
_cell_volume                      3508.02725232

loop_
_atom_site_label
_atom_site_type_symbol
_atom_type_description
_atom_site_fract_x
_atom_site_fract_y
_atom_site_fract_z
_atom_type_partial_charge
C1    C     C_R   0.260763 0.482063 0.490264 0.525001
C2    C     C_R   0.505003 0.501401 0.123551 0.310671
C3    C     C_R   0.628438 0.399227 0.125731 -0.192499
C4    C     C_R   0.737408 0.516622 0.513190 0.616282
C5    C     C_R   0.438463 0.562192 0.833267 -0.043167
C6    C     C_R   0.163623 0.469689 0.493660 -0.041555
C7    C     C_R   0.832071 0.523820 0.518795 0.056836
C8    C     C_R   0.957316 0.604758 0.566326 -0.140497
C9    C     C_R   0.865582 0.602225 0.560193 0.199206
C10   C     C_R   0.887872 0.451021 0.483340 0.369381
C11   C     C_R   0.979392 0.455152 0.488210 -0.037253
C12   C     C_R   0.322927 0.592350 0.955775 0.351451
C13   C     C_R   0.013906 0.532593 0.530858 -0.110332
C14   C     C_R   0.104451 0.536698 0.539857 0.205056
C15   C     C_R   0.128522 0.389671 0.455020 0.213639
C16   C     C_R   0.511843 0.261854 0.512984 0.541584
C17   C     C_R   0.036554 0.382467 0.454688 0.420326
C18   C     C_R   0.522092 0.165882 0.512127 -0.028508
C19   C     C_R   0.479681 0.833209 0.481513 -0.031341
C20   C     C_R   0.388487 0.963416 0.476119 0.382370
C21   C     C_R   0.396909 0.871219 0.473585 0.213524
C22   C     C_R   0.553037 0.887055 0.493513 0.320455
C23   C     C_R   0.370221 0.541594 0.004934 0.277656
C24   C     C_R   0.543671 0.980229 0.501275 -0.072376
C25   C     C_R   0.461201 0.018133 0.489519 -0.108866
C26   C     C_R   0.451794 0.110522 0.493733 -0.168667
C27   C     C_R   0.602618 0.129258 0.526978 0.376439
C28   C     C_R   0.487537 0.737931 0.485650 0.557661
C29   C     C_R   0.613391 0.036931 0.523229 0.316615
C30   C     C_R   0.542744 0.461619 0.263782 0.540571
C31   C     C_R   0.458139 0.541360 0.737101 0.546616
C32   C     C_R   0.654790 0.404296 0.037639 -0.147255
C33   C     C_R   0.556277 0.450599 0.169202 0.046349
C34   C     C_R   0.462389 0.523933 0.976963 -0.096381
C35   C     C_R   0.356826 0.603622 0.870437 0.212512
C36   C     C_3   0.216029 0.299705 0.345981 0.056033
C37   C     C_3   0.161933 0.231959 0.294124 -0.240042
C38   C     C_3   0.212948 0.197813 0.205094 -0.497769
C39   C     C_3   0.842949 0.754958 0.616203 0.026050
C40   C     C_3   0.870276 0.767658 0.708963 -0.307243
C41   C     C_3   0.947235 0.832019 0.716116 -0.479878
C42   C     C_3   0.689929 0.006264 0.633246 0.054099
C43   C     C_3   0.783222 0.022759 0.657394 -0.233362
C44   C     C_3   0.784692 0.024120 0.755611 -0.496498
C45   C     C_R   0.496962 0.536618 0.889754 -0.135910
C46   C     C_3   0.313284 0.786965 0.384806 0.029650
C47   C     C_3   0.228775 0.732224 0.383536 -0.243608
C48   C     C_3   0.216991 0.692506 0.290872 -0.486191
C49   C     C_3   0.781791 0.527807 0.932203 0.013897
C50   C     C_3   0.852186 0.571882 0.872647 -0.257980
C51   C     C_3   0.885720 0.657270 0.920162 -0.498913
C52   C     C_3   0.468111 0.651931 0.157862 -0.003239
C53   C     C_3   0.532327 0.689213 0.220629 -0.270839
C54   C     C_3   0.543961 0.789547 0.219993 -0.481084
C55   C     C_3   0.323238 0.738067 0.830139 0.017345
C56   C     C_R   0.521232 0.491788 0.030839 -0.012931
C57   C     C_3   0.275012 0.783898 0.766723 -0.252301
C58   C     C_3   0.295170 0.883278 0.772100 -0.467373
C59   C     C_3   0.257311 0.451624 0.058633 0.058782
C60   C     C_3   0.167753 0.487881 0.107675 -0.219281
C61   C     C_3   0.153687 0.466955 0.201900 -0.449385
C62   C     C_3   0.654791 0.652972 0.813130 0.007989
C63   C     C_3   0.580310 0.719725 0.808074 -0.274286
C64   C     C_3   0.614211 0.814862 0.808920 -0.488246
C65   C     C_3   0.154133 0.577670 0.672354 0.053454
C66   C     C_3   0.074978 0.589018 0.744292 -0.316309
C67   C     C_R   0.605168 0.455928 0.991355 -0.053821
C68   C     C_3   0.103769 0.573319 0.832174 -0.435592
C69   C     C_R   0.642005 0.480675 0.910157 0.290986
C70   C     C_R   0.589576 0.527428 0.862758 0.321975
F1    F     F_    0.003180 0.302893 0.424888 -0.548947
F2    F     F_    0.852185 0.376991 0.443439 -0.545029
F3    F     F_    0.671768 0.182739 0.543994 -0.568050
F4    F     F_    0.308143 0.999408 0.468992 -0.612528
F5    F     F_    0.631644 0.848096 0.501996 -0.594829
F6    F     F_    0.240896 0.625490 0.988337 -0.668217
H1    H     H_    0.668721 0.361438 0.161561 0.134087
H2    H     H_    0.170753 0.151454 0.168028 0.162606
H3    H     H_    0.274136 0.161291 0.213455 0.162892
H4    H     H_    0.791364 0.806230 0.613368 0.186342
H5    H     H_    0.897796 0.768164 0.564556 0.142082
H6    H     H_    0.812889 0.793625 0.756880 0.137651
H7    H     H_    0.890165 0.702774 0.727944 0.166513
H8    H     H_    0.008071 0.804373 0.674175 0.166663
H9    H     H_    0.961352 0.842648 0.784902 0.148245
H10   H     H_    0.930607 0.897223 0.695877 0.160208
H11   H     H_    0.666363 0.941058 0.653026 0.152494
H12   H     H_    0.985823 0.662499 0.598918 0.174756
H13   H     H_    0.645129 0.059848 0.671472 0.119872
H14   H     H_    0.829121 0.969690 0.621454 0.168974
H15   H     H_    0.806655 0.087982 0.637447 0.232822
H16   H     H_    0.739481 0.077399 0.792376 0.165559
H17   H     H_    0.852975 0.037706 0.771321 0.160149
H18   H     H_    0.763839 0.958719 0.776740 0.137946
H19   H     H_    0.370818 0.743003 0.355639 0.101185
H20   H     H_    0.308558 0.843036 0.344840 0.160165
H21   H     H_    0.231835 0.677190 0.424749 0.203242
H22   H     H_    0.170409 0.775657 0.411287 0.197303
H23   H     H_    0.389384 0.139960 0.483680 0.212087
H24   H     H_    0.215726 0.745992 0.247716 0.166074
H25   H     H_    0.153244 0.656499 0.292085 0.151285
H26   H     H_    0.271994 0.644650 0.263966 0.192595
H27   H     H_    0.816041 0.489384 0.975126 0.135532
H28   H     H_    0.740843 0.580887 0.976022 0.103655
H29   H     H_    0.907686 0.523646 0.849856 0.160603
H30   H     H_    0.824706 0.588358 0.813811 0.190436
H31   H     H_    0.830427 0.706550 0.940387 0.142186
H32   H     H_    0.937155 0.687885 0.876158 0.147178
H33   H     H_    0.914785 0.642243 0.978900 0.161368
H34   H     H_    0.715619 0.370480 0.006657 0.160530
H35   H     H_    0.406236 0.693179 0.171103 0.160353
H36   H     H_    0.496958 0.659538 0.089629 0.109706
H37   H     H_    0.506118 0.675913 0.287656 0.196782
H38   H     H_    0.598066 0.655322 0.201555 0.175310
H39   H     H_    0.570919 0.804544 0.153426 0.147343
H40   H     H_    0.591012 0.814009 0.266185 0.186076
H41   H     H_    0.479413 0.825270 0.240932 0.132082
H42   H     H_    0.395479 0.749522 0.814166 0.118397
H43   H     H_    0.300219 0.768623 0.898195 0.166042
H44   H     H_    0.296586 0.752655 0.698782 0.212110
H45   H     H_    0.284433 0.272209 0.342424 0.182939
H46   H     H_    0.202231 0.775279 0.782141 0.160125
H47   H     H_    0.273359 0.916655 0.839124 0.143737
H48   H     H_    0.259132 0.914385 0.725336 0.183621
H49   H     H_    0.367467 0.893321 0.754845 0.147098
H50   H     H_    0.271650 0.385243 0.078245 0.128343
H51   H     H_    0.251260 0.438976 0.987336 0.101326
H52   H     H_    0.162999 0.561207 0.108091 0.242686
H53   H     H_    0.113115 0.457527 0.073622 0.117469
H54   H     H_    0.144831 0.394224 0.202723 0.136248
H55   H     H_    0.092664 0.501589 0.237149 0.138750
H56   H     H_    0.223112 0.362707 0.315368 0.109842
H57   H     H_    0.211101 0.489376 0.235918 0.183055
H58   H     H_    0.712104 0.666694 0.764992 0.190438
H59   H     H_    0.677240 0.664214 0.878925 0.097784
H60   H     H_    0.550277 0.701918 0.746985 0.185710
H61   H     H_    0.528992 0.717691 0.865524 0.127897
H62   H     H_    0.649045 0.833469 0.866879 0.140565
H63   H     H_    0.557394 0.861784 0.811469 0.141309
H64   H     H_    0.660129 0.820942 0.748360 0.155057
H65   H     H_    0.209058 0.618968 0.694144 0.214286
H66   H     H_    0.178592 0.507065 0.664362 0.130937
H67   H     H_    0.145910 0.174325 0.331468 0.233669
H68   H     H_    0.046702 0.657522 0.749316 0.159997
H69   H     H_    0.023349 0.540265 0.727417 0.164210
H70   H     H_    0.147730 0.513367 0.825114 0.169552
H71   H     H_    0.045778 0.562881 0.880448 0.143421
H72   H     H_    0.138971 0.632604 0.858793 0.238426
H73   H     H_    0.098931 0.263709 0.283714 0.210361
H74   H     H_    0.231450 0.254121 0.166794 0.138125
O1    O     O_3   0.500000 0.500000 0.500000 -0.477639
O2    O     O_R   0.486020 0.413600 0.304760 -0.536284
O3    O     O_R   0.410760 0.579600 0.689750 -0.535239
O4    O     O_R   0.584420 0.523620 0.304110 -0.560259
O5    O     O_R   0.518800 0.483180 0.701380 -0.491498
O6    O     O_3   0.180422 0.312507 0.435475 -0.513824
O7    O     O_3   0.804825 0.670075 0.598365 -0.562538
O8    O     O_3   0.692656 0.003435 0.541465 -0.461437
O9    O     O_3   0.321766 0.819604 0.472174 -0.510951
O10   O     O_3   0.731742 0.468338 0.880454 -0.534717
O11   O     O_3   0.444338 0.563196 0.171705 -0.534852
O12   O     O_R   0.551580 0.314770 0.565720 -0.472080
O13   O     O_3   0.304623 0.646007 0.820838 -0.556004
O14   O     O_3   0.326903 0.510038 0.079398 -0.499575
O15   O     O_3   0.629692 0.563732 0.789802 -0.511031
O16   O     O_3   0.134089 0.607462 0.593623 -0.562225
O17   O     O_R   0.429950 0.701690 0.536820 -0.528622
O18   O     O_R   0.314790 0.427190 0.441330 -0.535931
O19   O     O_R   0.703670 0.556350 0.456130 -0.519937
O20   O     O_R   0.291500 0.546870 0.537740 -0.525463
O21   O     O_R   0.690030 0.469590 0.564810 -0.473894
O22   O     O_R   0.466830 0.291510 0.457690 -0.560449
O23   O     O_R   0.551640 0.692030 0.439770 -0.509597
Zn1   Zn    Zn3+2 0.563990 0.442880 0.581560 1.052456
Zn2   Zn    Zn3+2 0.442900 0.409640 0.427210 0.940948
Zn3   Zn    Zn3+2 0.583480 0.566840 0.426280 0.983059
Zn4   Zn    Zn3+2 0.409620 0.580640 0.564950 0.939039

loop_
_geom_bond_atom_site_label_1
_geom_bond_atom_site_label_2
_ccdc_geom_bond_type
O18   Zn2   S    
C66   C68   S    
C34   C56   A    
C8    C13   A    
C4    O21   A    
C27   C29   A    
C21   O9    S    
C18   C26   A    
C49   H28   S    
C61   H57   S    
C55   H43   S    
C53   C54   S    
C52   C53   S    
C59   H50   S    
C41   H10   S    
C12   C23   A    
C58   H47   S    
C37   C38   S    
C47   H22   S    
C32   H34   S    
C36   C37   S    
C19   C21   A    
C36   H56   S    
C28   O23   A    
O1    Zn4   S    
C66   H68   S    
C20   C25   A    
C52   H36   S    
C59   H51   S    
C48   H25   S    
C1    O20   A    
C69   O10   S    
C15   C17   A    
C7    C10   A    
C24   C29   A    
C66   H69   S    
C44   H17   S    
C28   O17   A    
C57   H46   S    
O2    Zn2   S    
C46   H19   S    
C51   H32   S    
C54   H40   S    
C50   H29   S    
C49   O10   S    
C59   O14   S    
C14   O16   S    
C68   H72   S    
O22   Zn2   S    
C26   H23   S    
C6    C15   A    
C59   C60   S    
C51   H33   S    
O1    Zn1   S    
C13   C14   A    
C39   O7    S    
C63   H61   S    
C40   H7    S    
C42   O8    S    
C22   F5    S    
C4    C7    S    
C2    O11   S    
C31   O3    A    
C53   H37   S    
C48   H24   S    
O21   Zn1   S    
O3    Zn4   S    
C43   H14   S    
O1    Zn2   S    
C4    O19   A    
O20   Zn4   S    
C1    C6    S    
C40   H6    S    
C60   H52   S    
C19   C22   A    
C24   C25   A    
C39   H5    S    
C70   O15   S    
C39   C40   S    
C8    C9    A    
C64   H62   S    
C38   H2    S    
C1    O18   A    
C16   O12   A    
C25   C26   A    
C41   H8    S    
C5    C45   A    
C65   O16   S    
C43   H15   S    
C64   H63   S    
C60   C61   S    
C8    H12   S    
C62   H59   S    
C43   C44   S    
C55   C57   S    
C62   C63   S    
C6    C14   A    
C65   H65   S    
C16   O22   A    
C30   O2    A    
C47   C48   S    
C9    O7    S    
C23   C34   A    
C48   H26   S    
C54   H39   S    
C50   C51   S    
C20   F4    S    
C3    C32   A    
C34   C45   A    
C12   C35   A    
C19   C28   S    
C15   O6    S    
C68   H71   S    
C61   H54   S    
C57   H44   S    
O5    Zn1   S    
C16   C18   S    
C40   C41   S    
O17   Zn4   S    
C17   F1    S    
C32   C67   A    
C22   C24   A    
C42   C43   S    
C3    H1    S    
C68   H70   S    
C53   H38   S    
C36   O6    S    
C23   O14   S    
C64   H64   S    
O23   Zn3   S    
C7    C9    A    
C46   C47   S    
C11   C17   A    
O1    Zn3   S    
C37   H67   S    
C30   C33   S    
C45   C70   A    
C18   C27   A    
C37   H73   S    
C44   H16   S    
C60   H53   S    
C49   H27   S    
C31   O5    A    
C29   O8    S    
O12   Zn1   S    
C56   C67   A    
C41   H9    S    
C52   O11   S    
C58   H48   S    
C52   H35   S    
O4    Zn3   S    
C47   H21   S    
C42   H13   S    
C63   H60   S    
C62   H58   S    
C12   F6    S    
C36   H45   S    
C55   O13   S    
C2    C56   A    
C39   H4    S    
C65   H66   S    
C11   C13   A    
C57   C58   S    
C46   O9    S    
C5    C35   A    
O19   Zn3   S    
C65   C66   S    
C69   C70   A    
C35   O13   S    
C44   H18   S    
C10   C11   A    
C61   H55   S    
C63   C64   S    
C30   O4    A    
C62   O15   S    
C46   H20   S    
C20   C21   A    
C58   H49   S    
C51   H31   S    
C49   C50   S    
C38   H3    S    
C54   H41   S    
C50   H30   S    
C3    C33   A    
C42   H11   S    
C67   C69   A    
C27   F3    S    
C38   H74   S    
C2    C33   A    
C5    C31   S    
C55   H42   S    
C10   F2    S    
