data_mof_unit_52746.cif
_audit_creation_date              2012-12-11T17:39:20-0500
_audit_creation_method            fapswitch 2.2
_symmetry_space_group_name_H-M    P1
_symmetry_Int_Tables_number       1
_space_group_crystal_system       triclinic
_cell_length_a                    24.833408
_cell_length_b                    7.228006
_cell_length_c                    22.640953
_cell_angle_alpha                 90.0
_cell_angle_beta                  96.31549
_cell_angle_gamma                 89.999987
_cell_volume                      4039.29784436

loop_
_atom_site_label
_atom_site_type_symbol
_atom_type_description
_atom_site_fract_x
_atom_site_fract_y
_atom_site_fract_z
_atom_type_partial_charge
O1    O     O_R   0.801910 0.607900 0.699140 -0.536901
O2    O     O_R   0.198090 0.392100 0.300860 -0.536902
O3    O     O_R   0.698090 0.107900 0.800860 -0.536901
O4    O     O_R   0.301910 0.892100 0.199140 -0.536901
O5    O     O_R   0.692320 0.276320 0.686350 -0.535883
O6    O     O_R   0.307680 0.723680 0.313650 -0.535883
O7    O     O_R   0.807680 0.776320 0.813650 -0.535883
O8    O     O_R   0.192320 0.223680 0.186350 -0.535883
C1    C     C_R   0.674030 0.447097 0.671313 0.715297
C2    C     C_R   0.325970 0.552903 0.328687 0.715297
C3    C     C_R   0.825970 0.947097 0.828687 0.715297
C4    C     C_R   0.174030 0.052903 0.171313 0.715297
O9    O     O_R   0.801140 0.278070 0.692060 -0.540136
O10   O     O_R   0.198860 0.721930 0.307940 -0.540136
O11   O     O_R   0.698860 0.778070 0.807940 -0.540136
O12   O     O_R   0.301140 0.221930 0.192060 -0.540136
O13   O     O_R   0.807690 0.109570 0.806600 -0.528411
O14   O     O_R   0.192310 0.890430 0.193400 -0.528411
O15   O     O_R   0.692310 0.609570 0.693400 -0.528411
O16   O     O_R   0.307690 0.390430 0.306600 -0.528411
C5    C     C_R   0.818344 0.446875 0.678627 0.675897
C6    C     C_R   0.181656 0.553125 0.321373 0.675898
C7    C     C_R   0.681656 0.946875 0.821373 0.675897
C8    C     C_R   0.318344 0.053125 0.178626 0.675897
O17   O     O_3   0.752020 0.441970 0.787570 -0.373255
O18   O     O_3   0.247980 0.558030 0.212430 -0.373255
O19   O     O_3   0.747980 0.941970 0.712430 -0.373255
O20   O     O_3   0.252020 0.058030 0.287570 -0.373255
V1    V     V_3+5 0.749620 0.166420 0.743030 1.396033
V2    V     V_3+5 0.250380 0.833580 0.256970 1.396034
V3    V     V_3+5 0.750380 0.666420 0.756970 1.396033
V4    V     V_3+5 0.249620 0.333580 0.243030 1.396034
C9    C     C_R   0.421762 0.191492 0.073349 -0.141500
C10   C     C_R   0.578238 0.808508 0.926650 -0.141500
C11   C     C_R   0.078239 0.691492 0.426651 -0.141500
C12   C     C_R   0.921761 0.308508 0.573349 -0.141500
H1    H     H_    0.437634 0.317402 0.055902 0.105531
H2    H     H_    0.562366 0.682597 0.944098 0.105531
H3    H     H_    0.062367 0.817402 0.444099 0.105532
H4    H     H_    0.937633 0.182598 0.555901 0.105532
C13   C     C_R   0.381785 0.203346 0.112509 -0.174110
C14   C     C_R   0.618215 0.796654 0.887490 -0.174111
C15   C     C_R   0.118215 0.703346 0.387491 -0.174111
C16   C     C_R   0.881785 0.296654 0.612509 -0.174110
H5    H     H_    0.367869 0.338963 0.124341 0.123223
H6    H     H_    0.632131 0.661037 0.875659 0.123223
H7    H     H_    0.132132 0.838963 0.375660 0.123223
H8    H     H_    0.867868 0.161037 0.624340 0.123223
C17   C     C_R   0.360373 0.042168 0.136166 -0.052932
C18   C     C_R   0.639627 0.957832 0.863834 -0.052931
C19   C     C_R   0.139627 0.542168 0.363833 -0.052931
C20   C     C_R   0.860373 0.457832 0.636166 -0.052932
C21   C     C_R   0.380144 0.869161 0.119259 -0.168217
C22   C     C_R   0.619857 0.130839 0.880742 -0.168218
C23   C     C_R   0.119856 0.369161 0.380741 -0.168218
C24   C     C_R   0.880144 0.630839 0.619259 -0.168217
H9    H     H_    0.364958 0.741662 0.136298 0.126077
H10   H     H_    0.635043 0.258338 0.863702 0.126077
H11   H     H_    0.135042 0.241662 0.363701 0.126077
H12   H     H_    0.864958 0.758338 0.636299 0.126077
C25   C     C_R   0.420031 0.857812 0.080152 -0.142628
C26   C     C_R   0.579969 0.142188 0.919849 -0.142628
C27   C     C_R   0.079969 0.357812 0.419848 -0.142629
C28   C     C_R   0.920031 0.642188 0.580152 -0.142628
H13   H     H_    0.434490 0.723065 0.068046 0.105153
H14   H     H_    0.565510 0.276935 0.931955 0.105153
H15   H     H_    0.065509 0.223065 0.431954 0.105153
H16   H     H_    0.934491 0.776935 0.568046 0.105153
C29   C     C_R   0.441134 0.018677 0.057024 0.132176
C30   C     C_R   0.558867 0.981323 0.942975 0.132176
C31   C     C_R   0.058867 0.518676 0.442975 0.132176
C32   C     C_R   0.941133 0.481323 0.557024 0.132176
C33   C     C_1   0.482647 0.005785 0.016791 -0.064715
C34   C     C_1   0.517353 0.994215 0.983209 -0.064715
C35   C     C_1   0.017353 0.505785 0.483209 -0.064715
C36   C     C_1   0.982647 0.494215 0.516791 -0.064715
C37   C     C_3   0.955824 0.969810 0.027453 0.012588
C38   C     C_3   0.044175 0.030188 0.972547 0.012589
C39   C     C_3   0.544176 0.469810 0.472547 0.012588
C40   C     C_3   0.455824 0.530190 0.527453 0.012588
C41   C     C_3   0.992640 0.143503 0.035488 0.012928
C42   C     C_3   0.007359 0.856495 0.964513 0.012929
C43   C     C_3   0.507359 0.643503 0.464512 0.012929
C44   C     C_3   0.492641 0.356497 0.535488 0.012929
H17   H     H_    0.987921 0.285272 0.940784 0.151851
H18   H     H_    0.012078 0.714726 0.059217 0.151850
H19   H     H_    0.512079 0.785273 0.559216 0.151850
H20   H     H_    0.487921 0.214727 0.440784 0.151850
C45   C     C_1   0.128666 0.040459 0.125297 -0.200450
C46   C     C_1   0.871334 0.959541 0.874703 -0.200451
C47   C     C_1   0.371334 0.540458 0.374703 -0.200451
C48   C     C_1   0.628666 0.459542 0.625297 -0.200451
C49   C     C_3   0.006788 0.843787 0.032856 -0.216702
C50   C     C_3   0.993211 0.156211 0.967144 -0.216702
C51   C     C_3   0.493211 0.343788 0.467144 -0.216701
C52   C     C_3   0.506789 0.656212 0.532856 -0.216701
C53   C     C_3   0.043393 0.017852 0.040671 0.071306
C54   C     C_3   0.956607 0.982146 0.959329 0.071306
C55   C     C_3   0.456607 0.517853 0.459329 0.071306
C56   C     C_3   0.543393 0.482147 0.540671 0.071306
C57   C     C_1   0.090414 0.028348 0.087078 -0.073206
C58   C     C_1   0.909585 0.971652 0.912922 -0.073207
C59   C     C_1   0.409585 0.528348 0.412922 -0.073206
C60   C     C_1   0.590414 0.471652 0.587078 -0.073206
C61   C     C_R   0.978950 0.303994 0.074096 0.084721
C62   C     C_R   0.925776 0.373547 0.067624 -0.124834
C63   C     C_R   0.908266 0.490114 0.110834 -0.094090
C64   C     C_R   0.944312 0.545443 0.159317 -0.093533
C65   C     C_R   0.998351 0.489995 0.163470 -0.144292
C66   C     C_R   0.015728 0.370193 0.121040 -0.155513
H21   H     H_    0.896857 0.327471 0.031300 0.117411
H22   H     H_    0.866436 0.534173 0.107366 0.129195
H23   H     H_    0.930558 0.632342 0.193517 0.113145
H24   H     H_    0.026602 0.536946 0.200241 0.116947
H25   H     H_    0.057551 0.329088 0.126126 0.129403
C67   C     C_R   0.021048 0.696003 0.925904 0.084719
C68   C     C_R   0.074223 0.626456 0.932372 -0.124834
C69   C     C_R   0.091731 0.509887 0.889161 -0.094090
C70   C     C_R   0.055681 0.454550 0.840681 -0.093534
C71   C     C_R   0.001641 0.509992 0.836533 -0.144291
C72   C     C_R   0.984267 0.629795 0.878964 -0.155512
H26   H     H_    0.103144 0.672538 0.968693 0.117412
H27   H     H_    0.133560 0.465832 0.892625 0.129196
H28   H     H_    0.069433 0.367648 0.806481 0.113144
H29   H     H_    0.973389 0.463033 0.799766 0.116947
H30   H     H_    0.942443 0.670892 0.873883 0.129404
C73   C     C_R   0.521049 0.803994 0.425903 0.084719
C74   C     C_R   0.574223 0.873544 0.432373 -0.124834
C75   C     C_R   0.591732 0.990112 0.389162 -0.094090
C76   C     C_R   0.555684 0.045445 0.340681 -0.093534
C77   C     C_R   0.501644 0.990002 0.336531 -0.144291
C78   C     C_R   0.484269 0.870199 0.378962 -0.155512
H31   H     H_    0.603143 0.827464 0.468695 0.117412
H32   H     H_    0.633561 0.034167 0.392627 0.129195
H33   H     H_    0.569436 0.132346 0.306481 0.113144
H34   H     H_    0.473392 0.036958 0.299763 0.116947
H35   H     H_    0.442446 0.829099 0.373879 0.129404
C79   C     C_R   0.478951 0.196005 0.574097 0.084719
C80   C     C_R   0.425777 0.126456 0.567627 -0.124834
C81   C     C_R   0.408268 0.009888 0.610838 -0.094089
C82   C     C_R   0.444316 0.954555 0.659319 -0.093534
C83   C     C_R   0.498356 0.009998 0.663469 -0.144291
C84   C     C_R   0.515731 0.129801 0.621038 -0.155513
H36   H     H_    0.396856 0.172536 0.531305 0.117412
H37   H     H_    0.366438 0.965833 0.607372 0.129195
H38   H     H_    0.430564 0.867654 0.693519 0.113144
H39   H     H_    0.526608 0.963042 0.700237 0.116947
H40   H     H_    0.557554 0.170900 0.626121 0.129404
C85   C     C_R   0.908710 0.939437 0.063524 0.104359
C86   C     C_R   0.916351 0.968360 0.125313 -0.106282
C87   C     C_R   0.872628 0.957784 0.159127 -0.137730
C88   C     C_R   0.821052 0.913792 0.131901 -0.105611
C89   C     C_R   0.813203 0.879732 0.070860 -0.138549
C90   C     C_R   0.856751 0.891859 0.036794 -0.142714
H41   H     H_    0.956109 0.001885 0.147265 0.117638
H42   H     H_    0.878852 0.982667 0.206521 0.109109
H43   H     H_    0.787269 0.904661 0.158154 0.106906
H44   H     H_    0.773315 0.843594 0.049877 0.115219
H45   H     H_    0.849268 0.862591 0.990016 0.120082
C91   C     C_R   0.091289 0.060565 0.936477 0.104357
C92   C     C_R   0.083648 0.031639 0.874687 -0.106286
C93   C     C_R   0.127371 0.042220 0.840874 -0.137731
C94   C     C_R   0.178947 0.086220 0.868100 -0.105612
C95   C     C_R   0.186795 0.120283 0.929140 -0.138549
C96   C     C_R   0.143247 0.108151 0.963206 -0.142709
H46   H     H_    0.043891 0.998108 0.852735 0.117640
H47   H     H_    0.121148 0.017335 0.793480 0.109110
H48   H     H_    0.212730 0.095354 0.841847 0.106906
H49   H     H_    0.226683 0.156427 0.950124 0.115219
H50   H     H_    0.150730 0.137422 0.009985 0.120083
C97   C     C_R   0.591289 0.439434 0.436476 0.104358
C98   C     C_R   0.583649 0.468358 0.374687 -0.106285
C99   C     C_R   0.627371 0.457779 0.340874 -0.137731
C100  C     C_R   0.678947 0.413781 0.368100 -0.105611
C101  C     C_R   0.686796 0.379720 0.429140 -0.138549
C102  C     C_R   0.643248 0.391850 0.463206 -0.142711
H51   H     H_    0.543891 0.501887 0.352735 0.117639
H52   H     H_    0.621148 0.482662 0.293479 0.109109
H53   H     H_    0.712730 0.404647 0.341847 0.106906
H54   H     H_    0.726684 0.343577 0.450123 0.115219
H55   H     H_    0.650731 0.362581 0.509984 0.120082
C103  C     C_R   0.408710 0.560566 0.563524 0.104358
C104  C     C_R   0.416351 0.531642 0.625313 -0.106284
C105  C     C_R   0.372628 0.542221 0.659126 -0.137731
C106  C     C_R   0.321053 0.586219 0.631900 -0.105612
C107  C     C_R   0.313204 0.620280 0.570860 -0.138548
C108  C     C_R   0.356752 0.608150 0.536794 -0.142711
H56   H     H_    0.456109 0.498112 0.647265 0.117639
H57   H     H_    0.378852 0.517338 0.706520 0.109109
H58   H     H_    0.287269 0.595352 0.658153 0.106906
H59   H     H_    0.273316 0.656423 0.549876 0.115218
H60   H     H_    0.349269 0.637419 0.490015 0.120082

loop_
_geom_bond_atom_site_label_1
_geom_bond_atom_site_label_2
_ccdc_geom_bond_type
C98   H51   S    
O17   V3    S    
C55   C59   S    
C97   C98   A    
C35   C36   T    
O1    C5    A    
C23   H11   S    
O19   V1    S    
O13   V1    S    
C64   C65   A    
C61   C62   A    
O3    C7    A    
C76   H33   S    
C10   C14   A    
C56   C60   S    
C104  C105  A    
O15   V3    S    
C74   C75   A    
C92   C93   A    
O4    V2    S    
C106  H58   S    
C99   C100  A    
C67   C68   A    
O7    C3    A    
C18   C22   A    
C28   H16   S    
O9    V1    S    
C95   C96   A    
C61   C66   A    
C93   C94   A    
C79   C84   A    
C30   C34   S    
C22   H10   S    
C98   C99   A    
O4    C8    A    
C51   C55   S    
C62   C63   A    
C50   C54   S    
O1    V3    S    
C105  C106  A    
C26   C30   A    
O2    V4    S    
C33   C34   T    
C39   C97   S    
C107  H59   S    
O3    V1    S    
C38   C42   S    
C69   C70   A    
C46   C58   T    
C100  C101  A    
C21   C25   A    
C1    O15   A    
C94   C95   A    
C2    O16   A    
C23   C27   A    
O2    C6    A    
C87   C88   A    
C24   C28   A    
C29   C33   S    
O14   V2    S    
C40   C103  S    
C40   C52   S    
C11   C15   A    
C10   C30   A    
C19   C23   A    
C92   H46   S    
C32   C36   S    
C103  C108  A    
C16   C20   A    
C80   H36   S    
O11   C7    A    
H20   C51   S    
C44   C79   S    
O12   C8    A    
C85   C90   A    
C43   C55   S    
C96   H50   S    
C42   C54   S    
C95   H49   S    
C102  H55   S    
C74   H31   S    
O10   V2    S    
C1    C48   S    
C13   C17   A    
O5    V1    S    
C62   H21   S    
C84   H40   S    
C41   C61   S    
C31   C35   S    
O7    V3    S    
C67   C72   A    
C26   H14   S    
C20   C24   A    
C40   C44   S    
C44   C56   S    
C4    C45   S    
C12   H4    S    
C81   C82   A    
C77   H34   S    
C37   C85   S    
C21   H9    S    
C71   H29   S    
C7    C18   S    
C22   C26   A    
C78   H35   S    
C54   C58   S    
C9    H1    S    
C24   H12   S    
C44   C51   S    
O8    V4    S    
C64   H23   S    
C11   H3    S    
C68   H26   S    
C27   H15   S    
O5    C1    A    
H18   C49   S    
C25   H13   S    
H17   C50   S    
C39   C56   S    
C101  C102  A    
C37   C41   S    
O8    C4    A    
H19   C52   S    
C38   C53   S    
O9    C5    A    
C37   C54   S    
C63   H22   S    
C87   H42   S    
C70   C71   A    
C103  C104  A    
C73   C78   A    
C108  H60   S    
C82   H38   S    
C14   C18   A    
C65   H24   S    
C38   C91   S    
O6    V2    S    
C27   C31   A    
C2    C47   S    
C86   H41   S    
C82   C83   A    
C40   C55   S    
C14   H6    S    
C12   C16   A    
C63   C64   A    
C4    O14   A    
C73   C74   A    
C49   C53   S    
C71   C72   A    
C37   C49   S    
C89   H44   S    
C75   C76   A    
O16   V4    S    
C25   C29   A    
C8    C17   S    
C93   H47   S    
C88   H43   S    
C3    O13   A    
C45   C57   T    
C10   H2    S    
C83   H39   S    
C47   C59   T    
C81   H37   S    
O6    C2    A    
C66   H25   S    
C80   C81   A    
O11   V3    S    
C101  H54   S    
O18   V4    S    
C9    C29   A    
O12   V4    S    
C97   C102  A    
C68   C69   A    
C86   C87   A    
C9    C13   A    
C91   C92   A    
O10   C6    A    
C91   C96   A    
C94   H48   S    
C89   C90   A    
C42   C67   S    
C72   H30   S    
C104  H56   S    
C39   C43   S    
C41   C50   S    
C3    C46   S    
C15   C19   A    
C106  C107  A    
C41   C53   S    
C99   H52   S    
C38   C50   S    
C17   C21   A    
C43   C52   S    
C52   C56   S    
O20   V2    S    
C76   C77   A    
C70   H28   S    
C69   H27   S    
C28   C32   A    
C77   C78   A    
C43   C73   S    
C79   C80   A    
C48   C60   T    
C11   C31   A    
C75   H32   S    
C16   H8    S    
C90   H45   S    
C88   C89   A    
C65   C66   A    
C42   C49   S    
C13   H5    S    
C83   C84   A    
C107  C108  A    
C85   C86   A    
C39   C51   S    
C15   H7    S    
C100  H53   S    
C105  H57   S    
C5    C20   S    
C53   C57   S    
C12   C32   A    
C6    C19   S    
