data_mof_unit_43174.cif
_audit_creation_date              2012-12-10T17:17:53-0500
_audit_creation_method            fapswitch 2.2
_symmetry_space_group_name_H-M    P1
_symmetry_Int_Tables_number       1
_space_group_crystal_system       triclinic
_cell_length_a                    18.297014
_cell_length_b                    18.406224
_cell_length_c                    59.74799
_cell_angle_alpha                 90.032653
_cell_angle_beta                  89.985192
_cell_angle_gamma                 89.911976
_cell_volume                      20121.8369422

loop_
_atom_site_label
_atom_site_type_symbol
_atom_type_description
_atom_site_fract_x
_atom_site_fract_y
_atom_site_fract_z
_atom_type_partial_charge
C1    C     C_R   0.499988 0.999717 0.939284 0.810709
C2    C     C_R   0.447363 0.055168 0.619716 0.095905
C3    C     C_R   0.500813 0.934877 0.831893 0.493860
C4    C     C_R   0.555482 0.997207 0.332282 0.496031
C5    C     C_R   0.027656 0.554051 0.332383 0.494224
C6    C     C_R   0.425234 0.001403 0.332736 0.494925
C7    C     C_R   0.971614 0.437248 0.332452 0.474289
C8    C     C_R   0.029299 0.559466 0.879493 0.121093
C9    C     C_R   0.432597 0.991961 0.879515 0.118229
C10   C     C_R   0.970654 0.439745 0.879549 0.120888
C11   C     C_R   0.566190 0.001544 0.879312 0.119503
C12   C     C_R   0.494591 0.066554 0.379468 0.118803
C13   C     C_R   0.936022 0.482828 0.620287 0.093804
C14   C     C_R   0.936471 0.517918 0.379394 0.121399
C15   C     C_R   0.491351 0.933437 0.379500 0.117535
C16   C     C_R   0.063637 0.475712 0.379567 0.118393
C17   C     C_R   0.028183 0.559159 0.902938 -0.243875
C18   C     C_R   0.433770 0.992641 0.902935 -0.234301
C19   C     C_R   0.971696 0.440403 0.902992 -0.239711
C20   C     C_R   0.565655 0.002541 0.902741 -0.236534
C21   C     C_R   0.497094 0.065745 0.402881 -0.236634
C22   C     C_R   0.937148 0.518407 0.402819 -0.245510
C23   C     C_R   0.494543 0.934276 0.402898 -0.243592
C24   C     C_R   0.544585 0.964414 0.621903 0.095261
C25   C     C_R   0.063002 0.477772 0.402995 -0.243350
C26   C     C_R   0.000023 0.499509 0.867645 0.281190
C27   C     C_R   0.499196 0.996879 0.867607 0.276855
C28   C     C_R   0.491863 0.999973 0.367690 0.278176
C29   C     C_R   0.999898 0.495851 0.367654 0.282497
C30   C     C_R   0.424012 0.016303 0.238420 0.037305
C31   C     C_R   0.956996 0.444619 0.238162 0.037966
C32   C     C_R   0.550004 0.971146 0.238263 0.037108
C33   C     C_R   0.047685 0.542464 0.238187 0.037917
C34   C     C_R   0.960727 0.551792 0.738006 0.037378
C35   C     C_R   0.540153 0.048774 0.098283 0.102643
C36   C     C_R   0.470966 0.943455 0.737962 0.036703
C37   C     C_R   0.039521 0.444068 0.738083 0.037390
C38   C     C_R   0.508327 0.071125 0.738667 0.037170
C39   C     C_R   0.486721 0.993258 0.226604 0.087275
C40   C     C_R   0.002535 0.493381 0.226432 0.087157
C41   C     C_R   0.000199 0.497860 0.726296 0.087620
C42   C     C_R   0.488872 0.008171 0.726583 0.087411
C43   C     C_R   0.639148 0.859520 0.999442 0.778534
C44   C     C_R   0.140819 0.639315 0.999606 0.779479
C45   C     C_R   0.360696 0.140561 0.999495 0.783369
C46   C     C_R   0.962935 0.553892 0.097649 0.096789
C47   C     C_R   0.859419 0.360458 0.999656 0.786196
C48   C     C_R   0.362259 0.857364 0.999144 0.793921
C49   C     C_R   0.858871 0.639417 0.999933 0.786669
C50   C     C_R   0.637831 0.142514 0.999170 0.791740
C51   C     C_R   0.142216 0.361693 0.999483 0.791745
C52   C     C_R   0.140078 0.359255 0.499691 0.786024
C53   C     C_R   0.641544 0.138773 0.499711 0.793627
C54   C     C_R   0.860115 0.639983 0.499938 0.789721
C55   C     C_R   0.360604 0.859552 0.500313 0.789710
C56   C     C_R   0.860163 0.359951 0.499761 0.783366
C57   C     C_R   0.444504 0.954308 0.096332 0.048559
C58   C     C_R   0.356095 0.135866 0.498451 0.792201
C59   C     C_R   0.140050 0.639998 0.500055 0.783078
C60   C     C_R   0.640576 0.860721 0.499737 0.798594
C61   C     C_R   0.369014 0.053200 0.226426 -0.244686
C62   C     C_R   0.901668 0.408619 0.226091 -0.245287
C63   C     C_R   0.604335 0.933159 0.226295 -0.244507
C64   C     C_R   0.103502 0.577997 0.226200 -0.245458
C65   C     C_R   0.936572 0.613104 0.725966 -0.244772
C66   C     C_R   0.435789 0.887978 0.725809 -0.244161
C67   C     C_R   0.063778 0.382601 0.726104 -0.244823
C68   C     C_R   0.036644 0.441449 0.096567 0.046416
C69   C     C_R   0.541897 0.128430 0.726907 -0.244571
C70   C     C_R   0.298391 0.806607 0.956477 -0.167682
C71   C     C_R   0.202288 0.308429 0.956920 -0.163567
C72   C     C_R   0.697684 0.197163 0.956399 -0.168758
C73   C     C_R   0.787168 0.680176 0.958248 -0.163389
C74   C     C_R   0.677764 0.785405 0.958194 -0.170035
C75   C     C_R   0.800886 0.308022 0.956809 -0.165865
C76   C     C_R   0.311145 0.202734 0.957027 -0.166843
C77   C     C_R   0.194902 0.696322 0.956815 -0.165126
C78   C     C_R   0.819664 0.288706 0.458099 -0.166319
C79   C     C_R   0.066110 0.515787 0.596832 0.034211
C80   C     C_R   0.606951 0.716144 0.513917 -0.181747
C81   C     C_R   0.175852 0.717842 0.459733 -0.178146
C82   C     C_R   0.314415 0.208689 0.455578 -0.162894
C83   C     C_R   0.205255 0.313956 0.456277 -0.164630
C84   C     C_R   0.281003 0.826530 0.460085 -0.165925
C85   C     C_R   0.715180 0.610046 0.515644 -0.175502
C86   C     C_R   0.709505 0.184613 0.457759 -0.176096
C87   C     C_R   0.266942 0.784160 0.936386 0.104832
C88   C     C_R   0.229524 0.282370 0.936642 0.095483
C89   C     C_R   0.726715 0.222109 0.936234 0.103893
C90   C     C_R   0.453566 0.056477 0.596209 0.048355
C91   C     C_R   0.753640 0.699461 0.938123 0.096888
C92   C     C_R   0.698187 0.752423 0.938108 0.102595
C93   C     C_R   0.778294 0.278573 0.936435 0.102994
C94   C     C_R   0.284827 0.229332 0.936695 0.101288
C95   C     C_R   0.215204 0.727936 0.936536 0.102036
C96   C     C_R   0.798091 0.257686 0.437849 0.099339
C97   C     C_R   0.589505 0.646609 0.521346 0.106137
C98   C     C_R   0.191663 0.755099 0.440011 0.104805
C99   C     C_R   0.297399 0.246110 0.435996 0.104556
C100  C     C_R   0.241640 0.298587 0.436289 0.099308
C101  C     C_R   0.934983 0.486309 0.596742 0.106172
C102  C     C_R   0.244720 0.810117 0.440194 0.101112
C103  C     C_R   0.644328 0.593535 0.522591 0.119013
C104  C     C_R   0.742174 0.205426 0.437662 0.107774
C105  C     C_R   0.222907 0.721605 0.977543 0.029523
C106  C     C_R   0.281916 0.226514 0.977747 0.024466
C107  C     C_R   0.775042 0.280510 0.977489 0.028680
C108  C     C_R   0.713060 0.768092 0.978600 0.018841
C109  C     C_R   0.768074 0.714299 0.978694 0.031504
C110  C     C_R   0.721307 0.225320 0.977237 0.032055
C111  C     C_R   0.227394 0.280935 0.977680 0.033221
C112  C     C_R   0.999981 0.499972 0.939345 0.803081
C113  C     C_R   0.547644 0.960259 0.598355 0.037123
C114  C     C_R   0.276830 0.776474 0.977282 0.032987
C115  C     C_R   0.730428 0.215967 0.478441 0.023458
C116  C     C_R   0.733108 0.679810 0.507291 0.021522
C117  C     C_R   0.266863 0.787838 0.480157 0.020445
C118  C     C_R   0.225430 0.280411 0.476743 0.025377
C119  C     C_R   0.279402 0.224996 0.476105 0.028885
C120  C     C_R   0.213290 0.732945 0.479995 0.016970
C121  C     C_R   0.678677 0.733915 0.506829 0.016739
C122  C     C_R   0.785508 0.269748 0.478547 0.019205
C123  C     C_R   0.313088 0.793962 0.997518 -0.163614
C124  C     C_R   0.489040 0.997019 0.132473 0.194047
C125  C     C_R   0.204953 0.311510 0.998339 -0.157869
C126  C     C_R   0.687577 0.205324 0.997679 -0.159792
C127  C     C_R   0.798143 0.691838 0.999448 -0.144989
C128  C     C_R   0.695309 0.803736 0.998898 -0.119212
C129  C     C_R   0.800838 0.306687 0.998484 -0.138562
C130  C     C_R   0.306038 0.198093 0.998597 -0.132781
C131  C     C_R   0.200003 0.692582 0.998521 -0.140676
C132  C     C_R   0.805183 0.302892 0.499121 -0.111088
C133  C     C_R   0.697024 0.804802 0.499727 -0.110864
C134  C     C_R   0.195210 0.697296 0.500237 -0.119685
C135  C     C_R   0.001524 0.495346 0.132283 0.194690
C136  C     C_R   0.290739 0.182176 0.495461 -0.158645
C137  C     C_R   0.192393 0.298537 0.497800 -0.142042
C138  C     C_R   0.303495 0.804574 0.500414 -0.108439
C139  C     C_R   0.804471 0.696693 0.499883 -0.107762
C140  C     C_R   0.702431 0.190484 0.499141 -0.137245
C141  C     C_R   0.305310 0.746604 0.016220 0.053980
C142  C     C_R   0.245884 0.296041 0.018034 0.050732
C143  C     C_R   0.699600 0.248888 0.016957 0.057662
C144  C     C_R   0.768051 0.718368 0.019905 0.044992
C145  C     C_R   0.729672 0.784650 0.019120 0.083905
C146  C     C_R   0.001012 0.497722 0.632040 0.189467
C147  C     C_R   0.767032 0.284519 0.018577 0.073549
C148  C     C_R   0.282212 0.228867 0.018955 0.078369
C149  C     C_R   0.238483 0.709640 0.018429 0.074711
C150  C     C_R   0.774980 0.278420 0.519456 0.063074
C151  C     C_R   0.768864 0.822582 0.492615 0.063720
C152  C     C_R   0.226783 0.719056 0.520930 0.052732
C153  C     C_R   0.237301 0.184954 0.512441 0.072329
C154  C     C_R   0.203888 0.252058 0.516478 0.067680
C155  C     C_R   0.283784 0.770837 0.520911 0.069209
C156  C     C_R   0.823219 0.767630 0.492555 0.055997
C157  C     C_R   0.493152 0.009826 0.632444 0.201065
C158  C     C_R   0.734758 0.213814 0.519525 0.047628
C159  C     C_R   0.431302 0.027839 0.167731 0.487047
C160  C     C_R   0.950957 0.454076 0.167459 0.487206
C161  C     C_R   0.542157 0.959083 0.167680 0.488633
C162  C     C_R   0.054488 0.532987 0.167511 0.488000
C163  C     C_R   0.973784 0.556782 0.667315 0.487747
C164  C     C_R   0.456055 0.954679 0.667458 0.488315
C165  C     C_R   0.027770 0.438550 0.667354 0.489051
C166  C     C_R   0.520501 0.067448 0.667959 0.486223
C167  C     C_3   0.372785 0.726560 0.030343 -0.347849
C168  C     C_R   0.486396 0.992792 0.202950 -0.057107
C169  C     C_3   0.374384 0.650037 0.040783 -0.388465
C170  C     C_3   0.452412 0.626050 0.046253 -0.887435
C171  C     C_3   0.260099 0.355949 0.035413 -0.359898
C172  C     C_3   0.331415 0.350122 0.049060 -0.379990
C173  C     C_3   0.354527 0.423889 0.058441 -0.898715
C174  C     C_3   0.636010 0.267923 0.032692 -0.359509
C175  C     C_3   0.639848 0.342990 0.044106 -0.375214
C176  C     C_3   0.564867 0.367031 0.052677 -0.896723
C177  C     C_3   0.772454 0.672059 0.041239 -0.377128
C178  C     C_3   0.718583 0.689405 0.060354 -0.382556
C179  C     C_R   0.002792 0.493211 0.202756 -0.056645
C180  C     C_3   0.706209 0.623842 0.075593 -0.879072
C181  C     C_3   0.734819 0.840602 0.038045 -0.382030
C182  C     C_3   0.814193 0.852361 0.045702 -0.347432
C183  C     C_3   0.818859 0.911156 0.063600 -0.904189
C184  C     C_3   0.807267 0.290702 0.040978 -0.372830
C185  C     C_3   0.792823 0.226009 0.056784 -0.369560
C186  C     C_3   0.844058 0.225864 0.076876 -0.887380
C187  C     C_3   0.289519 0.186278 0.040881 -0.368683
C188  C     C_3   0.220735 0.190931 0.055585 -0.384511
C189  C     C_3   0.225611 0.140545 0.075761 -0.888800
C190  C     C_R   0.000398 0.497754 0.702617 -0.056768
C191  C     C_3   0.207674 0.688349 0.041416 -0.353112
C192  C     C_3   0.216911 0.746129 0.059732 -0.407926
C193  C     C_3   0.200121 0.714651 0.082787 -0.870169
C194  C     C_3   0.773388 0.326279 0.540315 -0.401706
C195  C     C_3   0.696514 0.358917 0.542951 -0.349136
C196  C     C_3   0.684450 0.391579 0.566118 -0.900376
C197  C     C_3   0.785562 0.899429 0.484220 -0.435238
C198  C     C_3   0.758283 0.910512 0.460167 -0.349568
C199  C     C_3   0.770390 0.988628 0.452472 -0.875016
C200  C     C_3   0.196279 0.691269 0.543223 -0.394747
C201  C     C_R   0.487903 0.009702 0.702943 -0.056964
C202  C     C_3   0.138613 0.745028 0.552230 -0.311912
C203  C     C_3   0.107164 0.721085 0.574664 -0.865797
C204  C     C_3   0.204623 0.116468 0.522923 -0.389243
C205  C     C_3   0.124955 0.105707 0.515387 -0.363609
C206  C     C_3   0.092612 0.036144 0.525147 -0.889655
C207  C     C_3   0.181788 0.270699 0.540528 -0.374277
C208  C     C_3   0.246475 0.263517 0.556866 -0.398464
C209  C     C_3   0.220805 0.261023 0.581162 -0.863785
C210  C     C_3   0.325172 0.786627 0.542749 -0.426426
C211  C     C_3   0.382626 0.727908 0.547530 -0.360739
C212  C     C_R   0.428808 0.026051 0.191188 -0.017374
C213  C     C_3   0.400265 0.723633 0.572461 -0.887997
C214  C     C_3   0.900301 0.783165 0.483819 -0.402170
C215  C     C_3   0.949684 0.814820 0.502241 -0.324516
C216  C     C_3   0.026253 0.830485 0.493341 -0.877145
C217  C     C_3   0.739389 0.165253 0.540244 -0.357750
C218  C     C_3   0.673382 0.171438 0.555980 -0.342945
C219  C     C_3   0.676820 0.113745 0.574304 -0.840519
C220  C     C_3   0.820152 0.602116 0.762948 -0.430291
C221  C     C_3   0.805848 0.683621 0.766741 -0.343864
C222  C     C_3   0.740020 0.709661 0.753240 -0.880821
C223  C     C_R   0.000017 0.499810 0.439300 0.810542
C224  C     C_R   0.950655 0.452273 0.190924 -0.017911
C225  C     C_3   0.521042 0.800929 0.761197 -0.431788
C226  C     C_3   0.465646 0.739382 0.764993 -0.348316
C227  C     C_3   0.482897 0.673933 0.750213 -0.871883
C228  C     C_3   0.179784 0.393805 0.763134 -0.429910
C229  C     C_3   0.193439 0.312254 0.767006 -0.344766
C230  C     C_3   0.258058 0.285171 0.753144 -0.883646
C231  C     C_3   0.463054 0.209789 0.764950 -0.435506
C232  C     C_3   0.519530 0.270344 0.768808 -0.346481
C233  C     C_3   0.500691 0.338043 0.755246 -0.874525
C234  C     C_3   0.280502 0.980656 0.264026 -0.433329
C235  C     C_R   0.543952 0.959540 0.191140 -0.018012
C236  C     C_3   0.223251 0.040829 0.267653 -0.345728
C237  C     C_3   0.154775 0.026901 0.253737 -0.872187
C238  C     C_3   0.933168 0.298774 0.263480 -0.430393
C239  C     C_3   0.854969 0.270353 0.267095 -0.344722
C240  C     C_3   0.840840 0.202161 0.253221 -0.879510
C241  C     C_3   0.695056 0.010273 0.262424 -0.431525
C242  C     C_3   0.752937 0.950896 0.266307 -0.346241
C243  C     C_3   0.820403 0.963704 0.251829 -0.871990
C244  C     C_3   0.070867 0.689278 0.263089 -0.429570
C245  C     C_3   0.149141 0.717113 0.266974 -0.346000
C246  C     C_R   0.055043 0.534163 0.190980 -0.018337
C247  C     C_3   0.164865 0.784288 0.252817 -0.878902
C248  C     C_3   0.385493 0.913644 0.083271 -0.371140
C249  C     C_3   0.330160 0.967242 0.073174 -0.345344
C250  C     C_3   0.270076 0.927970 0.060366 -0.926896
C251  C     C_3   0.071802 0.378960 0.083655 -0.380699
C252  C     C_3   0.013519 0.329311 0.073320 -0.341517
C253  C     C_3   0.048144 0.269581 0.059168 -0.932225
C254  C     C_3   0.594866 0.100783 0.087483 -0.370863
C255  C     C_3   0.664635 0.061720 0.079745 -0.369250
C256  C     C_3   0.712944 0.040283 0.099548 -0.802697
C257  C     C_R   0.971332 0.557184 0.690788 -0.017915
C258  C     C_3   0.922619 0.615850 0.086026 -0.385470
C259  C     C_3   0.974630 0.674705 0.077232 -0.371701
C260  C     C_3   0.003166 0.723135 0.096060 -0.807362
C261  C     C_3   0.863081 0.478047 0.584177 -0.398085
C262  C     C_3   0.832111 0.552082 0.576757 -0.375305
C263  C     C_3   0.799598 0.594819 0.596288 -0.784980
C264  C     C_3   0.600809 0.906504 0.587579 -0.368203
C265  C     C_3   0.560943 0.839198 0.578751 -0.346139
C266  C     C_3   0.614240 0.785115 0.568314 -0.876299
C267  C     C_3   0.136865 0.533227 0.584605 -0.400683
C268  C     C_R   0.457279 0.951553 0.690910 -0.018598
C269  C     C_3   0.184551 0.465552 0.581924 -0.327435
C270  C     C_3   0.255925 0.483669 0.569940 -0.905677
C271  C     C_3   0.415734 0.117378 0.583159 -0.373269
C272  C     C_3   0.472479 0.171252 0.574047 -0.352749
C273  C     C_3   0.437094 0.234160 0.561513 -0.914652
C274  C     C_3   0.063441 0.623659 0.867637 -0.412047
C275  C     C_3   0.144220 0.609165 0.862495 -0.333686
C276  C     C_3   0.180392 0.675609 0.852027 -0.897945
C277  C     C_3   0.359613 0.985752 0.867730 -0.407145
C278  C     C_3   0.315571 0.056245 0.870068 -0.340928
C279  C     C_R   0.029713 0.438255 0.690843 -0.018688
C280  C     C_3   0.243501 0.051814 0.857313 -0.883385
C281  C     C_3   0.936648 0.375324 0.867748 -0.413294
C282  C     C_3   0.856202 0.390069 0.862206 -0.332904
C283  C     C_3   0.820089 0.323393 0.851843 -0.898333
C284  C     C_3   0.638930 0.005588 0.867315 -0.406183
C285  C     C_3   0.680654 0.933614 0.869478 -0.339763
C286  C     C_3   0.753176 0.936288 0.856906 -0.878459
C287  C     C_3   0.494544 0.139128 0.367560 -0.407640
C288  C     C_3   0.569777 0.175335 0.369094 -0.338678
C289  C     C_3   0.570962 0.247422 0.356517 -0.883028
C290  C     C_R   0.518183 0.069058 0.691420 -0.016425
C291  C     C_3   0.867891 0.542674 0.367445 -0.407792
C292  C     C_3   0.861110 0.625667 0.368140 -0.344476
C293  C     C_3   0.792899 0.651437 0.355770 -0.871838
C294  C     C_3   0.487456 0.860846 0.367629 -0.406041
C295  C     C_3   0.412016 0.826105 0.370740 -0.340013
C296  C     C_3   0.406324 0.754449 0.358021 -0.877509
C297  C     C_3   0.132928 0.451987 0.367765 -0.416176
C298  C     C_3   0.130316 0.371052 0.361761 -0.325133
C299  C     C_3   0.203285 0.345083 0.352292 -0.903544
C300  C     C_R   0.371362 0.058151 0.203156 -0.148587
C301  C     C_R   0.898722 0.411982 0.202817 -0.148874
C302  C     C_R   0.601387 0.927315 0.203057 -0.149581
C303  C     C_R   0.499693 0.999995 0.439326 0.811341
C304  C     C_R   0.106934 0.574342 0.202933 -0.148943
C305  C     C_R   0.941754 0.615844 0.702703 -0.148516
C306  C     C_R   0.428656 0.892074 0.702608 -0.148912
C307  C     C_R   0.059022 0.379671 0.702830 -0.148399
C308  C     C_R   0.547134 0.127309 0.703628 -0.148456
C309  C     C_R   0.495628 0.000761 0.085384 -0.151163
C310  C     C_R   0.000014 0.498992 0.085265 -0.143838
C311  C     C_R   0.000678 0.500718 0.585032 -0.132874
C312  C     C_R   0.500316 0.005271 0.585374 -0.144334
C313  C     C_R   0.999933 0.499864 0.914736 -0.049410
C314  C     C_R   0.534969 0.047370 0.121819 0.090958
C315  C     C_R   0.499831 0.998450 0.914645 -0.058747
C316  C     C_R   0.497475 0.000004 0.414692 -0.058455
C317  C     C_R   0.000068 0.498711 0.414689 -0.052942
C318  C     C_R   0.949999 0.543607 0.761432 0.008180
C319  C     C_R   0.486501 0.938292 0.761197 0.007886
C320  C     C_R   0.050122 0.452660 0.761509 0.008065
C321  C     C_R   0.496601 0.072481 0.762170 0.007921
C322  C     C_R   0.420710 0.004530 0.261904 0.007947
C323  C     C_R   0.966626 0.436451 0.261626 0.008250
C324  C     C_R   0.554852 0.985522 0.261567 0.007943
C325  C     C_R   0.963784 0.551242 0.121195 0.093188
C326  C     C_R   0.036967 0.551591 0.261582 0.008157
C327  C     C_R   0.000066 0.498284 0.773265 0.020061
C328  C     C_R   0.492594 0.004418 0.773466 0.022717
C329  C     C_R   0.488191 0.995743 0.273520 0.022736
C330  C     C_R   0.001463 0.494284 0.273388 0.020477
C331  C     C_R   0.500434 0.000187 0.060604 0.811193
C332  C     C_R   0.999990 0.500979 0.060568 0.815290
C333  C     C_R   0.000580 0.500122 0.560448 0.802844
C334  C     C_R   0.500125 0.000304 0.560626 0.818866
C335  C     C_R   0.891369 0.576902 0.773595 0.085248
C336  C     C_R   0.444397 0.950362 0.119888 0.093441
C337  C     C_R   0.498137 0.871089 0.772708 0.085305
C338  C     C_R   0.108699 0.419606 0.773737 0.085499
C339  C     C_R   0.487414 0.137707 0.774916 0.086092
C340  C     C_R   0.353988 0.999816 0.274337 0.085235
C341  C     C_R   0.944588 0.373353 0.273911 0.085428
C342  C     C_R   0.622443 0.991993 0.273457 0.085424
C343  C     C_R   0.058283 0.615254 0.273740 0.085549
C344  C     C_R   0.892192 0.574983 0.797042 -0.184710
C345  C     C_R   0.501969 0.871064 0.796135 -0.180789
C346  C     C_R   0.107926 0.422173 0.797181 -0.185031
C347  C     C_R   0.037723 0.440683 0.120144 0.094514
C348  C     C_R   0.487813 0.133864 0.798338 -0.180760
C349  C     C_R   0.356684 0.999834 0.297776 -0.180778
C350  C     C_R   0.945587 0.375294 0.297342 -0.183080
C351  C     C_R   0.621439 0.994868 0.296881 -0.180382
C352  C     C_R   0.055641 0.614475 0.297168 -0.184110
C353  C     C_R   0.946794 0.538086 0.808776 -0.038357
C354  C     C_R   0.498338 0.935574 0.808404 -0.044059
C355  C     C_R   0.053428 0.459519 0.808851 -0.038251
C356  C     C_R   0.493458 0.067416 0.809483 -0.044367
C357  C     C_R   0.423159 0.000508 0.309246 -0.043995
C358  C     C_R   0.065648 0.514785 0.620388 0.103314
C359  C     C_R   0.971523 0.435776 0.308963 -0.040023
C360  C     C_R   0.555805 0.995530 0.308801 -0.044335
C361  C     C_R   0.029046 0.554517 0.308889 -0.041036
C362  C     C_R   0.000095 0.498625 0.796940 -0.053685
C363  C     C_R   0.494796 0.002469 0.797097 -0.060009
C364  C     C_R   0.489044 0.997263 0.297167 -0.060126
C365  C     C_R   0.000743 0.494829 0.297053 -0.055488
C366  C     C_R   0.052756 0.460931 0.832361 0.479820
C367  C     C_R   0.494849 0.064262 0.832951 0.496496
C368  C     C_R   0.947536 0.537399 0.832285 0.478523
H1    H     H_    0.324920 0.080455 0.234909 0.168339
H2    H     H_    0.164102 0.353067 0.955957 0.172415
H3    H     H_    0.198675 0.758979 0.095395 0.257564
H4    H     H_    0.273012 0.767846 0.060303 0.239801
H5    H     H_    0.178820 0.791843 0.056260 0.228559
H6    H     H_    0.147565 0.680921 0.040321 0.194625
H7    H     H_    0.229888 0.634968 0.046644 0.211695
H8    H     H_    0.696665 0.351121 0.579385 0.261738
H9    H     H_    0.719633 0.439709 0.568391 0.268666
H10   H     H_    0.626559 0.408805 0.567864 0.252774
H11   H     H_    0.689285 0.401146 0.529953 0.242987
H12   H     H_    0.653421 0.317646 0.539993 0.221696
H13   H     H_    0.653827 0.158264 0.955183 0.175812
H14   H     H_    0.789164 0.295177 0.555436 0.204383
H15   H     H_    0.812339 0.372143 0.539425 0.194098
H16   H     H_    0.740923 0.026821 0.463697 0.251184
H17   H     H_    0.829588 0.001908 0.452593 0.261991
H18   H     H_    0.749201 0.995532 0.435189 0.258250
H19   H     H_    0.787964 0.873084 0.448722 0.222820
H20   H     H_    0.699037 0.898182 0.458984 0.229398
H21   H     H_    0.761047 0.940628 0.495473 0.221223
H22   H     H_    0.844388 0.912655 0.484832 0.203902
H23   H     H_    0.073576 0.671537 0.572493 0.279760
H24   H     H_    0.826390 0.636314 0.957575 0.167257
H25   H     H_    0.151666 0.710679 0.586889 0.255441
H26   H     H_    0.071320 0.764626 0.581411 0.252856
H27   H     H_    0.163136 0.799723 0.554359 0.206686
H28   H     H_    0.093073 0.750899 0.540084 0.249117
H29   H     H_    0.173040 0.636121 0.541665 0.197117
H30   H     H_    0.239830 0.682696 0.555805 0.201439
H31   H     H_    0.124327 0.988015 0.519468 0.261674
H32   H     H_    0.093150 0.038459 0.543724 0.264726
H33   H     H_    0.035217 0.029982 0.519420 0.253058
H34   H     H_    0.090350 0.152218 0.520663 0.229437
H35   H     H_    0.633606 0.824406 0.957482 0.162660
H36   H     H_    0.122920 0.102317 0.496810 0.226950
H37   H     H_    0.233242 0.066552 0.517572 0.240887
H38   H     H_    0.207529 0.118940 0.541453 0.205213
H39   H     H_    0.186189 0.308678 0.585181 0.265053
H40   H     H_    0.188819 0.210725 0.584179 0.263759
H41   H     H_    0.268913 0.260932 0.592487 0.252543
H42   H     H_    0.278308 0.213304 0.553720 0.235168
H43   H     H_    0.283907 0.310334 0.554499 0.225288
H44   H     H_    0.162815 0.327463 0.542293 0.215562
H45   H     H_    0.136356 0.234797 0.545865 0.213492
H46   H     H_    0.837538 0.353806 0.955936 0.170809
H47   H     H_    0.413110 0.778387 0.579140 0.264846
H48   H     H_    0.352775 0.701389 0.581781 0.261261
H49   H     H_    0.447978 0.687364 0.575160 0.253223
H50   H     H_    0.363737 0.673566 0.541838 0.235570
H51   H     H_    0.433137 0.741741 0.538151 0.236109
H52   H     H_    0.353692 0.839226 0.543092 0.218146
H53   H     H_    0.286633 0.792523 0.556924 0.213838
H54   H     H_    0.051542 0.779914 0.486788 0.264565
H55   H     H_    0.023800 0.871577 0.479755 0.259880
H56   H     H_    0.061075 0.851875 0.507060 0.244778
H57   H     H_    0.355922 0.164595 0.956146 0.171579
H58   H     H_    0.926152 0.865852 0.509044 0.207093
H59   H     H_    0.954281 0.776010 0.516371 0.252660
H60   H     H_    0.926198 0.733269 0.476998 0.186492
H61   H     H_    0.898412 0.819834 0.469098 0.195581
H62   H     H_    0.679225 0.058603 0.566843 0.276325
H63   H     H_    0.726027 0.122084 0.584875 0.254586
H64   H     H_    0.627633 0.117589 0.585117 0.249010
H65   H     H_    0.672976 0.225187 0.564288 0.225824
H66   H     H_    0.621834 0.165605 0.546446 0.225047
H67   H     H_    0.748842 0.108096 0.535092 0.221988
H68   H     H_    0.158878 0.650146 0.955718 0.173660
H69   H     H_    0.789708 0.177563 0.549908 0.176927
H70   H     H_    0.750366 0.702613 0.735046 0.264177
H71   H     H_    0.690389 0.678618 0.758021 0.259939
H72   H     H_    0.730079 0.768168 0.756641 0.249855
H73   H     H_    0.794754 0.693913 0.784748 0.222624
H74   H     H_    0.854351 0.716326 0.762013 0.220342
H75   H     H_    0.816867 0.588071 0.744959 0.217559
H76   H     H_    0.774564 0.571137 0.770719 0.199492
H77   H     H_    0.478863 0.689112 0.732262 0.262487
H78   H     H_    0.538850 0.653437 0.753759 0.260306
H79   H     H_    0.864440 0.326841 0.457473 0.166242
H80   H     H_    0.443133 0.629809 0.753648 0.250930
H81   H     H_    0.467365 0.721763 0.782768 0.222637
H82   H     H_    0.409161 0.758145 0.761429 0.220791
H83   H     H_    0.532195 0.808743 0.743146 0.219370
H84   H     H_    0.574557 0.783579 0.768261 0.199970
H85   H     H_    0.246374 0.291429 0.735003 0.265150
H86   H     H_    0.308169 0.316189 0.757427 0.260809
H87   H     H_    0.267929 0.226775 0.756717 0.250359
H88   H     H_    0.205576 0.302355 0.784967 0.222110
H89   H     H_    0.144281 0.279946 0.762655 0.221067
H90   H     H_    0.563439 0.755941 0.514111 0.158334
H91   H     H_    0.183250 0.407663 0.745139 0.218114
H92   H     H_    0.225587 0.424542 0.770881 0.198505
H93   H     H_    0.501448 0.325440 0.737061 0.262614
H94   H     H_    0.445731 0.358655 0.759983 0.259521
H95   H     H_    0.541592 0.381171 0.758636 0.251271
H96   H     H_    0.520682 0.285311 0.786822 0.222727
H97   H     H_    0.575251 0.251753 0.764173 0.220746
H98   H     H_    0.448649 0.205016 0.747011 0.220219
H99   H     H_    0.411043 0.226179 0.773186 0.200926
H100  H     H_    0.168386 0.027135 0.235615 0.262599
H101  H     H_    0.132268 0.678409 0.458914 0.163763
H102  H     H_    0.130379 0.973661 0.258252 0.261293
H103  H     H_    0.113910 0.070287 0.257016 0.249554
H104  H     H_    0.207367 0.042871 0.285592 0.222481
H105  H     H_    0.245810 0.094853 0.263185 0.220158
H106  H     H_    0.285181 0.966017 0.246105 0.218925
H107  H     H_    0.260204 0.930198 0.272151 0.198902
H108  H     H_    0.845884 0.214530 0.235091 0.263927
H109  H     H_    0.880476 0.158828 0.257751 0.260525
H110  H     H_    0.784691 0.182025 0.256527 0.247669
H111  H     H_    0.846764 0.256778 0.285036 0.222473
H112  H     H_    0.859115 0.379006 0.234505 0.168419
H113  H     H_    0.351859 0.163693 0.453893 0.179810
H114  H     H_    0.813941 0.312348 0.262597 0.220561
H115  H     H_    0.948512 0.297362 0.245562 0.218129
H116  H     H_    0.971811 0.260059 0.271529 0.198291
H117  H     H_    0.805647 0.961264 0.233810 0.262462
H118  H     H_    0.844641 0.017618 0.255622 0.262847
H119  H     H_    0.861820 0.921031 0.255315 0.249922
H120  H     H_    0.769988 0.950956 0.284153 0.222921
H121  H     H_    0.730467 0.896273 0.262530 0.220256
H122  H     H_    0.689029 0.022710 0.244392 0.218668
H123  H     H_    0.715616 0.061807 0.269832 0.197177
H124  H     H_    0.159189 0.350166 0.454937 0.181618
H125  H     H_    0.160321 0.770995 0.234733 0.264207
H126  H     H_    0.125770 0.828487 0.256999 0.260814
H127  H     H_    0.221213 0.803689 0.256213 0.247467
H128  H     H_    0.156431 0.731659 0.284884 0.222130
H129  H     H_    0.189967 0.674419 0.262925 0.220808
H130  H     H_    0.056416 0.690069 0.245103 0.217950
H131  H     H_    0.032179 0.728693 0.270809 0.198366
H132  H     H_    0.312886 0.777241 0.905590 0.186426
H133  H     H_    0.245210 0.839900 0.907937 0.180154
H134  H     H_    0.244932 0.335600 0.907359 0.188133
H135  H     H_    0.319191 0.871214 0.459531 0.160619
H136  H     H_    0.179819 0.270099 0.906609 0.192369
H137  H     H_    0.677544 0.231957 0.906005 0.187752
H138  H     H_    0.745737 0.169492 0.907032 0.180039
H139  H     H_    0.730433 0.637218 0.911093 0.184778
H140  H     H_    0.794245 0.702398 0.906616 0.195192
H141  H     H_    0.700223 0.792806 0.906605 0.181665
H142  H     H_    0.636729 0.727304 0.911016 0.187506
H143  H     H_    0.833764 0.266033 0.907378 0.182890
H144  H     H_    0.764471 0.327308 0.906388 0.184406
H145  H     H_    0.274030 0.180751 0.906524 0.179762
H146  H     H_    0.755881 0.567587 0.517091 0.144224
H147  H     H_    0.339154 0.246018 0.907638 0.189099
H148  H     H_    0.157093 0.743372 0.908102 0.182928
H149  H     H_    0.225977 0.681971 0.905950 0.184729
H150  H     H_    0.858034 0.233919 0.410298 0.186654
H151  H     H_    0.795393 0.300976 0.406715 0.192417
H152  H     H_    0.496133 0.588870 0.517760 0.190662
H153  H     H_    0.515353 0.614214 0.544434 0.177187
H154  H     H_    0.124620 0.783243 0.414477 0.182944
H155  H     H_    0.189482 0.720895 0.407808 0.193581
H156  H     H_    0.297132 0.209019 0.404047 0.186270
H157  H     H_    0.669844 0.141356 0.456836 0.168438
H158  H     H_    0.360287 0.274082 0.409481 0.180950
H159  H     H_    0.264425 0.363365 0.409836 0.183310
H160  H     H_    0.202796 0.296736 0.404646 0.185134
H161  H     H_    0.279260 0.814764 0.408047 0.180850
H162  H     H_    0.214526 0.876902 0.414913 0.186346
H163  H     H_    0.609845 0.527894 0.547510 0.185032
H164  H     H_    0.588459 0.498869 0.521347 0.183768
H165  H     H_    0.701352 0.211561 0.406256 0.180574
H166  H     H_    0.763690 0.144528 0.410212 0.186766
H167  H     H_    0.294095 0.892238 0.047302 0.265613
H168  H     H_    0.327585 0.086441 0.194601 0.187851
H169  H     H_    0.236700 0.895509 0.072188 0.266928
H170  H     H_    0.233881 0.968024 0.052000 0.253115
H171  H     H_    0.304985 0.999294 0.086936 0.236637
H172  H     H_    0.357248 0.005620 0.061537 0.218772
H173  H     H_    0.409730 0.878375 0.070221 0.217662
H174  H     H_    0.354636 0.875473 0.094073 0.222715
H175  H     H_    0.086026 0.293192 0.046603 0.261423
H176  H     H_    0.078061 0.231248 0.070174 0.271339
H177  H     H_    0.005191 0.239075 0.050057 0.253041
H178  H     H_    0.981215 0.304173 0.087010 0.235953
H179  H     H_    0.856022 0.382376 0.194205 0.187924
H180  H     H_    0.975453 0.360497 0.062541 0.223394
H181  H     H_    0.109148 0.400224 0.070644 0.213166
H182  H     H_    0.107346 0.345133 0.094521 0.222896
H183  H     H_    0.723666 0.088029 0.110435 0.258659
H184  H     H_    0.686311 0.996908 0.109545 0.281747
H185  H     H_    0.766275 0.019865 0.093400 0.238743
H186  H     H_    0.651108 0.012657 0.069737 0.213477
H187  H     H_    0.696087 0.098971 0.068771 0.199167
H188  H     H_    0.569994 0.130862 0.073423 0.189116
H189  H     H_    0.610637 0.145467 0.098981 0.215099
H190  H     H_    0.645037 0.898868 0.194473 0.187585
H191  H     H_    0.956967 0.748773 0.105203 0.260950
H192  H     H_    0.036649 0.690944 0.107975 0.277972
H193  H     H_    0.037657 0.766907 0.088889 0.239330
H194  H     H_    0.021330 0.649881 0.068117 0.210199
H195  H     H_    0.944521 0.709554 0.065169 0.195539
H196  H     H_    0.889415 0.594260 0.072110 0.186381
H197  H     H_    0.881483 0.641651 0.097154 0.222323
H198  H     H_    0.756105 0.562713 0.604652 0.254487
H199  H     H_    0.842728 0.608651 0.608639 0.283729
H200  H     H_    0.775205 0.646130 0.589961 0.235234
H201  H     H_    0.149784 0.603870 0.194370 0.188004
H202  H     H_    0.874992 0.585473 0.568640 0.242048
H203  H     H_    0.788674 0.543321 0.564073 0.203686
H204  H     H_    0.871283 0.443125 0.569251 0.166251
H205  H     H_    0.821586 0.448970 0.594325 0.226027
H206  H     H_    0.642432 0.810087 0.553767 0.269568
H207  H     H_    0.655566 0.767487 0.580805 0.260647
H208  H     H_    0.583767 0.736536 0.562531 0.256964
H209  H     H_    0.532273 0.812239 0.592882 0.235412
H210  H     H_    0.519858 0.854800 0.565947 0.214373
H211  H     H_    0.633370 0.932625 0.574237 0.218861
H212  H     H_    0.921491 0.663589 0.694106 0.188151
H213  H     H_    0.642912 0.887913 0.599651 0.221560
H214  H     H_    0.244589 0.503828 0.552759 0.251048
H215  H     H_    0.286633 0.525777 0.579361 0.266705
H216  H     H_    0.290410 0.434196 0.568749 0.255148
H217  H     H_    0.197326 0.442155 0.598620 0.243449
H218  H     H_    0.154305 0.424559 0.571925 0.220075
H219  H     H_    0.125985 0.555831 0.567800 0.194033
H220  H     H_    0.167525 0.576039 0.593744 0.224774
H221  H     H_    0.406533 0.213564 0.546769 0.262218
H222  H     H_    0.399809 0.264623 0.572789 0.268263
H223  H     H_    0.648706 0.906398 0.234785 0.168014
H224  H     H_    0.402379 0.847664 0.693863 0.187776
H225  H     H_    0.480182 0.271846 0.555503 0.250889
H226  H     H_    0.505286 0.193431 0.588140 0.237757
H227  H     H_    0.509903 0.143229 0.562337 0.215842
H228  H     H_    0.381447 0.095410 0.569479 0.223287
H229  H     H_    0.377012 0.148411 0.593797 0.223839
H230  H     H_    0.430826 0.866357 0.141459 0.200249
H231  H     H_    0.360651 0.926805 0.141008 0.219961
H232  H     H_    0.114499 0.406780 0.142282 0.203801
H233  H     H_    0.037358 0.355751 0.141770 0.212356
H234  H     H_    0.542045 0.126517 0.145387 0.197032
H235  H     H_    0.079424 0.331854 0.694281 0.188161
H236  H     H_    0.613627 0.067670 0.145017 0.215823
H237  H     H_    0.888034 0.580891 0.144259 0.201233
H238  H     H_    0.964515 0.632920 0.144025 0.208976
H239  H     H_    0.881427 0.419656 0.642457 0.197712
H240  H     H_    0.855771 0.508278 0.642445 0.215812
H241  H     H_    0.622236 0.956351 0.646060 0.196645
H242  H     H_    0.564038 0.884603 0.644690 0.218814
H243  H     H_    0.120188 0.575606 0.643208 0.198172
H244  H     H_    0.146434 0.487223 0.642061 0.213783
H245  H     H_    0.361054 0.067387 0.640718 0.199497
H246  H     H_    0.573024 0.172665 0.695254 0.187697
H247  H     H_    0.421056 0.137663 0.640904 0.222057
H248  H     H_    0.152858 0.689990 0.836060 0.268109
H249  H     H_    0.177584 0.722648 0.863652 0.256583
H250  H     H_    0.238726 0.663469 0.848492 0.256852
H251  H     H_    0.173591 0.594858 0.878167 0.231066
H252  H     H_    0.149377 0.562863 0.850705 0.253956
H253  H     H_    0.033682 0.636434 0.851954 0.220759
H254  H     H_    0.058899 0.672896 0.878364 0.203389
H255  H     H_    0.253892 0.043475 0.839172 0.265813
H256  H     H_    0.209793 0.006294 0.863793 0.262362
H257  H     H_    0.050927 0.604797 0.912038 0.177044
H258  H     H_    0.212625 0.103311 0.859516 0.252392
H259  H     H_    0.303510 0.066578 0.888006 0.224555
H260  H     H_    0.347895 0.102598 0.863444 0.259166
H261  H     H_    0.366458 0.973163 0.849692 0.210754
H262  H     H_    0.328448 0.939815 0.875128 0.203476
H263  H     H_    0.848292 0.308112 0.836056 0.268133
H264  H     H_    0.822008 0.276867 0.863660 0.256472
H265  H     H_    0.762014 0.335753 0.848005 0.256635
H266  H     H_    0.826202 0.405277 0.877692 0.232623
H267  H     H_    0.851839 0.435833 0.850214 0.253484
H268  H     H_    0.382658 0.988469 0.912013 0.177693
H269  H     H_    0.967127 0.361787 0.852246 0.220983
H270  H     H_    0.940326 0.326452 0.878644 0.202333
H271  H     H_    0.743562 0.945952 0.838792 0.265035
H272  H     H_    0.788243 0.980283 0.863710 0.262057
H273  H     H_    0.782229 0.883672 0.858888 0.253458
H274  H     H_    0.691820 0.921860 0.887400 0.222605
H275  H     H_    0.647036 0.888651 0.862547 0.259699
H276  H     H_    0.631850 0.018439 0.849302 0.209753
H277  H     H_    0.671793 0.050488 0.874638 0.202948
H278  H     H_    0.559119 0.238542 0.338487 0.265867
H279  H     H_    0.948934 0.394891 0.912137 0.175956
H280  H     H_    0.529759 0.285322 0.363642 0.262209
H281  H     H_    0.625878 0.272512 0.358084 0.252654
H282  H     H_    0.583757 0.185648 0.386904 0.224162
H283  H     H_    0.612002 0.138772 0.361835 0.260547
H284  H     H_    0.479387 0.133274 0.349669 0.210310
H285  H     H_    0.452508 0.174870 0.375320 0.204445
H286  H     H_    0.795407 0.634899 0.337900 0.263465
H287  H     H_    0.743099 0.628068 0.363577 0.262281
H288  H     H_    0.789333 0.711602 0.356627 0.255668
H289  H     H_    0.858100 0.644569 0.385792 0.222235
H290  H     H_    0.617028 0.006887 0.911667 0.176124
H291  H     H_    0.909975 0.650556 0.360190 0.257312
H292  H     H_    0.867287 0.524560 0.349743 0.214673
H293  H     H_    0.819472 0.517527 0.375588 0.203945
H294  H     H_    0.414023 0.763648 0.339798 0.265213
H295  H     H_    0.448304 0.715508 0.364091 0.263366
H296  H     H_    0.351406 0.730425 0.360749 0.252547
H297  H     H_    0.402007 0.815558 0.388791 0.221496
H298  H     H_    0.368967 0.863717 0.364535 0.260405
H299  H     H_    0.498735 0.866361 0.349463 0.209531
H300  H     H_    0.530399 0.824304 0.374493 0.201843
H301  H     H_    0.498625 0.116884 0.411869 0.178225
H302  H     H_    0.216982 0.375814 0.336858 0.268751
H303  H     H_    0.247534 0.352595 0.364801 0.256837
H304  H     H_    0.199642 0.286447 0.348067 0.257289
H305  H     H_    0.116889 0.338612 0.376882 0.230949
H306  H     H_    0.087336 0.361110 0.349068 0.252460
H307  H     H_    0.142114 0.484841 0.352455 0.217092
H308  H     H_    0.180825 0.462055 0.378807 0.205003
H309  H     H_    0.888480 0.535240 0.411792 0.168294
H310  H     H_    0.494592 0.883158 0.411889 0.173367
H311  H     H_    0.145884 0.607684 0.234673 0.168735
H312  H     H_    0.111605 0.461923 0.412152 0.179153
H313  H     H_    0.847738 0.600177 0.806193 0.187467
H314  H     H_    0.510762 0.820099 0.804802 0.187089
H315  H     H_    0.152330 0.397087 0.806370 0.187384
H316  H     H_    0.480779 0.183348 0.807938 0.187123
H317  H     H_    0.306074 0.996302 0.307133 0.187143
H318  H     H_    0.928773 0.327511 0.306581 0.187233
H319  H     H_    0.672704 0.999638 0.305835 0.187315
H320  H     H_    0.071959 0.662672 0.306301 0.187535
H321  H     H_    0.485153 0.620657 0.030679 0.262682
H322  H     H_    0.915211 0.660218 0.734418 0.167289
H323  H     H_    0.478988 0.666126 0.057523 0.269104
H324  H     H_    0.451313 0.572491 0.054790 0.255483
H325  H     H_    0.343915 0.650325 0.056813 0.237708
H326  H     H_    0.349978 0.609702 0.029129 0.232556
H327  H     H_    0.420533 0.727703 0.018831 0.234425
H328  H     H_    0.382336 0.767829 0.043576 0.197564
H329  H     H_    0.367461 0.462063 0.044606 0.261623
H330  H     H_    0.310164 0.447278 0.068919 0.270227
H331  H     H_    0.404155 0.417215 0.068941 0.259867
H332  H     H_    0.323232 0.313657 0.063591 0.231925
H333  H     H_    0.412132 0.841809 0.734140 0.167653
H334  H     H_    0.376526 0.329001 0.038404 0.236055
H335  H     H_    0.265775 0.407554 0.025939 0.239586
H336  H     H_    0.212692 0.361464 0.046876 0.192658
H337  H     H_    0.526138 0.374006 0.038519 0.264600
H338  H     H_    0.542600 0.326173 0.064531 0.265348
H339  H     H_    0.569970 0.419859 0.061525 0.255461
H340  H     H_    0.676735 0.340821 0.058774 0.229155
H341  H     H_    0.660184 0.384476 0.032114 0.237253
H342  H     H_    0.585716 0.270055 0.022280 0.235800
H343  H     H_    0.628456 0.224729 0.045442 0.192348
H344  H     H_    0.084974 0.335546 0.734607 0.167989
H345  H     H_    0.679971 0.578897 0.066142 0.261548
H346  H     H_    0.758756 0.604435 0.082662 0.260154
H347  H     H_    0.669582 0.639518 0.089615 0.259168
H348  H     H_    0.741105 0.733438 0.070983 0.234240
H349  H     H_    0.664613 0.705576 0.053401 0.238397
H350  H     H_    0.758142 0.615847 0.036201 0.248613
H351  H     H_    0.829228 0.672352 0.047656 0.178733
H352  H     H_    0.798631 0.963728 0.056875 0.262484
H353  H     H_    0.785805 0.895399 0.078415 0.269285
H354  H     H_    0.876586 0.918056 0.068909 0.256537
H355  H     H_    0.566513 0.173416 0.735584 0.168166
H356  H     H_    0.837614 0.801700 0.052708 0.223024
H357  H     H_    0.848124 0.868848 0.031127 0.228883
H358  H     H_    0.715097 0.894559 0.032328 0.189346
H359  H     H_    0.698518 0.826757 0.052188 0.193859
H360  H     H_    0.900390 0.212788 0.071423 0.266839
H361  H     H_    0.843054 0.279474 0.085422 0.269464
H362  H     H_    0.826426 0.183505 0.088950 0.259074
H363  H     H_    0.736505 0.228465 0.063434 0.224043
H364  H     H_    0.799716 0.174005 0.047531 0.224392
H365  H     H_    0.867130 0.291395 0.037774 0.197112
H366  H     H_    0.342817 0.844752 0.955100 0.177178
H367  H     H_    0.793978 0.342929 0.049297 0.201763
H368  H     H_    0.222850 0.083325 0.070142 0.265602
H369  H     H_    0.277240 0.149847 0.085110 0.271843
H370  H     H_    0.178813 0.150842 0.087168 0.256892
H371  H     H_    0.212918 0.246792 0.061976 0.234146
H372  H     H_    0.172134 0.175655 0.045471 0.236459
H373  H     H_    0.297287 0.127597 0.037170 0.197749
H374  H     H_    0.338904 0.203265 0.050218 0.199839
H375  H     H_    0.146646 0.686482 0.082691 0.275253
H376  H     H_    0.243133 0.675043 0.087650 0.264250
N1    N     N_R   0.487098 0.994083 0.156501 -0.342580
N2    N     N_3   0.201658 0.312277 0.916214 -0.455862
N3    N     N_3   0.701030 0.190902 0.915719 -0.470729
N4    N     N_3   0.775835 0.663356 0.917983 -0.457690
N5    N     N_3   0.661422 0.773281 0.917936 -0.468535
N6    N     N_3   0.807658 0.307828 0.916136 -0.484412
N7    N     N_3   0.315986 0.202460 0.916307 -0.471207
N8    N     N_3   0.183799 0.700696 0.916249 -0.485421
N9    N     N_3   0.834331 0.279689 0.417709 -0.458621
N10   N     N_3   0.515763 0.631178 0.527749 -0.493973
N11   N     N_3   0.152108 0.736905 0.420096 -0.461309
N12   N     N_R   0.002547 0.493830 0.156303 -0.344084
N13   N     N_3   0.335208 0.227395 0.415784 -0.473922
N14   N     N_3   0.219416 0.335562 0.416333 -0.483051
N15   N     N_3   0.261964 0.850878 0.420472 -0.470854
N16   N     N_3   0.629256 0.522670 0.531138 -0.490318
N17   N     N_3   0.718927 0.171256 0.417333 -0.474752
N18   N     N_3   0.398334 0.898795 0.131091 -0.474154
N19   N     N_3   0.075100 0.383545 0.131838 -0.471601
N20   N     N_3   0.577370 0.097122 0.135013 -0.470778
N21   N     N_3   0.926491 0.606121 0.133931 -0.467014
N22   N     N_3   0.870568 0.464530 0.632260 -0.468228
N23   N     N_R   0.000834 0.497616 0.656111 -0.342944
N24   N     N_3   0.593970 0.921777 0.635214 -0.474330
N25   N     N_3   0.131193 0.532135 0.632447 -0.466944
N26   N     N_3   0.394161 0.100241 0.630688 -0.475233
N27   N     N_R   0.488990 0.011161 0.656482 -0.343388
N28   N     N_R   0.000129 0.499297 0.843559 -0.342029
N29   N     N_R   0.498576 0.998656 0.843595 -0.353175
N30   N     N_R   0.490783 0.999805 0.343681 -0.353564
N31   N     N_R   0.000103 0.495524 0.343617 -0.346253
N32   N     N_3   0.290664 0.817359 0.915950 -0.474164
O1    O     O_3   0.500000 0.000000 0.999950 -0.468321
O2    O     O_R   0.500000 0.939340 0.450010 -0.646899
O3    O     O_R   0.060660 0.500000 0.450010 -0.648841
O4    O     O_R   0.500000 0.060660 0.450010 -0.653323
O5    O     O_R   0.500000 0.939280 0.049890 -0.644394
O6    O     O_R   0.060720 0.500000 0.049890 -0.647862
O7    O     O_R   0.500000 0.060720 0.049890 -0.657962
O8    O     O_R   0.939280 0.500000 0.049890 -0.656271
O9    O     O_R   0.000000 0.439280 0.549890 -0.644536
O10   O     O_R   0.560720 0.000000 0.549890 -0.653576
O11   O     O_R   1.000000 0.560720 0.549890 -0.659501
O12   O     O_3   1.000000 0.500000 0.999950 -0.468446
O13   O     O_R   0.439280 0.000000 0.549890 -0.649171
O14   O     O_R   0.646240 0.914580 0.986850 -0.639934
O15   O     O_R   0.085420 0.646240 0.986850 -0.640869
O16   O     O_R   0.353760 0.085420 0.986850 -0.639059
O17   O     O_R   0.914580 0.353760 0.986850 -0.639536
O18   O     O_R   0.353760 0.914580 0.986850 -0.636036
O19   O     O_R   0.914580 0.646240 0.986850 -0.632947
O20   O     O_R   0.646240 0.085420 0.986850 -0.638324
O21   O     O_R   0.085420 0.353760 0.986850 -0.631961
O22   O     O_R   0.146240 0.414580 0.486850 -0.645168
O23   O     O_3   1.000000 0.500000 0.499950 -0.472381
O24   O     O_R   0.585420 0.146240 0.486850 -0.636370
O25   O     O_R   0.853760 0.585420 0.486850 -0.638895
O26   O     O_R   0.414580 0.853760 0.486850 -0.639277
O27   O     O_R   0.853760 0.414580 0.486850 -0.642803
O28   O     O_R   0.414580 0.146240 0.486850 -0.638379
O29   O     O_R   0.146240 0.585420 0.486850 -0.636656
O30   O     O_R   0.585420 0.853760 0.486850 -0.642171
O31   O     O_R   0.414600 0.146170 0.013040 -0.650469
O32   O     O_R   0.853830 0.414600 0.013040 -0.647718
O33   O     O_R   0.585400 0.853830 0.013040 -0.645146
O34   O     O_3   0.500000 0.000000 0.499950 -0.468558
O35   O     O_R   0.146170 0.585400 0.013040 -0.657530
O36   O     O_R   0.585400 0.146170 0.013040 -0.665264
O37   O     O_R   0.146170 0.414600 0.013040 -0.665334
O38   O     O_R   0.414600 0.853830 0.013040 -0.665178
O39   O     O_R   0.853830 0.585400 0.013040 -0.664600
O40   O     O_R   0.914600 0.646170 0.513040 -0.648699
O41   O     O_R   0.353830 0.914600 0.513040 -0.661928
O42   O     O_R   0.085400 0.353830 0.513040 -0.651330
O43   O     O_R   0.646170 0.085400 0.513040 -0.651460
O44   O     O_R   0.085400 0.646170 0.513040 -0.647990
O45   O     O_R   0.439340 0.000000 0.950010 -0.652824
O46   O     O_R   0.646170 0.914600 0.513040 -0.654308
O47   O     O_R   0.914600 0.353830 0.513040 -0.644717
O48   O     O_R   0.353830 0.085400 0.513040 -0.661498
O49   O     O_2   0.378627 0.063040 0.156215 -0.579474
O50   O     O_2   0.900294 0.416479 0.155850 -0.577195
O51   O     O_2   0.595354 0.924830 0.156094 -0.581800
O52   O     O_2   0.104939 0.571001 0.155948 -0.577429
O53   O     O_2   0.949081 0.614784 0.655747 -0.581535
O54   O     O_2   0.423327 0.901277 0.655681 -0.577349
O55   O     O_2   0.052834 0.380583 0.655824 -0.577476
O56   O     O_R   0.000000 0.439340 0.950010 -0.648599
O57   O     O_2   0.554213 0.121369 0.656691 -0.581024
O58   O     O_2   0.896296 0.574656 0.843831 -0.592165
O59   O     O_2   0.504761 0.871150 0.842988 -0.585035
O60   O     O_2   0.104054 0.424069 0.843979 -0.592640
O61   O     O_2   0.492734 0.126120 0.845077 -0.583968
O62   O     O_2   0.362464 0.004079 0.344576 -0.585279
O63   O     O_2   0.943274 0.381117 0.344093 -0.588397
O64   O     O_2   0.619149 0.995735 0.343678 -0.584684
O65   O     O_2   0.053866 0.611374 0.343952 -0.590170
O66   O     O_R   0.560660 0.000000 0.950010 -0.650752
O67   O     O_R   1.000000 0.560660 0.950010 -0.646615
O68   O     O_R   0.939340 0.500000 0.450010 -0.644788
Zn1   Zn    Zn3+2 0.500000 0.913250 0.018650 0.938318
Zn2   Zn    Zn3+2 1.000000 0.586820 0.981240 0.962001
Zn3   Zn    Zn3+2 0.413180 0.000000 0.981240 0.963982
Zn4   Zn    Zn3+2 0.000000 0.413180 0.981240 0.966924
Zn5   Zn    Zn3+2 0.086820 0.500000 0.481240 0.960791
Zn6   Zn    Zn3+2 0.500000 0.086820 0.481240 0.962440
Zn7   Zn    Zn3+2 0.913180 0.500000 0.481240 0.960769
Zn8   Zn    Zn3+2 0.500000 0.913180 0.481240 0.959834
Zn9   Zn    Zn3+2 0.086750 0.500000 0.018650 0.932061
Zn10  Zn    Zn3+2 0.500000 0.086750 0.018650 0.929044
Zn11  Zn    Zn3+2 0.913250 0.500000 0.018650 0.935402
Zn12  Zn    Zn3+2 1.000000 0.413250 0.518650 0.942299
Zn13  Zn    Zn3+2 0.586750 1.000000 0.518650 0.933422
Zn14  Zn    Zn3+2 0.000000 0.586750 0.518650 0.930296
Zn15  Zn    Zn3+2 0.413250 1.000000 0.518650 0.933662
Zn16  Zn    Zn3+2 0.586820 0.000000 0.981240 0.960424

loop_
_geom_bond_atom_site_label_1
_geom_bond_atom_site_label_2
_ccdc_geom_bond_type
C135  C325  A    
C265  H209  S    
C287  H285  S    
C178  H348  S    
C132  C150  A    
C151  C197  S    
C36   C42   A    
C291  C292  S    
C133  C151  A    
C38   C321  A    
C107  C129  A    
C266  H208  S    
C159  O49   S    
C330  C365  A    
C105  C131  A    
C63   H223  S    
C367  O61   S    
C75   C107  A    
C339  C348  A    
C186  H362  S    
C9    C27   A    
C174  H343  S    
C254  H189  S    
C222  H72   S    
C232  H97   S    
C350  H318  S    
C75   H46   S    
C284  C285  S    
O41   Zn15  S    
C233  H95   S    
C64   H311  S    
C12   C287  S    
C52   O22   A    
C311  C333  S    
C36   C66   A    
C128  C145  A    
C321  C339  A    
C124  N1    S    
C236  H105  S    
C271  C272  S    
C178  H349  S    
C126  C143  A    
C112  C313  S    
C8    C26   A    
C108  C109  A    
C152  C200  S    
C274  C275  S    
C203  H25   S    
C74   C92   A    
C2    C90   A    
C182  C183  S    
C150  C194  S    
C361  C365  A    
C249  H171  S    
C76   C94   A    
C303  C316  S    
H244  N25   S    
C187  H374  S    
C202  H28   S    
C262  H203  S    
C109  C127  A    
C60   O30   A    
C90   C271  S    
C334  O13   A    
C78   C96   A    
C84   C117  A    
C198  H20   S    
C306  H224  S    
C111  C125  A    
C35   C254  S    
H150  N9    S    
C7    N31   A    
C185  H363  S    
C223  O3    A    
C85   C103  A    
H158  N13   S    
O19   Zn2   S    
C357  C364  A    
C38   C69   A    
C45   C130  S    
C61   C300  A    
C267  H219  S    
C193  H376  S    
C22   C317  A    
C62   C301  A    
C205  H36   S    
C368  O58   S    
C285  H275  S    
C234  C236  S    
C11   C284  S    
C332  O8    A    
C228  C229  S    
C211  H50   S    
C90   C312  A    
C216  H54   S    
C80   C121  A    
C25   H312  S    
C184  H365  S    
C189  H369  S    
C92   N5    S    
C202  C203  S    
C102  N15   S    
C261  H205  S    
C191  C192  S    
O35   Zn9   S    
C318  C335  A    
C238  C341  S    
H141  N5    S    
C54   O40   A    
O27   Zn7   S    
C53   O24   A    
C25   C317  A    
C287  H284  S    
C98   C102  A    
C239  H114  S    
C240  H110  S    
C124  C336  A    
C50   O20   A    
C260  H191  S    
O39   Zn11  S    
C303  O4    A    
O56   Zn4   S    
C227  H78   S    
C215  C216  S    
C229  C230  S    
C305  H212  S    
C209  H40   S    
C270  H215  S    
C333  O11   A    
C178  C180  S    
C266  H207  S    
C101  C311  A    
C328  C363  A    
C263  H199  S    
H139  N4    S    
C214  H61   S    
C343  C352  A    
C123  C141  A    
C52   C137  S    
C282  C283  S    
C253  H176  S    
O4    Zn6   S    
O1    Zn1   S    
C283  H264  S    
C83   H124  S    
C163  N23   A    
C47   O32   A    
C228  H92   S    
C352  C361  A    
C320  C338  A    
C264  H213  S    
C97   C103  A    
H241  N24   S    
C310  C332  S    
C33   C326  A    
C68   C251  S    
C198  C199  S    
C160  C224  A    
C319  C337  A    
C350  C359  A    
C180  H345  S    
C231  H98   S    
C83   C100  A    
C96   C104  A    
C7    O63   S    
C248  H173  S    
C107  C110  A    
C131  C149  A    
C298  C299  S    
C342  C351  A    
C68   C347  A    
C75   C93   A    
C16   C25   A    
C106  C130  A    
C281  H269  S    
C277  H261  S    
C213  H47   S    
O30   Zn8   S    
O10   Zn13  S    
C85   C116  A    
C80   H90   S    
H154  N11   S    
O18   Zn3   S    
O6    Zn9   S    
C289  H281  S    
C144  C145  A    
C188  H372  S    
C221  H73   S    
C218  H66   S    
C288  H282  S    
C112  O56   A    
C36   C319  A    
C191  H7    S    
C290  C308  A    
C119  C136  A    
C170  H323  S    
C359  C365  A    
C172  H334  S    
C166  N27   A    
C89   N3    S    
C57   C309  A    
C217  C218  S    
C175  C176  S    
O43   Zn13  S    
C8    C17   A    
C200  H30   S    
C136  C153  A    
C66   C306  A    
C16   C29   A    
C300  H168  S    
C2    C157  A    
C16   C297  S    
C29   N31   S    
C77   C95   A    
H237  N21   S    
C238  H115  S    
C230  H86   S    
O33   Zn1   S    
C96   N9    S    
C129  C147  A    
C100  N14   S    
C293  H286  S    
C295  H298  S    
C322  C340  A    
C71   C88   A    
C297  C298  S    
C226  H82   S    
C21   C316  A    
C200  C202  S    
C30   C61   A    
O14   Zn16  S    
C243  H118  S    
C206  H33   S    
C165  N23   A    
C173  H330  S    
C272  H227  S    
C71   H2    S    
C252  C253  S    
C216  H56   S    
C195  H11   S    
C196  H9    S    
H230  N18   S    
C184  H367  S    
O12   Zn11  S    
C162  C246  A    
C80   C97   A    
C237  H100  S    
C84   C102  A    
C292  H291  S    
H136  N2    S    
C227  H80   S    
O34   Zn6   S    
C73   H24   S    
C86   C104  A    
C46   C310  A    
H242  N24   S    
C234  H107  S    
C15   C28   A    
C312  C334  S    
C167  C169  S    
C157  N27   S    
C244  C245  S    
C183  H354  S    
C208  H42   S    
C249  C250  S    
C225  C337  S    
C47   C129  S    
C303  O2    A    
O45   Zn3   S    
C79   C311  A    
C60   O46   A    
C261  C262  S    
C250  H169  S    
C278  C280  S    
H148  N8    S    
C44   O15   A    
C282  H267  S    
C145  C181  S    
C37   C320  A    
C184  C185  S    
C24   N24   S    
O34   Zn15  S    
O1    Zn3   S    
C148  C187  S    
O47   Zn12  S    
O21   Zn4   S    
C174  C175  S    
C175  H341  S    
C112  O67   A    
C140  C158  A    
O48   Zn15  S    
C247  H125  S    
C274  H254  S    
C219  H62   S    
C264  C265  S    
C3    N29   A    
C280  H256  S    
C137  C154  A    
O8    Zn11  S    
C69   H355  S    
C235  C302  A    
C286  H273  S    
H134  N2    S    
C344  C353  A    
C340  C349  A    
C215  H59   S    
C256  H185  S    
C277  C278  S    
C368  N28   A    
C294  H299  S    
C159  N1    A    
O29   Zn5   S    
C264  H211  S    
C236  H104  S    
O26   Zn8   S    
C241  C342  S    
C348  H316  S    
O36   Zn10  S    
C70   C87   A    
O1    Zn16  S    
C220  C221  S    
H163  N16   S    
C106  C111  A    
H236  N20   S    
C88   C94   A    
C149  C191  S    
C33   C40   A    
C170  H321  S    
C171  H335  S    
C269  H218  S    
C58   O48   A    
C67   H344  S    
C146  C358  A    
C297  H308  S    
C91   C92   A    
C22   H309  S    
C353  C368  A    
C211  H51   S    
C24   C157  A    
C272  C273  S    
C329  C364  A    
C197  H21   S    
C324  C329  A    
C355  C366  A    
H144  N6    S    
C284  H277  S    
C87   C95   A    
C86   C115  A    
C237  H103  S    
C302  H190  S    
C280  H258  S    
C221  C222  S    
C56   O47   A    
C35   C309  A    
C341  C350  A    
C54   C139  S    
C161  C235  A    
H159  N14   S    
C294  H300  S    
C247  H127  S    
C225  H83   S    
C182  H356  S    
C304  H201  S    
O20   Zn16  S    
H243  N25   S    
C206  H31   S    
C108  C128  A    
C199  H18   S    
C162  O52   S    
C298  H305  S    
C193  H3    S    
C98   N11   S    
C210  H52   S    
C204  H37   S    
C288  H283  S    
O7    Zn10  S    
C192  H4    S    
C114  C123  A    
C198  H19   S    
C110  C126  A    
C168  C235  A    
H247  N26   S    
C20   H290  S    
C193  H375  S    
C14   C29   A    
H140  N4    S    
C175  H340  S    
C351  C360  A    
C348  C356  A    
H143  N6    S    
C243  H119  S    
C6    C357  A    
C250  H170  S    
C265  H210  S    
C322  C329  A    
C356  C363  A    
C76   C106  A    
O23   Zn12  S    
C194  H14   S    
C245  H129  S    
C345  H314  S    
O38   Zn1   S    
C262  C263  S    
H160  N14   S    
C163  C257  A    
C59   C134  S    
C231  H99   S    
C166  O57   S    
C179  C224  A    
C32   C324  A    
O34   Zn13  S    
C14   C22   A    
C1    C315  S    
C258  C259  S    
C220  H75   S    
C233  H94   S    
C349  H317  S    
C336  N18   S    
C156  C214  S    
C56   O27   A    
C185  H364  S    
C244  C343  S    
C37   C67   A    
O2    Zn8   S    
C70   H366  S    
C259  H194  S    
C171  H336  S    
C347  N19   S    
C120  C134  A    
C95   N8    S    
C69   C308  A    
C89   C93   A    
C197  C198  S    
C82   H113  S    
C169  H326  S    
C77   H68   S    
C219  H63   S    
C251  H181  S    
C9    C18   A    
C209  H41   S    
C204  C205  S    
C245  H128  S    
C63   C302  A    
C4    N30   A    
C226  C227  S    
C327  C362  A    
H147  N7    S    
C14   C291  S    
C239  H111  S    
H137  N3    S    
C160  O50   S    
C115  C140  A    
C257  C305  A    
C255  C256  S    
C55   O26   A    
C142  C171  S    
C284  H276  S    
C147  C184  S    
H231  N18   S    
C15   C294  S    
C46   C258  S    
C201  C290  A    
O17   Zn4   S    
C82   C99   A    
O44   Zn14  S    
C285  H274  S    
C31   C62   A    
C34   C318  A    
C281  H270  S    
C180  H347  S    
C68   C310  A    
C48   C123  S    
C272  H226  S    
H138  N3    S    
C244  H131  S    
C17   H257  S    
C251  C252  S    
C355  C362  A    
C181  C182  S    
H145  N7    S    
C255  H186  S    
C164  C268  A    
C173  H329  S    
C30   C322  A    
C12   C28   A    
O32   Zn11  S    
C278  H259  S    
C196  H8    S    
C239  C240  S    
C48   O38   A    
C54   O25   A    
C294  C295  S    
C81   C98   A    
H161  N15   S    
H156  N13   S    
O9    Zn12  S    
H233  N19   S    
C4    O64   S    
O23   Zn7   S    
C31   C40   A    
C260  H192  S    
C32   C39   A    
C39   C168  A    
C6    O62   S    
C261  H204  S    
C97   N10   S    
C209  H39   S    
C270  H216  S    
C3    O59   S    
C78   H79   S    
C208  C209  S    
C46   C325  A    
C186  H360  S    
C326  C330  A    
C256  H183  S    
C298  H306  S    
C276  H248  S    
C204  H38   S    
C283  H263  S    
C176  H337  S    
C116  C139  A    
C27   N29   S    
C194  C195  S    
C240  H108  S    
C246  C304  A    
O40   Zn14  S    
C269  C270  S    
C248  H174  S    
C183  H352  S    
C3    C354  A    
C9    C277  S    
C309  C331  S    
C34   C41   A    
C331  O7    A    
C82   C119  A    
C57   C248  S    
O68   Zn7   S    
C59   O44   A    
C227  H77   S    
C252  H178  S    
C291  H292  S    
O3    Zn5   S    
C366  O60   S    
C11   C20   A    
C186  H361  S    
O5    Zn1   S    
C141  C167  S    
C174  H342  S    
C190  C279  A    
C223  C317  S    
C251  H182  S    
C141  C149  A    
C207  C208  S    
C324  C342  A    
C254  H188  S    
O46   Zn13  S    
C222  H71   S    
H238  N21   S    
C349  C357  A    
C295  C296  S    
C51   O37   A    
C48   O18   A    
C67   C307  A    
C195  C196  S    
C91   N4    S    
C70   C114  A    
C159  C212  A    
C177  H351  S    
C170  H324  S    
C20   C315  A    
C113  C264  S    
C275  H251  S    
C86   H157  S    
C247  H126  S    
C254  C255  S    
C249  H172  S    
C105  C114  A    
C23   H310  S    
C202  H27   S    
C292  H289  S    
C167  H328  S    
C59   O29   A    
C152  C155  A    
C93   N6    S    
C299  H302  S    
C134  C152  A    
H245  N26   S    
H151  N9    S    
C242  C243  S    
C301  H179  S    
O34   Zn8   S    
C6    N30   A    
C323  C330  A    
C229  H89   S    
C151  C156  A    
C160  N12   A    
C31   C323  A    
O25   Zn7   S    
C56   C132  S    
C208  H43   S    
H232  N19   S    
C167  H327  S    
C76   H57   S    
C165  O55   S    
C267  H220  S    
C245  C247  S    
C52   O42   A    
C117  C120  A    
C162  N12   A    
C346  C355  A    
C179  C246  A    
C88   N2    S    
C248  C249  S    
C10   C281  S    
C196  H10   S    
C138  C155  A    
C351  H319  S    
C238  C239  S    
C173  H331  S    
C150  C158  A    
C307  H235  S    
H142  N5    S    
C84   H135  S    
C289  H278  S    
C155  C210  S    
C192  H5    S    
C212  C300  A    
C117  C138  A    
C43   C128  S    
C268  C306  A    
C353  C362  A    
C79   C358  A    
C73   C109  A    
C85   H146  S    
C183  H353  S    
C321  C328  A    
O24   Zn6   S    
C240  H109  S    
O23   Zn5   S    
O12   Zn2   S    
C345  C354  A    
C271  H229  S    
C135  C347  A    
C77   C105  A    
H240  N22   S    
C187  C188  S    
C220  C335  S    
C192  C193  S    
C61   H1    S    
C267  C269  S    
C185  C186  S    
C266  H206  S    
C43   O14   A    
C263  H200  S    
C181  H359  S    
C158  C217  S    
C214  H60   S    
C13   N22   S    
C278  H260  S    
C232  C233  S    
C318  C327  A    
C276  H250  S    
C127  C144  A    
C176  H339  S    
C228  H91   S    
C286  H272  S    
C229  H88   S    
C177  H350  S    
C74   C108  A    
C222  H70   S    
C74   H35   S    
C26   N28   S    
C144  C177  S    
C356  C367  A    
C177  C178  S    
C65   H322  S    
C164  N27   A    
C17   C313  A    
C259  H195  S    
C331  O5    A    
C143  C174  S    
C223  O68   A    
C166  C290  A    
C19   H279  S    
C60   C133  S    
C172  H332  S    
C18   H268  S    
C252  H180  S    
C171  C172  S    
C277  H262  S    
C283  H265  S    
C213  H48   S    
C101  C261  S    
C146  N23   S    
C64   C304  A    
C53   C140  S    
H155  N11   S    
C169  C170  S    
C168  C212  A    
C189  H370  S    
C188  H371  S    
C221  H74   S    
C273  H221  S    
C189  H368  S    
C296  H294  S    
C205  C206  S    
C236  C237  S    
C44   C131  S    
C143  C147  A    
C280  H255  S    
C81   C120  A    
C285  C286  S    
C55   C138  S    
C258  H196  S    
C41   C190  A    
C53   O43   A    
C83   C118  A    
C292  C293  S    
C269  H217  S    
C253  H175  S    
C276  H249  S    
C242  H121  S    
C180  H346  S    
C297  H307  S    
C200  H29   S    
C293  H288  S    
C244  H130  S    
C230  H85   S    
C334  O10   A    
C255  H187  S    
C40   C179  A    
C66   H333  S    
C241  C242  S    
C237  H102  S    
C320  C327  A    
O66   Zn16  S    
C262  H202  S    
C118  C119  A    
C50   O36   A    
C344  H313  S    
C352  H320  S    
C286  H271  S    
C279  C307  A    
H162  N15   S    
C287  C288  S    
C226  H81   S    
O28   Zn6   S    
C308  H246  S    
C258  H197  S    
C71   C111  A    
C30   C39   A    
C182  H357  S    
C79   C267  S    
C299  H303  S    
C203  H26   S    
C50   C126  S    
C201  C268  A    
C11   C27   A    
C199  H17   S    
C118  C137  A    
C47   O17   A    
C265  C266  S    
C10   C19   A    
C358  N25   S    
O42   Zn12  S    
C260  H193  S    
C216  H55   S    
C58   O28   A    
C195  H12   S    
C45   O16   A    
C15   C23   A    
C43   O33   A    
C73   C91   A    
C24   C113  A    
C115  C122  A    
H165  N17   S    
C37   C41   A    
C45   O31   A    
C190  C257  A    
C23   C316  A    
C13   C146  A    
C165  C279  A    
C326  C343  A    
C4    C360  A    
C34   C65   A    
C122  C132  A    
C335  C344  A    
C234  H106  S    
C273  H225  S    
C5    O65   S    
C49   C127  S    
C72   C110  A    
C44   O35   A    
C113  C312  A    
O12   Zn4   S    
C130  C148  A    
C51   C125  S    
C142  C148  A    
C18   C315  A    
C49   O39   A    
C194  H15   S    
C218  H65   S    
H166  N17   S    
C241  H123  S    
C214  C215  S    
C5    C361  A    
C224  C301  A    
C291  H293  S    
C263  H198  S    
C58   C136  S    
C281  C282  S    
C230  H87   S    
H133  N32   S    
H234  N20   S    
C12   C21   A    
C49   O19   A    
C354  C363  A    
C217  H69   S    
C188  C189  S    
C187  H373  S    
C135  N12   S    
C207  H45   S    
O37   Zn9   S    
C220  H76   S    
C233  H93   S    
O1    Zn10  S    
C55   O41   A    
C94   N7    S    
O16   Zn3   S    
C314  N20   S    
C99   C100  A    
H239  N22   S    
C274  H253  S    
H152  N10   S    
C125  C142  A    
O23   Zn14  S    
C234  C340  S    
O12   Zn9   S    
C225  C226  S    
C325  N21   S    
C161  O51   S    
C19   C313  A    
C271  H228  S    
C169  H325  S    
C181  H358  S    
C65   C305  A    
C1    O66   A    
C270  H214  S    
C211  C213  S    
C275  C276  S    
C295  H297  S    
C273  H222  S    
C299  H304  S    
C206  H32   S    
C232  H96   S    
C366  N28   A    
C164  O54   S    
C99   N13   S    
C13   C101  A    
C259  C260  S    
C360  C364  A    
C172  C173  S    
C296  H296  S    
C256  H184  S    
O13   Zn15  S    
H149  N8    S    
C215  H58   S    
C191  H6    S    
C1    O45   A    
C367  N29   A    
C104  N17   S    
H153  N10   S    
C2    N26   S    
C205  H34   S    
C51   O21   A    
C81   H101  S    
C154  C207  S    
C32   C63   A    
C210  H53   S    
C332  O6    A    
C346  H315  S    
C219  H64   S    
C35   C314  A    
C289  H280  S    
C197  H22   S    
H132  N32   S    
C62   H112  S    
C87   N32   S    
C213  H49   S    
C72   H13   S    
C103  N16   S    
C338  C346  A    
C253  H177  S    
C121  C133  A    
C288  C289  S    
C153  C204  S    
O22   Zn5   S    
C217  H67   S    
C207  H44   S    
C337  C345  A    
C163  O53   S    
O11   Zn14  S    
C7    C359  A    
C250  H167  S    
C21   H301  S    
C72   C89   A    
C57   C336  A    
C10   C26   A    
C218  C219  S    
C323  C341  A    
C282  H266  S    
C139  C156  A    
C33   C64   A    
C28   N30   S    
C124  C314  A    
C225  H84   S    
C228  C338  S    
C293  H287  S    
C238  H116  S    
O15   Zn2   S    
C242  H120  S    
C241  H122  S    
C78   C122  A    
O67   Zn2   S    
C203  H23   S    
C199  H16   S    
C243  H117  S    
C38   C42   A    
C333  O9    A    
H164  N16   S    
C275  H252  S    
C161  N1    A    
C319  C328  A    
C296  H295  S    
C210  C211  S    
C231  C339  S    
C231  C232  S    
C5    N31   A    
C42   C201  A    
C116  C121  A    
O31   Zn10  S    
C176  H338  S    
C153  C154  A    
C8    C274  S    
