data_mof_unit_58575.cif
_audit_creation_date              2013-03-05T15:48:06-0500
_audit_creation_method            fapswitch 2.2
_symmetry_space_group_name_H-M    P1
_symmetry_Int_Tables_number       1
_space_group_crystal_system       triclinic
_cell_length_a                    15.096176
_cell_length_b                    13.082288
_cell_length_c                    11.706991
_cell_angle_alpha                 101.194801
_cell_angle_beta                  93.879038
_cell_angle_gamma                 91.158209
_cell_volume                      2261.54166739

loop_
_atom_site_label
_atom_site_type_symbol
_atom_site_description
_atom_site_fract_x
_atom_site_fract_y
_atom_site_fract_z
_atom_type_partial_charge
O1    O     O_R   0.504720 0.354460 0.582000 -0.583879
O2    O     O_R   0.495280 0.645540 0.418000 -0.579681
O3    O     O_R   0.493480 0.341410 0.386200 -0.497280
O4    O     O_R   0.506520 0.658590 0.613800 -0.572927
C1    C     C_R   0.495367 0.298610 0.477034 0.930792
C2    C     C_R   0.504042 0.701351 0.522938 0.921542
O5    O     O_R   0.375880 0.506510 0.597910 -0.587936
O6    O     O_R   0.624120 0.493490 0.402090 -0.576682
O7    O     O_R   0.364640 0.493450 0.402110 -0.517047
O8    O     O_R   0.635360 0.506550 0.597890 -0.571349
C3    C     C_R   0.329054 0.499604 0.500106 0.923335
C4    C     C_R   0.671069 0.500954 0.499993 0.912749
Cu1   Cu    Cu3+1 0.506660 0.507730 0.615930 1.071245
Cu2   Cu    Cu3+1 0.493340 0.492270 0.384070 1.117814
C5    C     C_R   0.817470 0.593739 0.542016 0.305900
C6    C     C_R   0.185423 0.406564 0.499557 0.313290
C7    C     C_R   0.767684 0.500922 0.500183 -0.277790
C8    C     C_R   0.232636 0.499740 0.500217 -0.287147
C9    C     C_R   0.809606 0.407437 0.460838 0.287157
C10   C     C_R   0.188713 0.592753 0.499425 0.294273
C11   C     C_R   0.903356 0.404358 0.473860 -0.096022
C12   C     C_R   0.096258 0.595836 0.512544 -0.094578
C13   C     C_R   0.953556 0.500128 0.501764 -0.076744
C14   C     C_R   0.047069 0.500053 0.501282 -0.081771
C15   C     C_R   0.910040 0.596009 0.530195 -0.028494
C16   C     C_R   0.091477 0.404164 0.489146 -0.026622
C17   C     C_R   0.947983 0.308825 0.459445 0.233406
C18   C     C_R   0.051870 0.691400 0.536198 0.236712
C19   C     C_R   0.041559 0.308730 0.468277 0.383126
C20   C     C_R   0.959330 0.691502 0.546334 0.382066
C21   C     C_R   0.508017 0.816075 0.538831 -0.277870
C22   C     C_R   0.490896 0.183775 0.461316 -0.290003
C23   C     C_R   0.517657 0.012030 0.346158 0.455153
C24   C     C_R   0.480230 0.987541 0.653825 0.458481
C25   C     C_R   0.507618 0.119828 0.353671 0.202499
C26   C     C_R   0.487345 0.879313 0.645225 0.195741
C27   C     C_R   0.472762 0.137815 0.557145 0.445405
C28   C     C_R   0.527996 0.862501 0.443916 0.453247
C29   C     C_R   0.487841 0.031478 0.553196 -0.120147
C30   C     C_R   0.511266 0.968419 0.447225 -0.117602
N1    N     N_R   0.516670 0.519360 0.790130 -0.277009
N2    N     N_R   0.483330 0.480640 0.209870 -0.228710
C31   C     C_R   0.406554 0.411127 0.020571 0.174362
C32   C     C_R   0.596663 0.580716 0.980012 0.276487
C33   C     C_R   0.417622 0.417483 0.144096 0.582958
C34   C     C_R   0.585832 0.576599 0.858579 0.544502
C35   C     C_R   0.541298 0.534672 0.157633 0.079610
C36   C     C_R   0.457886 0.465181 0.842351 0.088334
C37   C     C_R   0.535623 0.527302 0.034675 -0.178013
C38   C     C_R   0.466188 0.466989 0.965164 -0.121343
H1    H     H_    0.404700 0.419927 0.787780 0.197422
H2    H     H_    0.591611 0.584198 0.212941 0.192712
N3    N     N_R   0.774017 0.683856 0.599996 0.171001
O9    O     O_R   0.712477 0.726796 0.544122 -0.390718
O10   O     O_R   0.797096 0.723973 0.708840 -0.215418
N4    N     N_R   0.233864 0.315769 0.512352 0.141045
O11   O     O_R   0.282902 0.271798 0.430686 -0.328273
O12   O     O_R   0.228664 0.277100 0.606133 -0.271532
N5    N     N_R   0.334553 0.349695 0.952976 0.104769
O13   O     O_R   0.252874 0.374814 0.970006 -0.279347
O14   O     O_R   0.350407 0.265690 0.878541 -0.226790
N6    N     N_R   0.670831 0.639497 0.046478 0.156069
O15   O     O_R   0.686221 0.735894 0.038113 -0.188061
O16   O     O_R   0.728266 0.593652 0.105703 -0.301885
N7    N     N_R   0.756487 0.317720 0.403314 0.162418
O17   O     O_R   0.762544 0.281783 0.292550 -0.222297
O18   O     O_R   0.698535 0.275892 0.459299 -0.328992
N8    N     N_R   0.237959 0.681377 0.478396 0.149464
O19   O     O_R   0.225175 0.710789 0.378779 -0.255640
O20   O     O_R   0.302161 0.724992 0.552492 -0.310777
N9    N     N_R   0.899296 0.211160 0.443273 0.145619
O21   O     O_R   0.863509 0.184061 0.531433 -0.256213
O22   O     O_R   0.902332 0.143219 0.346477 -0.218424
N10   N     N_R   0.100553 0.789315 0.557088 0.144396
O23   O     O_R   0.144869 0.822114 0.657209 -0.235070
O24   O     O_R   0.089684 0.852116 0.483990 -0.228948
O25   O     O_3   0.085445 0.215717 0.450671 -0.591766
H3    H     H_    0.047949 0.159417 0.469838 0.391067
O26   O     O_3   0.914848 0.784145 0.564874 -0.601577
H4    H     H_    0.955848 0.842838 0.602134 0.388361
O27   O     O_3   0.564767 0.805672 0.347517 -0.600654
H5    H     H_    0.608888 0.759079 0.374747 0.355102
O28   O     O_3   0.438231 0.195493 0.654616 -0.575948
H6    H     H_    0.393476 0.241648 0.628032 0.365871
N11   N     N_R   0.472051 0.834304 0.744766 0.131451
O29   O     O_R   0.538342 0.826017 0.819010 -0.302675
O30   O     O_R   0.391274 0.822542 0.773571 -0.232883
N12   N     N_R   0.510807 0.162813 0.250325 0.138184
O31   O     O_R   0.442776 0.149245 0.174001 -0.282436
O32   O     O_R   0.585920 0.198216 0.222835 -0.244479
O33   O     O_3   0.531955 0.947278 0.240812 -0.580178
H7    H     H_    0.546087 0.988109 0.181292 0.387248
O34   O     O_3   0.465603 0.051984 0.759253 -0.568094
H8    H     H_    0.472156 0.014193 0.824548 0.386173
O35   O     O_3   0.650130 0.627992 0.811616 -0.615081
H9    H     H_    0.622279 0.653810 0.745262 0.390754
O36   O     O_3   0.363819 0.360316 0.201011 -0.628406
H10   H     H_    0.326333 0.309099 0.143802 0.379900

loop_
_geom_bond_atom_site_label_1
_geom_bond_atom_site_label_2
_geom_bond_distance
_ccdc_geom_bond_type
C32   C37   1.405102 A    
O25   H3    0.988806 S    
C3    C8    1.455667 S    
O34   H8    0.988438 S    
C17   C19   1.409460 A    
O35   H9    0.978625 S    
C24   O34   1.386812 S    
C18   N10   1.434133 S    
Cu1   N1    2.010439 S    
O36   H10   0.988378 S    
C35   C37   1.420494 A    
N3    O9    1.299256 A    
O5    C3    1.290968 A    
N10   O24   1.301416 A    
O1    C1    1.299055 A    
C5    N3    1.435860 S    
C9    C11   1.415399 A    
C14   C16   1.421595 A    
C23   O33   1.386692 S    
C5    C15   1.413848 A    
N4    O11   1.300927 A    
O4    Cu1   1.978628 S    
N6    O16   1.301289 A    
C23   C25   1.407762 A    
C36   H1    1.080656 S    
C34   O35   1.373264 S    
N8    O19   1.300821 A    
N7    O18   1.300717 A    
C4    C7    1.458378 S    
N1    C34   1.383889 A    
C8    C10   1.398774 A    
C31   N5    1.433495 S    
Cu2   N2    2.010436 S    
C1    C22   1.477223 S    
C36   C38   1.430301 A    
C2    C21   1.475539 S    
C11   C17   1.418398 A    
N5    O13   1.300898 A    
C12   C18   1.418886 A    
Cu1   Cu2   2.675921 S    
O2    C2    1.298325 A    
C32   C34   1.410349 A    
O27   H5    0.989913 S    
N3    O10   1.301298 A    
C6    C16   1.414403 A    
N5    O14   1.300530 A    
C23   C30   1.417779 A    
N10   O23   1.300979 A    
N11   O30   1.301003 A    
C24   C29   1.417742 A    
C22   C25   1.412052 A    
O4    C2    1.293194 A    
C29   C30   1.420724 A    
N9    O22   1.301464 A    
C32   N6    1.437155 S    
N11   O29   1.300755 A    
N2    C33   1.369683 A    
O7    Cu2   1.968522 S    
C6    N4    1.434377 S    
N6    O15   1.301192 A    
C31   C33   1.430417 A    
C25   N12   1.432940 S    
O28   H6    0.989412 S    
O6    C4    1.292032 A    
C22   C27   1.411342 A    
O7    C3    1.288606 A    
O3    Cu2   1.978630 S    
O8    C4    1.289213 A    
C20   O26   1.384705 S    
N8    O20   1.299653 A    
C10   C12   1.414959 A    
N7    O17   1.300738 A    
C11   C13   1.421252 A    
C28   O27   1.382073 S    
C12   C14   1.422647 A    
O1    Cu1   1.966199 S    
O33   H7    0.988130 S    
C17   N9    1.434512 S    
C15   C20   1.414852 A    
C5    C7    1.400559 A    
O6    Cu2   1.970686 S    
C10   N8    1.434666 S    
N12   O32   1.299953 A    
O3    C1    1.293398 A    
O8    Cu1   1.968522 S    
C31   C38   1.414820 A    
C35   H2    1.080090 S    
C26   N11   1.433642 S    
C21   C28   1.412277 A    
C18   C20   1.410011 A    
N9    O21   1.300978 A    
C27   C29   1.406573 A    
C33   O36   1.380268 S    
C28   C30   1.407105 A    
C7    C9    1.400140 A    
N1    C36   1.371076 A    
N4    O12   1.301208 A    
C9    N7    1.433911 S    
C24   C26   1.406641 A    
N2    C35   1.361860 A    
C13   C15   1.420030 A    
O2    Cu2   1.966201 S    
C13   C14   1.412104 A    
O26   H4    0.988513 S    
O5    Cu1   1.970683 S    
C19   O25   1.384108 S    
N12   O31   1.300585 A    
C16   C19   1.415950 A    
C6    C8    1.397990 A    
C37   C38   1.409030 A    
C21   C26   1.412840 A    
C27   O28   1.380306 S    
