data_mof_unit_54245.cif
_audit_creation_date              2012-12-11T16:28:02-0500
_audit_creation_method            fapswitch 2.2
_symmetry_space_group_name_H-M    P1
_symmetry_Int_Tables_number       1
_space_group_crystal_system       triclinic
_cell_length_a                    30.122609
_cell_length_b                    22.570447
_cell_length_c                    18.034762
_cell_angle_alpha                 90.056729
_cell_angle_beta                  122.647434
_cell_angle_gamma                 90.151282
_cell_volume                      10324.1684911

loop_
_atom_site_label
_atom_site_type_symbol
_atom_type_description
_atom_site_fract_x
_atom_site_fract_y
_atom_site_fract_z
_atom_type_partial_charge
C1    C     C_R   0.542805 0.582816 0.740312 -0.140791
C2    C     C_R   0.634266 0.284302 0.418618 -0.167246
C3    C     C_R   0.793620 0.626223 0.044864 -0.341233
C4    C     C_R   0.289595 0.852977 0.017319 -0.340147
C5    C     C_R   0.708117 0.135505 0.967932 -0.342008
C6    C     C_R   0.754378 0.734433 0.153702 -0.340234
C7    C     C_R   0.246706 0.254106 0.862514 -0.363714
C8    C     C_R   0.800543 0.233092 0.898239 0.503632
C9    C     C_R   0.199022 0.760601 0.095702 0.526158
C10   C     C_R   0.156100 0.348271 0.937819 0.562801
C11   C     C_R   0.846614 0.641146 0.080840 0.562211
C12   C     C_R   0.339234 0.832589 0.040562 0.562795
C13   C     C_R   0.633144 0.719355 0.424353 -0.164324
C14   C     C_R   0.656524 0.152705 0.938090 0.562064
C15   C     C_R   0.700960 0.722594 0.114494 0.502732
C16   C     C_R   0.299189 0.268960 0.895227 0.525099
C17   C     C_R   0.578008 0.608212 0.426474 -0.122777
C18   C     C_R   0.404788 0.418411 0.574689 -0.134493
C19   C     C_R   0.423035 0.607719 0.575518 -0.125903
C20   C     C_R   0.577502 0.392741 0.424290 -0.125983
C21   C     C_R   0.077980 0.106926 0.424485 -0.124138
C22   C     C_R   0.906058 0.917413 0.576214 -0.123520
C23   C     C_R   0.904795 0.081218 0.574881 -0.132731
C24   C     C_R   0.315073 0.366179 0.581784 -0.171419
C25   C     C_R   0.095035 0.918094 0.425222 -0.140346
C26   C     C_R   0.385620 0.592200 0.266787 -0.135513
C27   C     C_R   0.611750 0.401772 0.725893 -0.132887
C28   C     C_R   0.616969 0.584204 0.741151 -0.141262
C29   C     C_R   0.383424 0.414007 0.260602 -0.123325
C30   C     C_R   0.883611 0.086336 0.261193 -0.123908
C31   C     C_R   0.115820 0.912388 0.737653 -0.125708
C32   C     C_R   0.111728 0.098605 0.725988 -0.132856
C33   C     C_R   0.892949 0.892475 0.292575 -0.125851
C34   C     C_R   0.595045 0.600397 0.789107 0.060636
C35   C     C_R   0.815459 0.133918 0.582430 -0.170403
C36   C     C_R   0.405421 0.398300 0.212300 0.058340
C37   C     C_R   0.410046 0.616153 0.226354 0.056793
C38   C     C_R   0.584500 0.372286 0.757681 0.052306
C39   C     C_R   0.084455 0.127815 0.757986 0.053511
C40   C     C_R   0.920888 0.860698 0.264515 0.049403
C41   C     C_R   0.905713 0.102401 0.213173 0.058785
C42   C     C_R   0.093143 0.895110 0.784542 0.055197
C43   C     C_R   0.614590 0.640745 0.499853 0.031358
C44   C     C_R   0.355147 0.404885 0.502528 0.036683
C45   C     C_R   0.385633 0.639810 0.503264 0.034927
C46   C     C_R   0.183578 0.861934 0.418619 -0.170814
C47   C     C_R   0.615608 0.361161 0.496410 0.031587
C48   C     C_R   0.116301 0.138477 0.496726 0.033970
C49   C     C_R   0.856183 0.904404 0.505254 0.039334
C50   C     C_R   0.855139 0.094430 0.502921 0.036515
C51   C     C_R   0.144395 0.904060 0.497271 0.037525
C52   C     C_R   0.322321 0.789878 0.434043 -0.179117
C53   C     C_R   0.678320 0.210753 0.566267 -0.186580
C54   C     C_R   0.681085 0.789561 0.576260 -0.177584
C55   C     C_R   0.213925 0.379683 0.431634 -0.180510
C56   C     C_R   0.714150 0.120355 0.432399 -0.177845
C57   C     C_R   0.135845 0.214339 0.419240 -0.169129
C58   C     C_R   0.285211 0.878869 0.566589 -0.181148
C59   C     C_R   0.176737 0.290497 0.564215 -0.180994
C60   C     C_R   0.716602 0.882425 0.445038 -0.173862
C61   C     C_R   0.345706 0.736816 0.433845 -0.160194
C62   C     C_R   0.655526 0.264301 0.566380 -0.163421
C63   C     C_R   0.656433 0.736665 0.573882 -0.161031
C64   C     C_R   0.257460 0.400974 0.432087 -0.164571
C65   C     C_R   0.757471 0.098471 0.432869 -0.163312
C66   C     C_R   0.241893 0.900285 0.566445 -0.166250
C67   C     C_R   0.154687 0.236443 0.565171 -0.159598
C68   C     C_R   0.819216 0.860322 0.586270 -0.171511
C69   C     C_R   0.759319 0.903431 0.442711 -0.154584
C70   C     C_R   0.366076 0.698473 0.506201 0.142656
C71   C     C_R   0.635329 0.302466 0.493840 0.146751
C72   C     C_R   0.634473 0.699932 0.499197 0.144584
C73   C     C_R   0.308569 0.391274 0.505594 0.143467
C74   C     C_R   0.808695 0.108246 0.506256 0.144258
C75   C     C_R   0.190624 0.889271 0.493985 0.144383
C76   C     C_R   0.136013 0.197135 0.493957 0.142556
C77   C     C_R   0.810887 0.889812 0.511452 0.137048
C78   C     C_3   0.819071 0.245229 0.792789 0.235440
C79   C     C_R   0.343105 0.768642 0.581229 -0.162691
C80   C     C_3   0.853776 0.278485 0.769193 -0.870739
C81   C     C_3   0.192332 0.743071 0.215054 0.256913
C82   C     C_3   0.208167 0.685577 0.267256 -0.895139
C83   C     C_3   0.130008 0.365970 0.033928 0.277211
C84   C     C_3   0.173053 0.401072 0.112623 -0.968454
C85   C     C_3   0.875912 0.625754 0.988566 0.268493
C86   C     C_3   0.833944 0.592811 0.906075 -0.950119
C87   C     C_3   0.361396 0.848814 0.939042 0.278258
C88   C     C_3   0.318132 0.885502 0.863574 -0.974222
C89   C     C_3   0.630320 0.135235 0.034121 0.278952
C90   C     C_R   0.657458 0.231230 0.418832 -0.161411
C91   C     C_3   0.673065 0.100301 0.112826 -0.971801
C92   C     C_3   0.661997 0.720499 0.193413 0.252685
C93   C     C_3   0.613639 0.745334 0.188709 -0.915430
C94   C     C_3   0.306697 0.242194 0.778540 0.261752
C95   C     C_3   0.292640 0.181208 0.735390 -0.895129
C96   C     C_R   0.657739 0.771952 0.426779 -0.166108
C97   C     C_R   0.457375 0.416742 0.260164 -0.141177
C98   C     C_R   0.271665 0.345119 0.581221 -0.160114
C99   C     C_R   0.772252 0.155478 0.581895 -0.164235
C100  C     C_R   0.226762 0.840579 0.418916 -0.165188
C101  C     C_R   0.158424 0.267801 0.418782 -0.161346
C102  C     C_R   0.776663 0.839331 0.588530 -0.163018
C103  C     C_R   0.318183 0.804366 0.505774 0.115012
C104  C     C_R   0.682012 0.195402 0.494291 0.120584
C105  C     C_R   0.684195 0.805917 0.504167 0.116418
C106  C     C_R   0.221198 0.348096 0.504294 0.119183
C107  C     C_R   0.721728 0.152496 0.505023 0.119411
C108  C     C_R   0.459719 0.591334 0.267134 -0.134344
C109  C     C_R   0.277592 0.845855 0.494658 0.120910
C110  C     C_R   0.181440 0.304945 0.493054 0.116340
C111  C     C_R   0.725163 0.847223 0.515695 0.111322
C112  C     C_R   0.390798 0.667110 0.166384 0.124909
C113  C     C_R   0.602155 0.317223 0.809570 0.125995
C114  C     C_R   0.622657 0.624785 0.878887 0.130137
C115  C     C_R   0.377872 0.373907 0.122715 0.129883
C116  C     C_R   0.878346 0.127567 0.124228 0.130183
C117  C     C_R   0.120529 0.869101 0.872987 0.129186
C118  C     C_R   0.101950 0.182862 0.810256 0.126145
C119  C     C_R   0.535631 0.399552 0.720125 -0.127907
C120  C     C_R   0.904458 0.802359 0.220189 0.126356
C121  C     C_R   0.407076 0.755583 0.108139 -0.174056
C122  C     C_R   0.585827 0.226289 0.862977 -0.173642
C123  C     C_R   0.619961 0.682886 0.988941 -0.161574
C124  C     C_R   0.379700 0.315796 0.011667 -0.152317
C125  C     C_R   0.880737 0.186457 0.014496 -0.154474
C126  C     C_R   0.119040 0.810479 0.983882 -0.154166
C127  C     C_R   0.085395 0.273911 0.863144 -0.173938
C128  C     C_R   0.919708 0.711568 0.165097 -0.172210
C129  C     C_R   0.424185 0.701105 0.151110 -0.172545
C130  C     C_R   0.035622 0.100314 0.720292 -0.129214
C131  C     C_R   0.568230 0.281045 0.820709 -0.173801
C132  C     C_R   0.593990 0.652960 0.909133 -0.194152
C133  C     C_R   0.406131 0.347163 0.090448 -0.196937
C134  C     C_R   0.906871 0.154732 0.092673 -0.196164
C135  C     C_R   0.092499 0.843018 0.906283 -0.194293
C136  C     C_R   0.067857 0.218919 0.820917 -0.173620
C137  C     C_R   0.938093 0.765934 0.209108 -0.176516
C138  C     C_R   0.340592 0.687826 0.137117 -0.218951
C139  C     C_R   0.652922 0.297505 0.840075 -0.219358
C140  C     C_R   0.677747 0.623538 0.932233 -0.215258
C141  C     C_R   0.966987 0.892900 0.291177 -0.128547
C142  C     C_R   0.322916 0.373689 0.071578 -0.212540
C143  C     C_R   0.823360 0.127970 0.073013 -0.213520
C144  C     C_R   0.175400 0.866931 0.922035 -0.209826
C145  C     C_R   0.152757 0.202803 0.841358 -0.221237
C146  C     C_R   0.853435 0.782547 0.189728 -0.211997
C147  C     C_R   0.325491 0.745174 0.104894 0.079875
C148  C     C_R   0.669277 0.240620 0.873567 0.077010
C149  C     C_R   0.705040 0.654551 0.012612 0.074347
C150  C     C_R   0.295410 0.340421 0.993745 0.069167
C151  C     C_R   0.796127 0.161363 0.995505 0.070518
C152  C     C_R   0.957512 0.083653 0.260552 -0.141927
C153  C     C_R   0.202753 0.831872 0.997465 0.069086
C154  C     C_R   0.168828 0.260050 0.873908 0.079116
C155  C     C_R   0.835430 0.726819 0.151180 0.075832
C156  C     C_R   0.357569 0.778138 0.084445 -0.031480
C157  C     C_R   0.636791 0.206002 0.891178 -0.031143
C158  C     C_R   0.675235 0.685948 0.039727 -0.004679
C159  C     C_R   0.324739 0.309020 0.965628 0.004313
C160  C     C_R   0.825789 0.192972 0.968171 0.007186
C161  C     C_R   0.173634 0.801584 0.026971 -0.001714
C162  C     C_R   0.136348 0.294613 0.891303 -0.031194
C163  C     C_R   0.041293 0.913969 0.737090 -0.129438
C164  C     C_R   0.867727 0.692487 0.133089 -0.029769
C165  C     C_R   0.277777 0.768836 0.088837 0.019578
C166  C     C_R   0.719111 0.219735 0.895619 0.028616
C167  C     C_R   0.760708 0.661486 0.060382 -0.001962
C168  C     C_R   0.240460 0.330704 0.951234 -0.001547
C169  C     C_R   0.741119 0.170810 0.952362 -0.002479
C170  C     C_R   0.256853 0.819372 0.035506 -0.001880
C171  C     C_R   0.218358 0.281442 0.894969 0.022981
C172  C     C_R   0.783860 0.707635 0.122910 0.016898
C173  C     C_R   0.626938 0.607950 0.573518 -0.123347
C174  C     C_R   0.366886 0.716104 0.581425 -0.167696
C175  C     C_R   0.355588 0.418650 0.428151 -0.119465
C176  C     C_R   0.372444 0.607401 0.428448 -0.120990
C177  C     C_R   0.628793 0.393627 0.571127 -0.121273
C178  C     C_R   0.129196 0.106308 0.571363 -0.122372
C179  C     C_R   0.855375 0.919526 0.429964 -0.137782
C180  C     C_R   0.855539 0.080817 0.428405 -0.120367
C181  C     C_R   0.144187 0.918315 0.571753 -0.119854
C182  C     C_R   0.747985 0.247288 0.864080 -0.365442
C183  C     C_R   0.250197 0.743088 0.124003 -0.354668
C184  C     C_R   0.207656 0.365875 0.967217 -0.341022
H1    H     H_    0.516496 0.579856 0.763620 0.086604
H2    H     H_    0.313242 0.658803 0.140152 0.117114
H3    H     H_    0.846044 0.262373 0.705052 0.208077
H4    H     H_    0.845190 0.326661 0.764002 0.262033
H5    H     H_    0.161100 0.764468 0.220658 0.109249
H6    H     H_    0.226918 0.773802 0.246115 0.060091
H7    H     H_    0.239988 0.663415 0.264184 0.238584
H8    H     H_    0.222809 0.695208 0.337256 0.220556
H9    H     H_    0.173659 0.655309 0.240018 0.264490
H10   H     H_    0.137031 0.317467 0.047097 0.066551
H11   H     H_    0.091922 0.375404 0.027519 0.127693
H12   H     H_    0.167191 0.449313 0.098733 0.276469
H13   H     H_    0.302146 0.395148 0.097334 0.108987
H14   H     H_    0.171503 0.391528 0.171591 0.221039
H15   H     H_    0.212550 0.388270 0.127296 0.240478
H16   H     H_    0.914861 0.616350 0.998201 0.129008
H17   H     H_    0.869880 0.674579 0.978091 0.065957
H18   H     H_    0.793914 0.606011 0.888348 0.237548
H19   H     H_    0.838094 0.603957 0.850138 0.224035
H20   H     H_    0.838607 0.544227 0.917215 0.276429
H21   H     H_    0.352309 0.800607 0.924730 0.067006
H22   H     H_    0.398606 0.856719 0.941613 0.126004
H23   H     H_    0.326203 0.933495 0.878672 0.275297
H24   H     H_    0.698898 0.601955 0.907244 0.109005
H25   H     H_    0.316777 0.875701 0.802016 0.221414
H26   H     H_    0.279117 0.874396 0.852656 0.242072
H27   H     H_    0.592121 0.125881 0.027493 0.126765
H28   H     H_    0.637636 0.183767 0.047435 0.066859
H29   H     H_    0.712685 0.113063 0.127746 0.241313
H30   H     H_    0.671444 0.110046 0.171698 0.220941
H31   H     H_    0.666926 0.052027 0.098801 0.275625
H32   H     H_    0.696166 0.722422 0.262791 0.108284
H33   H     H_    0.653546 0.673139 0.172147 0.073626
H34   H     H_    0.579224 0.744437 0.119668 0.250091
H35   H     H_    0.196064 0.888204 0.896043 0.108578
H36   H     H_    0.604098 0.718084 0.229428 0.203268
H37   H     H_    0.621085 0.791802 0.212910 0.261079
H38   H     H_    0.337342 0.262089 0.769811 0.110127
H39   H     H_    0.271323 0.271177 0.743068 0.061298
H40   H     H_    0.261933 0.159939 0.742653 0.238324
H41   H     H_    0.277199 0.185592 0.664115 0.220260
H42   H     H_    0.328182 0.152636 0.766449 0.263966
H43   H     H_    0.802402 0.106336 0.098365 0.109143
H44   H     H_    0.826100 0.812650 0.190357 0.116225
H45   H     H_    0.180621 0.172681 0.842337 0.117679
H46   H     H_    0.528324 0.294737 0.796908 0.113683
H47   H     H_    0.463709 0.686501 0.173771 0.112604
H48   H     H_    0.448784 0.347535 0.128122 0.116018
H49   H     H_    0.483515 0.419908 0.236546 0.086837
H50   H     H_    0.551369 0.654620 0.869235 0.115479
H51   H     H_    0.049935 0.845058 0.870478 0.116096
H52   H     H_    0.949523 0.154342 0.130464 0.116427
H53   H     H_    0.978064 0.779692 0.232875 0.114938
H54   H     H_    0.027883 0.204986 0.796741 0.113913
H55   H     H_    0.433188 0.780550 0.095797 0.148270
H56   H     H_    0.559422 0.199904 0.872982 0.147634
H57   H     H_    0.596355 0.706369 0.008010 0.159941
H58   H     H_    0.402799 0.293563 0.990366 0.161800
H59   H     H_    0.904030 0.208993 0.993720 0.163176
H60   H     H_    0.486585 0.594259 0.245108 0.082658
H61   H     H_    0.096173 0.788910 0.006277 0.160282
H62   H     H_    0.058926 0.300213 0.872886 0.147601
H63   H     H_    0.945895 0.685216 0.154734 0.147576
H64   H     H_    0.730541 0.280443 0.812911 0.146139
H65   H     H_    0.267720 0.709124 0.173820 0.149835
H66   H     H_    0.221035 0.407809 0.001366 0.167278
H67   H     H_    0.779166 0.586194 0.005928 0.166987
H68   H     H_    0.277751 0.895814 0.986048 0.167022
H69   H     H_    0.721374 0.093758 0.002206 0.167293
H70   H     H_    0.772178 0.764938 0.208718 0.156233
H71   H     H_    0.504887 0.389652 0.731980 0.088988
H72   H     H_    0.228663 0.220763 0.811510 0.148433
H73   H     H_    0.654719 0.619672 0.641434 0.095820
H74   H     H_    0.321994 0.421048 0.361164 0.089636
H75   H     H_    0.343052 0.619029 0.361545 0.088262
H76   H     H_    0.659612 0.382989 0.637505 0.091389
H77   H     H_    0.160047 0.117124 0.637797 0.087795
H78   H     H_    0.820821 0.923191 0.364085 0.089738
H79   H     H_    0.821885 0.078198 0.361456 0.087955
H80   H     H_    0.177833 0.920489 0.638764 0.091016
H81   H     H_    0.561052 0.620592 0.358950 0.089021
H82   H     H_    0.004879 0.109909 0.732187 0.089196
H83   H     H_    0.415383 0.422387 0.642088 0.087337
H84   H     H_    0.442042 0.620050 0.643866 0.093721
H85   H     H_    0.558499 0.380399 0.355942 0.094477
H86   H     H_    0.059146 0.119095 0.356196 0.094095
H87   H     H_    0.917788 0.920281 0.644319 0.086353
H88   H     H_    0.915402 0.077212 0.642263 0.086217
H89   H     H_    0.084591 0.921847 0.357883 0.088989
H90   H     H_    0.344876 0.595876 0.246252 0.084019
H91   H     H_    0.652414 0.397053 0.746917 0.085983
H92   H     H_    0.658297 0.583559 0.764034 0.088033
H93   H     H_    0.997992 0.880912 0.281009 0.091867
H94   H     H_    0.342404 0.412639 0.239691 0.088261
H95   H     H_    0.842640 0.087892 0.240507 0.088614
H96   H     H_    0.156724 0.910552 0.758105 0.089224
H97   H     H_    0.152370 0.103858 0.746943 0.083612
H98   H     H_    0.856407 0.881029 0.286594 0.096180
H99   H     H_    0.304171 0.817513 0.375890 0.113149
H100  H     H_    0.696282 0.183359 0.624701 0.110782
H101  H     H_    0.700984 0.815442 0.636438 0.118315
H102  H     H_    0.175130 0.383448 0.372039 0.117637
H103  H     H_    0.675294 0.116303 0.372938 0.115503
H104  H     H_    0.983587 0.080772 0.236794 0.087071
H105  H     H_    0.324238 0.884135 0.625318 0.117745
H106  H     H_    0.193395 0.319131 0.621433 0.113850
H107  H     H_    0.677052 0.889565 0.388648 0.120459
H108  H     H_    0.346234 0.725007 0.376117 0.117576
H109  H     H_    0.655100 0.276497 0.624085 0.114118
H110  H     H_    0.656419 0.723589 0.631587 0.115692
H111  H     H_    0.250963 0.422476 0.373485 0.112997
H112  H     H_    0.750771 0.076440 0.374377 0.108503
H113  H     H_    0.248669 0.923277 0.624343 0.114488
H114  H     H_    0.153532 0.224827 0.622364 0.117616
H115  H     H_    0.014117 0.914662 0.758752 0.086542
H116  H     H_    0.751816 0.928161 0.385714 0.111377
H117  H     H_    0.382624 0.687584 0.638352 0.108161
H118  H     H_    0.618579 0.312684 0.361544 0.107909
H119  H     H_    0.616502 0.692026 0.366014 0.102053
H120  H     H_    0.353871 0.358686 0.639808 0.105762
H121  H     H_    0.854344 0.141443 0.640423 0.108780
H122  H     H_    0.144559 0.853230 0.361591 0.106191
H123  H     H_    0.121311 0.184988 0.363206 0.109050
H124  H     H_    0.858596 0.849697 0.640547 0.111358
H125  H     H_    0.779290 0.179930 0.638638 0.099644
H126  H     H_    0.680619 0.327619 0.840236 0.118661
H127  H     H_    0.219651 0.814773 0.363112 0.098243
H128  H     H_    0.162104 0.277237 0.363459 0.115799
H129  H     H_    0.784479 0.811750 0.643408 0.116278
H130  H     H_    0.339952 0.778220 0.637073 0.114960
H131  H     H_    0.660289 0.221174 0.362802 0.114587
H132  H     H_    0.660596 0.782843 0.371132 0.124774
H133  H     H_    0.278541 0.320881 0.637894 0.093768
H134  H     H_    0.777134 0.252899 0.739620 0.097775
H135  H     H_    0.828312 0.197084 0.796729 0.079285
H136  H     H_    0.895997 0.271211 0.820661 0.248811
N1    N     N_R   0.532910 0.558440 0.665240 -0.037650
N2    N     N_R   0.402970 0.441090 0.454460 -0.039011
N3    N     N_R   0.402970 0.558910 0.454460 -0.039327
N4    N     N_R   0.597030 0.441090 0.545540 -0.039359
N5    N     N_R   0.097030 0.058910 0.545540 -0.038574
N6    N     N_R   0.902970 0.941090 0.454460 -0.037359
N7    N     N_R   0.902970 0.058910 0.454460 -0.037510
N8    N     N_R   0.097030 0.941090 0.545540 -0.038399
N9    N     N_R   0.566200 0.559270 0.454460 -0.041690
N10   N     N_R   0.433800 0.440730 0.545540 -0.039226
N11   N     N_R   0.433800 0.559270 0.545540 -0.040529
N12   N     N_R   0.467090 0.441560 0.334760 -0.038202
N13   N     N_R   0.566200 0.440730 0.454460 -0.041497
N14   N     N_R   0.066200 0.059270 0.454460 -0.040049
N15   N     N_R   0.933800 0.940730 0.545540 -0.037810
N16   N     N_R   0.933800 0.059270 0.545540 -0.038100
N17   N     N_R   0.066200 0.940730 0.454460 -0.038339
N18   N     N_R   0.421050 0.559750 0.334770 -0.037026
N19   N     N_R   0.578950 0.440250 0.665230 -0.037317
N20   N     N_R   0.578950 0.559750 0.665230 -0.037068
N21   N     N_R   0.421050 0.440250 0.334770 -0.038720
N22   N     N_R   0.921050 0.059750 0.334770 -0.038996
N23   N     N_R   0.467090 0.558440 0.334760 -0.036713
N24   N     N_R   0.078950 0.940250 0.665230 -0.039744
N25   N     N_R   0.078950 0.059750 0.665230 -0.037929
N26   N     N_R   0.921050 0.940250 0.334770 -0.040683
N27   N     N_R   0.532910 0.441560 0.665240 -0.038655
N28   N     N_R   0.032910 0.058440 0.665240 -0.039171
N29   N     N_R   0.967090 0.941560 0.334760 -0.040052
N30   N     N_R   0.967090 0.058440 0.334760 -0.038497
N31   N     N_R   0.032910 0.941560 0.665240 -0.039879
N32   N     N_R   0.597030 0.558910 0.545540 -0.040042
Ni1   Ni    Ni4+2 0.483090 0.500000 0.604440 0.211946
Ni2   Ni    Ni4+2 0.516910 0.500000 0.395560 0.212716
Ni3   Ni    Ni4+2 0.983090 1.000000 0.604440 0.210411
Ni4   Ni    Ni4+2 0.016910 1.000000 0.395560 0.211745
Ni5   Ni    Ni4+2 0.586780 0.500000 0.604440 0.218925
Ni6   Ni    Ni4+2 0.413220 0.500000 0.395560 0.214678
Ni7   Ni    Ni4+2 0.086780 1.000000 0.604440 0.215095
Ni8   Ni    Ni4+2 0.913220 1.000000 0.395560 0.211855
O1    O     O_3   0.829418 0.266381 0.874197 -0.624221
O2    O     O_3   0.171067 0.730664 0.124943 -0.635539
O3    O     O_3   0.125437 0.384199 0.954905 -0.636485
O4    O     O_3   0.877301 0.605094 0.063971 -0.635668
O5    O     O_3   0.369699 0.866934 0.020902 -0.637268
O6    O     O_3   0.625780 0.116721 0.955168 -0.637180
O7    O     O_3   0.672773 0.755552 0.140055 -0.625301
O8    O     O_3   0.328159 0.236731 0.870009 -0.637626

loop_
_geom_bond_atom_site_label_1
_geom_bond_atom_site_label_2
_ccdc_geom_bond_type
C61   C70   A    
C120  C146  A    
C31   C42   A    
C136  H54   S    
C10   C184  A    
N2    Ni6   S    
C44   C175  A    
C87   C88   S    
C119  N27   A    
C124  C133  A    
C98   H133  S    
C24   C98   A    
C57   C76   A    
C7    C171  A    
C52   C61   A    
N6    Ni8   S    
C54   C63   A    
N11   Ni1   S    
C16   O8    S    
C14   O6    S    
C87   H21   S    
C91   H31   S    
C36   C97   A    
C112  C129  A    
C4    C12   A    
C86   H18   S    
C68   H124  S    
C21   C48   A    
C143  C151  A    
N6    N15   A    
C100  C109  A    
C10   C162  A    
C88   H26   S    
C102  C111  A    
C99   C107  A    
N7    N16   A    
C21   H86   S    
N10   Ni1   S    
C39   C130  A    
C23   H88   S    
C150  C159  A    
C165  C183  A    
C112  C138  A    
C127  C136  A    
C4    H68   S    
C37   C108  A    
C101  C110  A    
C121  H55   S    
C55   H102  S    
C153  C161  A    
C17   C43   A    
C173  H73   S    
C18   C44   A    
C163  H115  S    
C150  C168  A    
C42   C117  S    
C2    H118  S    
N25   N28   A    
N17   Ni4   S    
C81   H5    S    
C20   N13   A    
C78   O1    S    
C38   C119  A    
C131  H46   S    
C22   N15   A    
C93   H36   S    
C67   H114  S    
N14   Ni4   S    
C2    C71   A    
C117  C135  A    
N24   Ni7   S    
C118  C136  A    
C53   H100  S    
C27   H91   S    
C68   C77   A    
C54   C105  A    
C143  H43   S    
C51   C181  A    
C21   N14   A    
C152  H104  S    
C176  H75   S    
C13   C72   A    
C1    H1    S    
C23   N16   A    
C39   C118  S    
C98   C106  A    
N1    Ni1   S    
C18   N10   A    
C43   C173  A    
C10   O3    S    
C139  H126  S    
C137  H53   S    
C92   H33   S    
C20   C47   A    
C3    C11   A    
C78   H135  S    
C60   H107  S    
C91   H29   S    
C134  H52   S    
C9    O2    S    
C20   H85   S    
C104  C107  S    
C49   C179  A    
C22   H87   S    
C130  N28   A    
N7    Ni8   S    
C52   C103  A    
C121  C156  A    
C7    H72   S    
C48   C76   S    
C69   C77   A    
C32   N25   A    
C166  C182  A    
C47   C177  A    
C48   C178  A    
C125  C160  A    
C3    C167  A    
C6    C172  A    
C85   C86   S    
C54   H101  S    
C4    C170  A    
N15   Ni3   S    
C3    H67   S    
C50   C74   S    
C176  N3    A    
C78   C80   S    
C145  H45   S    
C53   C104  A    
N18   N23   A    
C128  C164  A    
C57   H123  S    
C5    H69   S    
C82   H9    S    
C31   N24   A    
C147  C165  A    
C59   C67   A    
C58   H105  S    
C168  C171  A    
C122  H56   S    
C69   H116  S    
C153  C170  A    
C64   C73   A    
C113  C139  A    
C30   C41   A    
C87   O5    S    
C79   H130  S    
C114  C140  A    
C89   C91   S    
C149  C158  A    
C19   N11   A    
N24   N31   A    
C97   H49   S    
C40   C141  A    
C83   H11   S    
N20   Ni5   S    
C79   C103  A    
N5    N14   A    
C44   C73   S    
C12   C156  A    
C46   C75   A    
C1    C34   A    
C84   H15   S    
C139  C148  A    
C33   C40   A    
C13   C96   A    
C117  C144  A    
C15   C158  A    
C65   C74   A    
C24   H120  S    
C95   H41   S    
C182  H64   S    
C85   H16   S    
C83   C84   S    
C80   H4    S    
N13   Ni2   S    
C127  H62   S    
C9    C161  A    
C31   H96   S    
C70   C174  A    
N26   Ni8   S    
C145  C154  A    
C127  C162  A    
C142  H13   S    
C122  C131  A    
C123  H57   S    
N26   N29   A    
C46   H122  S    
C33   H98   S    
C128  H63   S    
C154  C162  A    
C118  C145  A    
C141  N29   A    
C123  C132  A    
C19   C45   A    
N8    Ni7   S    
C30   N22   A    
C57   C101  A    
C151  C169  A    
C133  H48   S    
C60   C111  A    
C25   N17   A    
C181  H80   S    
C146  H44   S    
C60   C69   A    
C84   H12   S    
C27   N19   A    
C12   O5    S    
C49   C77   S    
C154  C171  A    
C148  C157  A    
C177  H76   S    
C15   O7    S    
C94   H38   S    
C86   H19   S    
N3    Ni6   S    
C125  C134  A    
C96   C105  A    
C35   C74   A    
C163  N31   A    
C148  C166  A    
C149  C167  A    
C89   H27   S    
C180  N7    A    
C138  H2    S    
C68   C102  A    
C18   H83   S    
C82   H7    S    
N31   Ni3   S    
C24   C73   A    
C116  C134  A    
C27   C38   A    
N12   Ni2   S    
C183  H65   S    
N2    N10   A    
C32   C39   A    
C81   O2    S    
C25   H89   S    
C181  N8    A    
C155  C172  A    
C146  C155  A    
C92   O7    S    
C177  N4    A    
C89   H28   S    
C126  C161  A    
C96   H132  S    
C85   H17   S    
C105  C111  S    
C115  C142  A    
C28   C34   A    
N25   Ni7   S    
C126  H61   S    
C79   C174  A    
C140  H24   S    
C83   O3    S    
N9    Ni2   S    
C14   C157  A    
N4    Ni5   S    
C41   C152  A    
C180  H79   S    
N1    N20   A    
C55   C106  A    
C84   H14   S    
C29   H94   S    
C184  H66   S    
C87   H22   S    
C9    C183  A    
C175  N2    A    
C8    O1    S    
N18   Ni6   S    
C174  H117  S    
C147  C156  A    
N29   Ni4   S    
C5    C14   A    
C7    C16   A    
C40   C120  S    
C126  C135  A    
C88   H25   S    
N16   Ni3   S    
C135  H51   S    
C108  N23   A    
C47   C71   S    
C88   H23   S    
C8    C160  A    
N19   N27   A    
C8    C182  A    
N4    N13   A    
C38   C113  S    
N19   Ni5   S    
C82   H8    S    
C45   C70   S    
C121  C129  A    
C23   C50   A    
C119  H71   S    
C35   H121  S    
C1    N1    A    
C26   C37   A    
C167  C172  A    
C61   H108  S    
C115  C133  A    
C103  C109  S    
C142  C150  A    
C52   H99   S    
C17   N9    A    
C65   H112  S    
C101  H128  S    
C66   C75   A    
C92   C93   S    
C122  C157  A    
C92   H32   S    
C64   H111  S    
C94   C95   S    
C81   H6    S    
C175  H74   S    
C130  H82   S    
C63   C72   A    
C2    C90   A    
C5    C169  A    
C120  C137  A    
N12   N21   A    
C43   C72   S    
C58   C109  A    
N22   Ni8   S    
C62   H109  S    
C81   C82   S    
C59   H106  S    
C29   C36   A    
C30   H95   S    
C51   C75   S    
C91   H30   S    
C179  H78   S    
C28   H92   S    
C102  H129  S    
C56   C65   A    
C124  C159  A    
C59   C110  A    
C6    H70   S    
C144  C153  A    
C37   C112  S    
C17   H81   S    
C6    C15   A    
C173  N32   A    
C58   C66   A    
C168  C184  A    
C62   C71   A    
N22   N30   A    
N8    N17   A    
N23   Ni2   S    
N32   Ni5   S    
C165  C170  A    
C16   C159  A    
C35   C99   A    
C94   O8    S    
C178  N5    A    
N5    Ni7   S    
C144  H35   S    
C45   C176  A    
C11   O4    S    
C26   H90   S    
C100  H127  S    
C42   C163  A    
C63   H110  S    
C93   H34   S    
C50   C180  A    
C128  C137  A    
C25   C51   A    
C56   C107  A    
C179  N6    A    
C28   N20   A    
C116  C143  A    
C53   C62   A    
N30   Ni4   S    
C138  C147  A    
C90   C104  A    
C55   C64   A    
C108  H60   S    
N27   Ni1   S    
C80   H136  S    
C22   C49   A    
C94   H39   S    
C99   H125  S    
N3    N11   A    
C41   C116  S    
C124  H58   S    
C86   H20   S    
C106  C110  S    
C46   C100  A    
C113  C131  A    
C114  C132  A    
C178  H77   S    
C123  C158  A    
C152  N30   A    
C155  C164  A    
C34   C114  S    
C85   O4    S    
C129  H47   S    
C66   H113  S    
C29   N21   A    
C95   H40   S    
C78   H134  S    
C151  C160  A    
C83   H10   S    
C95   H42   S    
C141  H93   S    
C26   N18   A    
C140  C149  A    
C11   C164  A    
C80   H3    S    
C125  H59   S    
C56   H103  S    
C90   H131  S    
C97   N12   A    
C166  C169  A    
C13   H119  S    
C93   H37   S    
C67   C76   A    
N9    N32   A    
C33   N26   A    
C36   C115  S    
C132  H50   S    
C89   O6    S    
N21   Ni6   S    
C32   H97   S    
N28   Ni3   S    
C19   H84   S    
