data_mof_unit_31307.cif
_audit_creation_date              2012-12-10T16:49:26-0500
_audit_creation_method            fapswitch 2.2
_symmetry_space_group_name_H-M    P1
_symmetry_Int_Tables_number       1
_space_group_crystal_system       triclinic
_cell_length_a                    7.801252
_cell_length_b                    8.553126
_cell_length_c                    12.873314
_cell_angle_alpha                 89.384975
_cell_angle_beta                  87.992152
_cell_angle_gamma                 93.206733
_cell_volume                      857.032159156

loop_
_atom_site_label
_atom_site_type_symbol
_atom_type_description
_atom_site_fract_x
_atom_site_fract_y
_atom_site_fract_z
_atom_type_partial_charge
C1    C     C_R   0.454730 0.205502 0.499313 0.942920
C2    C     C_R   0.711338 0.464166 0.140370 -0.200453
C3    C     C_R   0.589484 0.472949 0.868808 -0.279723
C4    C     C_R   0.408697 0.517591 0.131091 -0.281899
C5    C     C_R   0.578228 0.479133 0.975322 0.189638
C6    C     C_R   0.419668 0.510161 0.024667 0.192618
C7    C     C_2   0.430057 0.042070 0.503162 -0.393614
C8    C     C_2   0.568054 0.957694 0.506432 -0.387757
C9    C     C_3   0.072714 0.718196 0.338800 0.149915
C10   C     C_3   0.982523 0.864042 0.373451 -0.386495
C11   C     C_3   0.059633 0.011416 0.317649 -0.958189
C12   C     C_R   0.544523 0.794402 0.503957 0.942341
C13   C     C_3   0.935442 0.249164 0.631421 0.179677
C14   C     C_3   0.035901 0.163414 0.712047 -0.399055
C15   C     C_3   0.961363 0.996151 0.730454 -0.948751
C16   C     C_R   0.465871 0.501105 0.699661 0.857415
C17   C     C_R   0.533910 0.497496 0.300311 0.860342
C18   C     C_R   0.553467 0.494051 0.189073 -0.047302
C19   C     C_R   0.445479 0.499954 0.810875 -0.048566
C20   C     C_R   0.274422 0.533555 0.967005 -0.237128
C21   C     C_R   0.723560 0.456273 0.033050 -0.234734
C22   C     C_R   0.287308 0.528519 0.859652 -0.209225
H1    H     H_    0.286217 0.541169 0.168359 0.156764
H2    H     H_    0.209448 0.730253 0.355925 0.182282
H3    H     H_    0.844574 0.849955 0.355041 0.239608
H4    H     H_    0.993488 0.877907 0.458709 0.213485
H5    H     H_    0.200123 0.025109 0.328433 0.267108
H6    H     H_    0.998621 0.115847 0.349461 0.277169
H7    H     H_    0.036099 0.005014 0.233161 0.266410
H8    H     H_    0.936250 0.179931 0.558490 0.128109
H9    H     H_    0.801804 0.257927 0.662218 0.164631
H10   H     H_    0.172360 0.159781 0.684705 0.234914
H11   H     H_    0.031759 0.227836 0.786583 0.222669
H12   H     H_    0.711869 0.448952 0.831391 0.166554
H13   H     H_    0.825169 0.996728 0.758573 0.265452
H14   H     H_    0.035875 0.937444 0.789976 0.272879
H15   H     H_    0.968851 0.928471 0.657435 0.264155
H16   H     H_    0.823908 0.445613 0.184884 0.181907
H17   H     H_    0.175135 0.548773 0.815164 0.183187
H18   H     H_    0.152386 0.557201 0.004770 0.136336
H19   H     H_    0.845540 0.432336 0.995330 0.137316
H20   H     H_    0.299071 0.991563 0.502888 0.185273
H21   H     H_    0.698842 0.007990 0.508393 0.166873
H22   H     H_    0.067114 0.710693 0.252877 0.123221
N1    N     N_2   0.054030 0.541640 0.471970 0.172307
N2    N     N_2   0.945970 0.458360 0.528030 0.168380
O1    O     O_R   0.609680 0.261530 0.506880 -0.651278
O2    O     O_3   0.014115 0.399234 0.613478 -0.560224
O3    O     O_R   0.390320 0.738470 0.493120 -0.647319
O4    O     O_R   0.323330 0.288220 0.488910 -0.604664
O5    O     O_R   0.676670 0.711780 0.511090 -0.618278
O6    O     O_R   0.619510 0.488830 0.661140 -0.640222
O7    O     O_R   0.380490 0.511170 0.338860 -0.650203
O8    O     O_R   0.333160 0.515520 0.643180 -0.578741
O9    O     O_R   0.666840 0.484480 0.356820 -0.574788
O10   O     O_3   0.986201 0.581739 0.381015 -0.559188
Zn1   Zn    Zn3+2 0.691200 0.482180 0.511990 1.001646
Zn2   Zn    Zn3+2 0.308800 0.517820 0.488010 1.004296

loop_
_geom_bond_atom_site_label_1
_geom_bond_atom_site_label_2
_ccdc_geom_bond_type
C13   O2    S    
O7    Zn2   S    
C9    H2    S    
C3    C19   A    
C19   C22   A    
O5    Zn1   S    
O1    Zn1   S    
C6    C20   A    
C9    C10   S    
C17   O9    A    
C8    H21   S    
C11   H5    S    
C8    C12   S    
C4    C18   A    
C10   H4    S    
C14   H11   S    
C17   C18   S    
C7    C8    D    
C9    O10   S    
C1    C7    S    
C13   C14   S    
C11   H6    S    
C2    C21   A    
C16   C19   S    
C21   H19   S    
C22   H17   S    
C10   H3    S    
C15   H13   S    
C20   C22   A    
C12   O3    A    
N2    O2    S    
O9    Zn1   S    
N2    Zn1   S    
O8    Zn2   S    
C5    C6    A    
C20   H18   S    
C16   O8    A    
N1    Zn2   S    
C2    C18   A    
C10   C11   S    
O6    Zn1   S    
O4    Zn2   S    
C17   O7    A    
C15   H14   S    
C12   O5    A    
C5    C21   A    
C13   H8    S    
C11   H7    S    
C4    C6    A    
C1    O4    A    
C7    H20   S    
C4    H1    S    
C2    H16   S    
C14   C15   S    
C1    O1    A    
C9    H22   S    
C3    H12   S    
N1    N2    D    
C13   H9    S    
C15   H15   S    
O3    Zn2   S    
C16   O6    A    
N1    O10   S    
C14   H10   S    
C3    C5    A    
