data_mof_unit_30806.cif
_audit_creation_date              2012-12-11T16:04:52-0500
_audit_creation_method            fapswitch 2.2
_symmetry_space_group_name_H-M    P1
_symmetry_Int_Tables_number       1
_space_group_crystal_system       triclinic
_cell_length_a                    10.657216
_cell_length_b                    10.711461
_cell_length_c                    16.945615
_cell_angle_alpha                 99.173943
_cell_angle_beta                  98.710485
_cell_angle_gamma                 61.646935
_cell_volume                      1674.18765134

loop_
_atom_site_label
_atom_site_type_symbol
_atom_type_description
_atom_site_fract_x
_atom_site_fract_y
_atom_site_fract_z
_atom_type_partial_charge
C1    C     C_R   0.356014 0.774243 0.398953 0.578138
C2    C     C_3   0.695685 0.409886 0.255974 -0.147462
C3    C     C_3   0.819382 0.346210 0.321466 0.040080
C4    C     C_3   0.886644 0.204643 0.268618 -0.140509
C5    C     C_3   0.974221 0.262784 0.234786 -0.127790
C6    C     C_3   0.904151 0.403967 0.287807 0.068629
C7    C     C_3   0.782457 0.468140 0.222338 -0.120586
C8    C     C_3   0.850363 0.326959 0.169872 0.031432
C9    C     C_3   0.435813 0.729519 0.205194 -0.166149
C10   C     C_3   0.321736 0.723804 0.249074 -0.138190
C11   C     C_3   0.349592 0.817278 0.321539 0.040714
C12   C     C_R   0.371445 0.346997 0.358689 0.564922
C13   C     C_3   0.463722 0.822392 0.278286 0.066328
C14   C     C_3   0.346402 0.959204 0.243745 -0.119786
C15   C     C_3   0.233153 0.952668 0.288194 -0.162616
C16   C     C_3   0.203729 0.860353 0.215493 -0.097326
C17   C     C_3   0.318496 0.864833 0.172483 0.043723
C18   C     C_3   0.461338 0.261108 0.776400 -0.166201
C19   C     C_3   0.401559 0.403813 0.739065 -0.125406
C20   C     C_3   0.341950 0.338794 0.664186 0.012786
C21   C     C_3   0.402103 0.198373 0.700732 0.037963
C22   C     C_3   0.258439 0.254173 0.735200 0.024987
C23   C     C_R   0.779085 0.375283 0.402613 0.582251
C24   C     C_3   0.197413 0.396827 0.698295 -0.103402
C25   C     C_3   0.258448 0.456559 0.774427 0.072653
C26   C     C_3   0.316874 0.317110 0.811642 0.009705
C27   C     C_1   0.807270 0.347951 0.711678 -0.011919
C28   C     C_1   0.832781 0.320285 0.780049 -0.026790
C29   C     C_1   0.358643 0.763525 0.714823 -0.001217
C30   C     C_1   0.328511 0.807824 0.782962 -0.003229
C31   C     C_R   0.889955 0.311629 0.089874 0.535953
C32   C     C_R   0.319327 0.299841 0.120089 0.528569
C33   C     C_R   0.290942 0.897685 0.090562 0.544531
C34   C     C_R   0.379291 0.716268 0.631526 0.559525
C35   C     C_R   0.879072 0.301735 0.862515 0.561033
C36   C     C_R   0.306976 0.291497 0.890758 0.565523
C37   C     C_R   0.284849 0.876021 0.861163 0.568358
C38   C     C_R   0.368820 0.347766 0.585978 0.580924
C39   C     C_R   0.769038 0.382790 0.630918 0.562835
C40   C     C_1   0.345412 0.336530 0.274933 -0.020482
C41   C     C_1   0.332632 0.327223 0.203739 -0.034050
C42   C     C_3   0.764391 0.268107 0.201925 -0.125401
Cr1   Cr    Cr6+3 0.608340 0.611040 0.520430 1.089725
Cr2   Cr    Cr6+3 0.287650 0.601120 0.489350 1.053100
Cr3   Cr    Cr6+3 0.604040 0.287870 0.490280 1.069033
Cr4   Cr    Cr6+3 0.054020 0.052700 0.970850 1.044132
Cr5   Cr    Cr6+3 0.059230 0.375120 0.993390 1.056044
Cr6   Cr    Cr6+3 0.374950 0.061200 0.992340 1.062248
H1    H     H_    0.581312 0.467357 0.267928 0.110014
H2    H     H_    0.357145 0.055655 0.238895 0.130502
H3    H     H_    0.159231 0.041024 0.328165 0.130465
H4    H     H_    0.096454 0.875099 0.188612 0.156871
H5    H     H_    0.459705 0.466356 0.738455 0.097140
H6    H     H_    0.568675 0.206438 0.809076 0.151513
H7    H     H_    0.090543 0.452760 0.665381 0.158667
H8    H     H_    0.705579 0.214359 0.164511 0.142777
H9    H     H_    0.924504 0.098263 0.289142 0.138804
H10   H     H_    0.088282 0.206968 0.222348 0.111484
H11   H     H_    0.745630 0.572514 0.199819 0.171473
H12   H     H_    0.310603 0.626884 0.252394 0.138322
H13   H     H_    0.509722 0.641380 0.165160 0.103133
O1    O     O_R   0.751220 0.499230 0.435170 -0.450516
O2    O     O_R   0.297880 0.469080 0.560050 -0.526255
O3    O     O_R   0.489720 0.254590 0.564810 -0.489201
O4    O     O_R   0.725220 0.304230 0.585080 -0.491236
O5    O     O_3   0.500010 0.500010 0.500020 -0.320148
O6    O     O_R   0.171830 0.913880 0.057510 -0.530309
O7    O     O_R   0.940690 0.186050 0.054730 -0.508108
O8    O     O_R   0.920470 0.405720 0.075010 -0.504894
O9    O     O_R   0.196690 0.370460 0.084120 -0.489048
O10   O     O_R   0.412990 0.180750 0.091610 -0.516906
O11   O     O_R   0.366620 0.943130 0.065760 -0.499781
O12   O     O_R   0.477220 0.727600 0.436870 -0.469457
O13   O     O_R   0.160510 0.906330 0.879210 -0.494478
O14   O     O_R   0.930190 0.179050 0.889450 -0.485083
O15   O     O_R   0.909140 0.398170 0.896710 -0.501910
O16   O     O_R   0.186190 0.363460 0.918830 -0.493914
O17   O     O_R   0.401670 0.173200 0.913310 -0.502972
O18   O     O_R   0.356120 0.936130 0.900470 -0.470323
O19   O     O_3   0.162740 0.163010 0.985530 -0.247853
O20   O     O_R   0.258650 0.745120 0.411470 -0.501077
O21   O     O_R   0.297070 0.467240 0.395960 -0.485843
O22   O     O_R   0.488830 0.252610 0.387790 -0.496595
O23   O     O_R   0.724400 0.302390 0.420980 -0.504203
O24   O     O_R   0.752100 0.501210 0.612190 -0.504299
O25   O     O_R   0.478040 0.729440 0.600970 -0.474896
O26   O     O_R   0.259530 0.747110 0.588490 -0.472073
C43   C     C_2   0.483220 0.053927 0.656858 0.619991
O27   O     O_2   0.598351 0.968043 0.686528 -0.507771
O28   O     O_R   0.428725 0.021151 0.580626 -0.638311
H14   H     H_    0.500021 0.928721 0.552781 0.364871
C44   C     C_2   0.178049 0.169660 0.721311 0.555105
O29   O     O_2   0.142656 0.135170 0.652631 -0.481143
O30   O     O_R   0.143158 0.130992 0.785725 -0.676847
H15   H     H_    0.087394 0.075401 0.766857 0.340443
N1    N     N_3   0.181055 0.597671 0.816196 -0.590151
H16   H     H_    0.087734 0.604314 0.833306 0.253234
H17   H     H_    0.243736 0.603959 0.868933 0.226545
C45   C     C_2   0.981544 0.482153 0.333886 0.581181
O31   O     O_2   0.018167 0.548482 0.298268 -0.498165
O32   O     O_R   0.008917 0.481417 0.417121 -0.678273
H18   H     H_    0.050466 0.547684 0.442189 0.348646
C46   C     C_2   0.606919 0.814539 0.309143 0.576153
O33   O     O_2   0.676302 0.829662 0.263636 -0.510181
O34   O     O_R   0.658855 0.795001 0.389271 -0.656613
H19   H     H_    0.755906 0.792799 0.402044 0.344166

loop_
_geom_bond_atom_site_label_1
_geom_bond_atom_site_label_2
_ccdc_geom_bond_type
Cr1   O12   S    
Cr4   O19   S    
C37   O13   A    
O32   H18   S    
C18   C21   S    
Cr2   O5    S    
C19   C20   S    
C1    C11   S    
C3    C6    S    
C7    C8    S    
C24   H7    S    
C37   O18   A    
C35   O14   A    
C5    H10   S    
C9    H13   S    
Cr6   O18   S    
C8    C42   S    
Cr5   O15   S    
Cr2   O21   S    
C36   O16   A    
C5    C6    S    
C1    O20   A    
C15   C16   S    
C18   C19   S    
C34   O25   A    
Cr6   O17   S    
C9    C13   S    
Cr5   O8    S    
C46   O33   D    
C33   O11   A    
C42   H8    S    
C18   C26   S    
C3    C23   S    
C23   O1    A    
C20   C24   S    
C28   C35   S    
C27   C39   S    
C16   C17   S    
N1    H17   S    
C4    H9    S    
C32   C41   S    
C15   H3    S    
C13   C46   S    
Cr2   O26   S    
C9    C10   S    
C19   H5    S    
C21   C43   S    
C21   C22   S    
C39   O4    A    
C14   C17   S    
Cr3   O22   S    
C17   C33   S    
Cr5   O19   S    
Cr6   O11   S    
C7    H11   S    
Cr4   O14   S    
C32   O10   A    
C38   O3    A    
Cr2   O2    S    
C31   O7    A    
C35   O15   A    
C23   O23   A    
Cr1   O24   S    
C24   C25   S    
Cr2   O20   S    
C32   O9    A    
C25   C26   S    
C29   C34   S    
C12   O22   A    
C12   C40   S    
C10   H12   S    
Cr5   O9    S    
Cr4   O7    S    
C29   C30   T    
C2    H1    S    
C39   O24   A    
C20   C38   S    
C45   O31   D    
N1    H16   S    
C44   O30   S    
C12   O21   A    
C46   O34   S    
C20   C21   S    
C9    C17   S    
C40   C41   T    
C45   O32   S    
C43   O28   S    
C11   C15   S    
C2    C7    S    
C22   C24   S    
Cr3   O23   S    
Cr5   O16   S    
Cr6   O10   S    
C3    C4    S    
Cr4   O13   S    
C33   O6    A    
C38   O2    A    
C26   C36   S    
C8    C31   S    
C16   H4    S    
C4    C5    S    
C5    C8    S    
C6    C7    S    
O34   H19   S    
Cr3   O3    S    
C1    O12   A    
C6    C45   S    
Cr6   O19   S    
C2    C3    S    
Cr4   O6    S    
C36   O17   A    
Cr3   O4    S    
C11   C13   S    
O28   H14   S    
C14   H2    S    
C4    C42   S    
C2    C42   S    
Cr1   O5    S    
C44   O29   D    
C34   O26   A    
O30   H15   S    
C19   C25   S    
Cr1   O25   S    
C10   C11   S    
C18   H6    S    
C31   O8    A    
C43   O27   D    
C30   C37   S    
C25   N1    S    
C22   C26   S    
Cr3   O5    S    
C22   C44   S    
C14   C15   S    
C10   C16   S    
C13   C14   S    
Cr1   O1    S    
C27   C28   T    
