data_mof_unit_53388.cif
_audit_creation_date              2012-12-10T17:20:22-0500
_audit_creation_method            fapswitch 2.2
_symmetry_space_group_name_H-M    P1
_symmetry_Int_Tables_number       1
_space_group_crystal_system       triclinic
_cell_length_a                    11.690734
_cell_length_b                    10.818539
_cell_length_c                    9.649693
_cell_angle_alpha                 91.384283
_cell_angle_beta                  89.4019
_cell_angle_gamma                 93.291441
_cell_volume                      1218.04199628

loop_
_atom_site_label
_atom_site_type_symbol
_atom_type_description
_atom_site_fract_x
_atom_site_fract_y
_atom_site_fract_z
_atom_type_partial_charge
C1    C     C_R   0.490231 0.262249 0.498985 0.803577
C2    C     C_R   0.174165 0.017526 0.593396 0.245065
C3    C     C_R   0.186597 0.891417 0.597008 -0.162959
C4    C     C_R   0.290134 0.843602 0.561983 -0.178478
C5    C     C_R   0.387126 0.921319 0.528931 0.052185
C6    C     C_R   0.377959 0.051660 0.524500 0.055690
C7    C     C_R   0.481265 0.126801 0.496821 -0.116683
C8    C     C_R   0.586152 0.072346 0.479770 -0.168309
C9    C     C_R   0.593254 0.945673 0.486252 0.139833
C10   C     C_R   0.493969 0.870093 0.504536 -0.095368
C11   C     C_R   0.663665 0.656264 0.137499 -0.161147
C12   C     C_R   0.284726 0.505886 0.500564 0.782105
C13   C     C_R   0.743933 0.722950 0.054697 0.157174
C14   C     C_R   0.720037 0.740077 0.915705 -0.227703
C15   C     C_R   0.614449 0.695337 0.865185 0.203912
C16   C     C_R   0.562859 0.590468 0.927833 0.135521
C17   C     C_R   0.573370 0.582322 0.074828 0.127948
C18   C     C_R   0.432396 0.416635 0.069875 0.257549
C19   C     C_R   0.436223 0.415603 0.922384 -0.017257
C20   C     C_R   0.502624 0.737104 0.501320 0.811716
C21   C     C_R   0.715778 0.501090 0.499475 0.831561
C22   C     C_1   0.162981 0.508995 0.501270 -0.163983
C23   C     C_1   0.060421 0.509199 0.500605 0.032525
C24   C     C_1   0.940437 0.507102 0.499285 0.052057
C25   C     C_1   0.837741 0.504307 0.498664 -0.125958
C26   C     C_R   0.266469 0.097924 0.549203 0.099721
Cu1   Cu    Cu3+1 0.499990 0.499990 0.640660 0.977652
Cu2   Cu    Cu3+1 0.500010 0.500010 0.359340 0.963267
H1    H     H_    0.664479 0.129679 0.466073 0.170665
H2    H     H_    0.771552 0.807711 0.857820 0.208693
H3    H     H_    0.384969 0.347073 0.863082 0.144797
H4    H     H_    0.115528 0.829464 0.628589 0.180309
H5    H     H_    0.294315 0.744831 0.567680 0.149908
H6    H     H_    0.676823 0.662980 0.246498 0.216386
N1    N     N_R   0.501070 0.501210 0.147910 -0.180718
N2    N     N_R   0.501110 0.501290 0.852040 -0.210171
O1    O     O_R   0.499990 0.319640 0.618810 -0.567661
O2    O     O_R   0.500000 0.319660 0.381240 -0.578628
O3    O     O_R   0.337190 0.500000 0.618790 -0.578362
O4    O     O_R   0.337200 0.500030 0.381210 -0.571823
O5    O     O_R   0.500000 0.680340 0.618760 -0.561953
O6    O     O_R   0.500010 0.680360 0.381190 -0.579113
O7    O     O_R   0.662800 0.499970 0.618790 -0.560489
O8    O     O_R   0.662810 0.500000 0.381210 -0.588887
I1    I     I_    0.507030 0.848137 0.870508 -0.315567
C27   C     C_3   0.242442 0.229439 0.527682 -0.830313
H7    H     H_    0.150256 0.244349 0.516942 0.251992
H8    H     H_    0.275045 0.283690 0.618764 0.246403
H9    H     H_    0.280733 0.260132 0.428282 0.218352
I2    I     I_    0.013627 0.077934 0.667220 -0.314560
I3    I     I_    0.757977 0.873811 0.486399 -0.331466
C28   C     C_3   0.353696 0.318246 0.134168 -0.749702
H10   H     H_    0.301322 0.265971 0.054526 0.195325
H11   H     H_    0.403101 0.247964 0.184133 0.248356
H12   H     H_    0.290774 0.358554 0.205001 0.247540
I4    I     I_    0.896588 0.806467 0.137468 -0.270529

loop_
_geom_bond_atom_site_label_1
_geom_bond_atom_site_label_2
_ccdc_geom_bond_type
C12   O4    A    
C20   O6    A    
C23   C24   S    
C6    C7    A    
C16   N2    A    
Cu1   O7    S    
Cu1   N2    S    
C21   O8    A    
C2    I2    S    
C18   N1    A    
Cu1   O5    S    
C9    I3    S    
C28   H12   S    
C1    O1    A    
C13   I4    S    
C19   H3    S    
C12   O3    A    
C14   C15   A    
C2    C3    A    
C8    C9    A    
C18   C28   S    
C7    C8    A    
C2    C26   A    
C1    C7    S    
C13   C14   A    
C28   H10   S    
C11   C13   A    
C27   H9    S    
C6    C26   A    
C10   C20   S    
C1    O2    A    
C14   H2    S    
C5    C6    A    
C8    H1    S    
C9    C10   A    
Cu2   O6    S    
Cu1   O1    S    
C20   O5    A    
C19   N2    A    
C3    H4    S    
C27   H8    S    
Cu2   O4    S    
C15   C16   A    
C12   C22   S    
C5    C10   A    
C24   C25   T    
C18   C19   A    
C27   H7    S    
Cu1   O3    S    
Cu1   Cu2   S    
C4    H5    S    
C15   I1    S    
C22   C23   T    
C16   C17   A    
C21   C25   S    
C17   N1    A    
Cu2   O2    S    
C21   O7    A    
C26   C27   S    
Cu2   O8    S    
C11   H6    S    
C11   C17   A    
C3    C4    A    
Cu2   N1    S    
C28   H11   S    
C4    C5    A    
