data_mof_unit_24693.cif
_audit_creation_date              2012-12-10T17:22:03-0500
_audit_creation_method            fapswitch 2.2
_symmetry_space_group_name_H-M    P1
_symmetry_Int_Tables_number       1
_space_group_crystal_system       triclinic
_cell_length_a                    10.253563
_cell_length_b                    10.789272
_cell_length_c                    15.731851
_cell_angle_alpha                 91.26059
_cell_angle_beta                  80.726101
_cell_angle_gamma                 95.271093
_cell_volume                      1710.33307686

loop_
_atom_site_label
_atom_site_type_symbol
_atom_type_description
_atom_site_fract_x
_atom_site_fract_y
_atom_site_fract_z
_atom_type_partial_charge
C1    C     C_R   0.555627 0.732279 0.491960 0.925973
C2    C     C_2   0.488343 0.932805 0.470904 -0.154960
C3    C     C_2   0.413263 0.135220 0.495904 -0.397379
C4    C     C_R   0.499364 0.500206 0.661548 0.889957
C5    C     C_2   0.512425 0.065232 0.468901 -0.143774
C6    C     C_2   0.929825 0.513623 0.503403 0.007769
C7    C     C_2   0.076670 0.497283 0.485746 0.643247
C8    C     C_R   0.444416 0.267550 0.502970 0.910553
C9    C     C_R   0.500552 0.499648 0.338507 0.865845
C10   C     C_3   0.431284 0.616883 0.959150 -0.523651
C11   C     C_3   0.641684 0.507286 0.935267 -0.458915
C12   C     C_3   0.433614 0.617596 0.058533 0.345402
C13   C     C_3   0.644373 0.504809 0.033441 0.316781
C14   C     C_1   0.501537 0.499455 0.249560 -0.143830
C15   C     C_3   0.497018 0.501839 0.917661 0.185018
C16   C     C_3   0.194451 0.607393 0.084454 -0.318232
C17   C     C_3   0.383081 0.171455 0.096339 -0.331155
C18   C     C_3   0.149303 0.324012 0.408848 -0.115635
C19   C     C_3   0.165107 0.708164 0.627362 -0.160991
C20   C     C_3   0.831259 0.327252 0.350493 -0.095842
C21   C     C_3   0.854809 0.590652 0.052035 -0.361630
C22   C     C_3   0.499187 0.500588 0.082826 0.069823
C23   C     C_3   0.419531 0.379931 0.056291 0.303694
C24   C     C_3   0.418858 0.381838 0.957737 -0.471584
C25   C     C_1   0.501052 0.499764 0.174320 0.068254
C26   C     C_1   0.497073 0.501076 0.826111 -0.030788
C27   C     C_1   0.497922 0.500602 0.750657 -0.186804
C28   C     C_2   0.586902 0.864000 0.479028 -0.362807
H1    H     H_    0.502175 0.700066 0.070124 0.168470
H2    H     H_    0.698794 0.593097 0.906318 0.208338
H3    H     H_    0.686599 0.417488 0.048773 0.141579
H4    H     H_    0.314634 0.376224 0.945333 0.141650
H5    H     H_    0.463774 0.298857 0.926357 0.211375
H6    H     H_    0.315815 0.380465 0.091183 0.112283
H7    H     H_    0.191063 0.517970 0.048537 0.137186
H8    H     H_    0.175336 0.685253 0.044453 0.165581
H9    H     H_    0.112354 0.598400 0.139857 0.194167
H10   H     H_    0.326172 0.151610 0.042289 0.160033
H11   H     H_    0.314637 0.187839 0.157120 0.160231
H12   H     H_    0.331789 0.617672 0.940539 0.183473
H13   H     H_    0.434433 0.087770 0.105452 0.205173
H14   H     H_    0.094221 0.271116 0.362777 0.161424
H15   H     H_    0.118944 0.280812 0.473655 0.136489
H16   H     H_    0.254363 0.310496 0.384243 0.156946
H17   H     H_    0.179690 0.770124 0.570257 0.128210
H18   H     H_    0.260995 0.696639 0.648550 0.197899
H19   H     H_    0.103304 0.755217 0.680608 0.138370
H20   H     H_    0.847212 0.415357 0.313120 0.155849
H21   H     H_    0.725876 0.290164 0.360699 0.175494
H22   H     H_    0.886490 0.257349 0.310433 0.102822
H23   H     H_    0.614525 0.104849 0.451605 0.193791
H24   H     H_    0.895711 0.558387 0.986282 0.163461
H25   H     H_    0.868362 0.522272 0.101067 0.159636
H26   H     H_    0.912138 0.679392 0.064914 0.197899
H27   H     H_    0.386713 0.892518 0.472500 0.182347
H28   H     H_    0.311496 0.094958 0.513459 0.144477
H29   H     H_    0.688225 0.904909 0.477498 0.153338
H30   H     H_    0.896107 0.589709 0.545007 0.105911
H31   H     H_    0.488383 0.703102 0.930800 0.167502
H32   H     H_    0.691103 0.426582 0.903899 0.158735
N1    N     N_2   0.842720 0.448890 0.465540 0.073709
N2    N     N_2   0.157250 0.551040 0.534500 0.023372
O1    O     O_R   0.431050 0.692470 0.506940 -0.634568
O2    O     O_3   0.479173 0.273649 0.078161 -0.614893
O3    O     O_3   0.129357 0.451861 0.405354 -0.610618
O4    O     O_3   0.098485 0.592399 0.611488 -0.597623
O5    O     O_3   0.879996 0.341026 0.429045 -0.555606
O6    O     O_3   0.719956 0.612418 0.058677 -0.608604
O7    O     O_R   0.651130 0.659650 0.484820 -0.625544
O8    O     O_R   0.389910 0.516410 0.633920 -0.602903
O9    O     O_R   0.609990 0.483590 0.611800 -0.606833
O10   O     O_R   0.348870 0.340350 0.515180 -0.634364
O11   O     O_R   0.568950 0.307530 0.493060 -0.598412
O12   O     O_R   0.390010 0.516410 0.388200 -0.566542
O13   O     O_R   0.610090 0.483590 0.366080 -0.646540
O14   O     O_3   0.314263 0.635796 0.116796 -0.594775
Zn1   Zn    Zn3+2 0.353060 0.521920 0.514770 0.986961
Zn2   Zn    Zn3+2 0.646940 0.478080 0.485230 0.969310

loop_
_geom_bond_atom_site_label_1
_geom_bond_atom_site_label_2
_ccdc_geom_bond_type
C18   O3    S    
C1    C28   S    
C20   H22   S    
C9    C14   S    
C24   H4    S    
C7    N2    D    
C6    C7    S    
C18   H16   S    
C12   H1    S    
C7    O3    S    
C3    H28   S    
C6    H30   S    
N2    Zn1   S    
C24   H5    S    
N1    Zn2   S    
C2    H27   S    
C23   H6    S    
C4    O8    A    
C10   H31   S    
O7    Zn2   S    
C19   H18   S    
C1    O7    A    
C16   H7    S    
C20   H20   S    
C28   H29   S    
C16   H8    S    
O8    Zn1   S    
C21   H25   S    
C13   O6    S    
C11   C13   S    
C20   O5    S    
C26   C27   T    
C20   H21   S    
C10   C12   S    
C1    O1    A    
C6    N1    D    
C15   C24   S    
C4    O9    A    
C13   H3    S    
C13   C22   S    
C19   H19   S    
C17   H10   S    
C12   O14   S    
C21   O6    S    
O1    Zn1   S    
C21   H26   S    
O13   Zn2   S    
C17   H13   S    
C8    O10   A    
C2    C5    S    
C9    O12   A    
N2    O4    S    
C23   C24   S    
C11   H32   S    
C16   O14   S    
C23   O2    S    
C21   H24   S    
C4    C27   S    
C12   C22   S    
C14   C25   T    
C11   H2    S    
C19   O4    S    
C10   H12   S    
C3    C8    S    
C17   H11   S    
N1    O5    S    
C22   C23   S    
C8    O11   A    
C15   C26   S    
C2    C28   D    
C17   O2    S    
C9    O13   A    
O10   Zn1   S    
C10   C15   S    
C18   H15   S    
O11   Zn2   S    
C11   C15   S    
C22   C25   S    
O9    Zn2   S    
C5    H23   S    
C19   H17   S    
C18   H14   S    
C16   H9    S    
C3    C5    D    
O12   Zn1   S    
