data_mof_unit_54103.cif
_audit_creation_date              2012-12-10T17:20:58-0500
_audit_creation_method            fapswitch 2.2
_symmetry_space_group_name_H-M    P1
_symmetry_Int_Tables_number       1
_space_group_crystal_system       triclinic
_cell_length_a                    21.715409
_cell_length_b                    21.71541
_cell_length_c                    29.139498
_cell_angle_alpha                 89.999911
_cell_angle_beta                  89.999888
_cell_angle_gamma                 90.004891
_cell_volume                      13740.9927715

loop_
_atom_site_label
_atom_site_type_symbol
_atom_type_description
_atom_site_fract_x
_atom_site_fract_y
_atom_site_fract_z
_atom_type_partial_charge
C1    C     C_R   0.500003 0.119980 0.500004 0.919739
C2    C     C_R   0.718243 0.453809 0.475436 -0.013600
C3    C     C_R   0.189111 0.576774 0.435118 0.338888
C4    C     C_R   0.423220 0.810888 0.564878 0.338892
C5    C     C_R   0.810910 0.576685 0.564927 0.338879
C6    C     C_R   0.576784 0.189117 0.564876 0.338848
C7    C     C_R   0.189109 0.423224 0.564874 0.338885
C8    C     C_R   0.923132 0.689110 0.935185 0.338927
C9    C     C_R   0.310888 0.923145 0.935170 0.338916
C10   C     C_R   0.076751 0.310908 0.935112 0.338892
C11   C     C_R   0.689117 0.076797 0.935133 0.338869
C12   C     C_R   0.923197 0.310882 0.064863 0.338872
C13   C     C_R   0.546198 0.718253 0.475456 -0.013619
C14   C     C_R   0.310891 0.076861 0.064819 0.338924
C15   C     C_R   0.076861 0.689113 0.064826 0.338919
C16   C     C_R   0.689091 0.923257 0.064893 0.338890
C17   C     C_R   0.370701 0.218839 0.417563 -0.034479
C18   C     C_R   0.781126 0.370588 0.417648 -0.034420
C19   C     C_R   0.629437 0.781149 0.417682 -0.034406
C20   C     C_R   0.218874 0.629395 0.417630 -0.034494
C21   C     C_R   0.370597 0.781126 0.582363 -0.034496
C22   C     C_R   0.781162 0.629288 0.582447 -0.034479
C23   C     C_R   0.629420 0.218875 0.582345 -0.034422
C24   C     C_R   0.281753 0.546202 0.475439 -0.013680
C25   C     C_R   0.218850 0.370573 0.582327 -0.034408
C26   C     C_R   0.870449 0.718847 0.917782 -0.034413
C27   C     C_R   0.281135 0.870484 0.917736 -0.034431
C28   C     C_R   0.129390 0.281169 0.917639 -0.034409
C29   C     C_R   0.718876 0.129436 0.917669 -0.034437
C30   C     C_R   0.870556 0.281124 0.082324 -0.034440
C31   C     C_R   0.281154 0.129541 0.082226 -0.034413
C32   C     C_R   0.129523 0.718865 0.082258 -0.034434
C33   C     C_R   0.718829 0.870621 0.082370 -0.034407
C34   C     C_R   0.359308 0.280515 0.429249 0.392625
C35   C     C_R   0.453795 0.718247 0.524559 -0.013681
C36   C     C_R   0.719434 0.359237 0.429327 0.392611
C37   C     C_R   0.640813 0.719476 0.429397 0.392572
C38   C     C_R   0.280559 0.640759 0.429313 0.392619
C39   C     C_R   0.359234 0.719440 0.570680 0.392620
C40   C     C_R   0.719485 0.640682 0.570762 0.392627
C41   C     C_R   0.640770 0.280566 0.570665 0.392612
C42   C     C_R   0.280523 0.359196 0.570613 0.392573
C43   C     C_R   0.859105 0.780529 0.929487 0.392657
C44   C     C_R   0.219443 0.859147 0.929420 0.392717
C45   C     C_R   0.140763 0.219489 0.929328 0.392688
C46   C     C_R   0.718261 0.546171 0.524584 -0.013714
C47   C     C_R   0.780564 0.140787 0.929354 0.392631
C48   C     C_R   0.859206 0.219436 0.070639 0.392632
C49   C     C_R   0.219471 0.140886 0.070523 0.392658
C50   C     C_R   0.140859 0.780557 0.070573 0.392717
C51   C     C_R   0.780510 0.859246 0.070683 0.392689
C52   C     C_R   0.402588 0.312332 0.455998 -0.309335
C53   C     C_R   0.687630 0.402564 0.456036 -0.309202
C54   C     C_R   0.597470 0.687657 0.456089 -0.309241
C55   C     C_R   0.312363 0.597448 0.456036 -0.309256
C56   C     C_R   0.402548 0.687637 0.543959 -0.309257
C57   C     C_R   0.546193 0.281757 0.524561 -0.013601
C58   C     C_R   0.687669 0.597407 0.544009 -0.309337
C59   C     C_R   0.597440 0.312370 0.543959 -0.309203
C60   C     C_R   0.312342 0.402535 0.543918 -0.309244
C61   C     C_R   0.902493 0.812350 0.956135 -0.309337
C62   C     C_R   0.187633 0.902512 0.956089 -0.309341
C63   C     C_R   0.097440 0.187666 0.956033 -0.309368
C64   C     C_R   0.812370 0.097451 0.956053 -0.309262
C65   C     C_R   0.902544 0.187630 0.043941 -0.309263
C66   C     C_R   0.187650 0.097502 0.043872 -0.309338
C67   C     C_R   0.097492 0.812367 0.043906 -0.309342
C68   C     C_R   0.281747 0.453804 0.524547 -0.013621
C69   C     C_R   0.812334 0.902565 0.043973 -0.309369
C70   C     C_R   0.672133 0.184985 0.613174 0.209341
C71   C     C_R   0.689805 0.209828 0.655764 -0.087305
C72   C     C_R   0.730223 0.177504 0.684338 -0.154520
C73   C     C_R   0.752887 0.120063 0.670916 -0.104815
C74   C     C_R   0.735337 0.094841 0.628807 -0.159219
C75   C     C_R   0.695232 0.127093 0.599997 -0.082282
C76   C     C_R   0.815044 0.671911 0.613351 0.209468
C77   C     C_R   0.790223 0.689389 0.655989 -0.087322
C78   C     C_R   0.822566 0.729682 0.684653 -0.154333
C79   C     C_R   0.953777 0.781750 0.975480 -0.013647
C80   C     C_R   0.879996 0.752423 0.671266 -0.104841
C81   C     C_R   0.905189 0.735074 0.629104 -0.159189
C82   C     C_R   0.872922 0.695086 0.600207 -0.082253
C83   C     C_R   0.327921 0.815001 0.613228 0.209449
C84   C     C_R   0.310358 0.790169 0.655846 -0.087297
C85   C     C_R   0.269995 0.822490 0.684466 -0.154418
C86   C     C_R   0.247272 0.879913 0.671055 -0.104839
C87   C     C_R   0.264707 0.905119 0.628914 -0.159186
C88   C     C_R   0.304763 0.872873 0.600061 -0.082273
C89   C     C_R   0.184959 0.327864 0.613165 0.209237
C90   C     C_R   0.218244 0.953775 0.975464 -0.013709
C91   C     C_R   0.209852 0.310120 0.655723 -0.087313
C92   C     C_R   0.177532 0.269698 0.684302 -0.154552
C93   C     C_R   0.120040 0.247106 0.670919 -0.104804
C94   C     C_R   0.094768 0.264729 0.628844 -0.159237
C95   C     C_R   0.127019 0.304833 0.600026 -0.082273
C96   C     C_R   0.672151 0.815040 0.386847 0.209223
C97   C     C_R   0.689910 0.790142 0.344294 -0.087313
C98   C     C_R   0.730340 0.822461 0.315720 -0.154565
C99   C     C_R   0.752922 0.879956 0.329102 -0.104803
C100  C     C_R   0.735283 0.905234 0.371171 -0.159239
C101  C     C_R   0.046188 0.218259 0.975433 -0.013708
C102  C     C_R   0.695173 0.872985 0.399985 -0.082273
C103  C     C_R   0.815015 0.327878 0.386816 0.209342
C104  C     C_R   0.790173 0.310212 0.344225 -0.087306
C105  C     C_R   0.822498 0.269798 0.315648 -0.154513
C106  C     C_R   0.879939 0.247132 0.329070 -0.104816
C107  C     C_R   0.905159 0.264675 0.371180 -0.159219
C108  C     C_R   0.872906 0.304777 0.399993 -0.082281
C109  C     C_R   0.328072 0.184956 0.386663 0.209460
C110  C     C_R   0.310581 0.209779 0.344028 -0.087322
C111  C     C_R   0.270280 0.177438 0.315369 -0.154345
C112  C     C_R   0.880020 0.499997 0.499995 0.919751
C113  C     C_R   0.781757 0.046201 0.975446 -0.013632
C114  C     C_R   0.247546 0.120005 0.328757 -0.104839
C115  C     C_R   0.264909 0.094810 0.370916 -0.159190
C116  C     C_R   0.304903 0.127076 0.399808 -0.082254
C117  C     C_R   0.184999 0.672068 0.386763 0.209449
C118  C     C_R   0.209831 0.689625 0.344144 -0.087297
C119  C     C_R   0.177509 0.729985 0.315521 -0.154410
C120  C     C_R   0.120086 0.752711 0.328931 -0.104841
C121  C     C_R   0.094880 0.735281 0.371074 -0.159186
C122  C     C_R   0.127127 0.695228 0.399929 -0.082273
C123  C     C_R   0.172275 0.684971 0.113055 0.209309
C124  C     C_R   0.953797 0.218243 0.024551 -0.013633
C125  C     C_R   0.190025 0.709821 0.155624 -0.087304
C126  C     C_R   0.230489 0.677499 0.184164 -0.154618
C127  C     C_R   0.253117 0.620049 0.170729 -0.104815
C128  C     C_R   0.235487 0.594818 0.128642 -0.159222
C129  C     C_R   0.195338 0.627070 0.099865 -0.082271
C130  C     C_R   0.315060 0.172316 0.113004 0.209254
C131  C     C_R   0.290192 0.190152 0.155548 -0.087318
C132  C     C_R   0.322521 0.230648 0.184061 -0.154690
C133  C     C_R   0.379999 0.253220 0.170630 -0.104799
C134  C     C_R   0.405249 0.235505 0.128571 -0.159240
C135  C     C_R   0.218250 0.046221 0.024522 -0.013650
C136  C     C_R   0.372987 0.195329 0.099817 -0.082278
C137  C     C_R   0.827839 0.315010 0.113152 0.209362
C138  C     C_R   0.810169 0.290166 0.155742 -0.087295
C139  C     C_R   0.769748 0.322487 0.184316 -0.154514
C140  C     C_R   0.747080 0.379926 0.170892 -0.104825
C141  C     C_R   0.764626 0.405148 0.128783 -0.159218
C142  C     C_R   0.804735 0.372899 0.099973 -0.082280
C143  C     C_R   0.684929 0.827934 0.113218 0.209317
C144  C     C_R   0.709773 0.810282 0.155811 -0.087317
C145  C     C_R   0.677432 0.769900 0.184407 -0.154455
C146  C     C_R   0.046227 0.781756 0.024534 -0.013710
C147  C     C_R   0.619972 0.747250 0.171002 -0.104825
C148  C     C_R   0.594752 0.764778 0.128890 -0.159227
C149  C     C_R   0.627020 0.804849 0.100058 -0.082251
C150  C     C_R   0.172082 0.315070 0.886795 0.209316
C151  C     C_R   0.189744 0.290225 0.844204 -0.087317
C152  C     C_R   0.230133 0.322565 0.815614 -0.154469
C153  C     C_R   0.252780 0.380025 0.829020 -0.104822
C154  C     C_R   0.235241 0.405247 0.871129 -0.159227
C155  C     C_R   0.195164 0.372979 0.899957 -0.082253
C156  C     C_R   0.315029 0.827735 0.886936 0.209309
C157  C     C_R   0.781741 0.953815 0.024570 -0.013710
C158  C     C_R   0.290179 0.809990 0.844366 -0.087304
C159  C     C_R   0.322502 0.769530 0.815823 -0.154612
C160  C     C_R   0.379952 0.746900 0.829258 -0.104816
C161  C     C_R   0.405183 0.764524 0.871346 -0.159222
C162  C     C_R   0.372930 0.804670 0.900126 -0.082270
C163  C     C_R   0.827669 0.684941 0.887008 0.209247
C164  C     C_R   0.809821 0.709812 0.844468 -0.087318
C165  C     C_R   0.769318 0.677483 0.815959 -0.154705
C166  C     C_R   0.746752 0.620004 0.829391 -0.104796
C167  C     C_R   0.764479 0.594751 0.871446 -0.159241
C168  C     C_R   0.459597 0.218180 0.469822 -0.049436
C169  C     C_R   0.804662 0.627012 0.900196 -0.082280
C170  C     C_R   0.684990 0.172149 0.886839 0.209362
C171  C     C_R   0.709833 0.189814 0.844247 -0.087295
C172  C     C_R   0.677512 0.230231 0.815670 -0.154506
C173  C     C_R   0.620073 0.252902 0.829093 -0.104827
C174  C     C_R   0.594852 0.235361 0.871204 -0.159218
C175  C     C_R   0.627101 0.195256 0.900017 -0.082280
C176  C     C_R   0.781806 0.459559 0.469840 -0.049502
C177  C     C_R   0.540439 0.781810 0.469849 -0.049500
C178  C     C_R   0.218191 0.540446 0.469843 -0.049446
C179  C     C_R   0.459551 0.781809 0.530155 -0.049445
C180  C     C_R   0.499998 0.880019 0.499998 0.919646
C181  C     C_R   0.781820 0.540399 0.530180 -0.049435
C182  C     C_R   0.540444 0.218194 0.530158 -0.049501
C183  C     C_R   0.218189 0.459564 0.530153 -0.049499
C184  C     C_R   0.959524 0.718191 0.969876 -0.049493
C185  C     C_R   0.281807 0.959520 0.969868 -0.049424
C186  C     C_R   0.040425 0.281818 0.969836 -0.049434
C187  C     C_R   0.718194 0.040452 0.969850 -0.049481
C188  C     C_R   0.959545 0.281805 0.030148 -0.049480
C189  C     C_R   0.281810 0.040473 0.030127 -0.049491
C190  C     C_R   0.040482 0.718193 0.030130 -0.049422
C191  C     C_R   0.119981 0.500002 0.500002 0.919655
C192  C     C_R   0.718181 0.959578 0.030166 -0.049432
C193  C     C_R   0.499999 0.313211 0.499997 -0.106345
C194  C     C_R   0.686789 0.500001 0.500003 -0.106351
C195  C     C_R   0.499993 0.686788 0.500003 -0.106286
C196  C     C_R   0.313212 0.500007 0.499997 -0.106292
C197  C     C_R   0.000006 0.813214 0.000003 -0.106238
C198  C     C_R   0.186786 0.999994 0.999997 -0.106244
C199  C     C_R   0.999999 0.186789 0.999996 -0.106323
C200  C     C_R   0.813211 0.000001 0.000004 -0.106329
C201  C     C_R   0.500013 0.186191 0.499997 -0.174409
C202  C     C_R   0.000002 0.619981 0.999999 0.919508
C203  C     C_R   0.813809 0.499987 0.500003 -0.174405
C204  C     C_R   0.499992 0.813807 0.499999 -0.174431
C205  C     C_R   0.186192 0.500008 0.500001 -0.174427
C206  C     C_R   0.000006 0.686194 0.999999 -0.174467
C207  C     C_R   0.313806 0.999994 0.000001 -0.174463
C208  C     C_R   0.999989 0.313808 0.999997 -0.174431
C209  C     C_R   0.686191 0.000011 0.000003 -0.174426
C210  C     C_R   0.621076 0.500010 0.500000 0.885845
C211  C     C_R   0.499992 0.621075 0.500000 0.885843
C212  C     C_R   0.378925 0.500008 0.499999 0.885840
C213  C     C_R   0.380019 0.999998 0.000001 0.919519
C214  C     C_R   0.499990 0.378924 0.500000 0.885848
C215  C     C_R   0.121075 0.999992 0.999999 0.885843
C216  C     C_R   0.000007 0.121076 1.000000 0.885843
C217  C     C_R   0.878924 0.999992 0.000000 0.885840
C218  C     C_R   0.000008 0.878926 0.000000 0.885847
C219  C     C_R   0.500000 0.999997 0.414277 0.919528
C220  C     C_R   1.000000 0.500000 0.414277 0.919432
C221  C     C_R   0.500000 0.000000 0.585723 0.919420
C222  C     C_R   0.000002 0.500000 0.585723 0.919544
C223  C     C_R   0.000000 0.500003 0.914277 0.919373
C224  C     C_R   0.999997 0.380020 0.000002 0.919689
C225  C     C_R   0.499999 1.000000 0.914277 0.919340
C226  C     C_R   1.000000 0.500001 0.085723 0.919328
C227  C     C_R   0.499997 1.000000 0.085723 0.919390
C228  C     C_1   0.500000 0.999998 0.363450 -0.145093
C229  C     C_1   1.000000 0.500000 0.363450 -0.145144
C230  C     C_1   0.500000 0.000000 0.636550 -0.145153
C231  C     C_1   0.000002 0.500000 0.636550 -0.145082
C232  C     C_1   0.000000 0.500002 0.863449 -0.145189
C233  C     C_1   0.499999 0.000000 0.863449 -0.145216
C234  C     C_1   1.000000 0.500001 0.136550 -0.145225
C235  C     C_R   0.619980 0.000003 0.999998 0.919702
C236  C     C_1   0.499997 1.000000 0.136550 -0.145178
C237  C     C_1   0.500000 0.999998 0.321138 0.018073
C238  C     C_1   1.000000 0.500000 0.321138 0.018066
C239  C     C_1   0.500000 0.000000 0.678862 0.018066
C240  C     C_1   0.000002 0.500000 0.678862 0.018074
C241  C     C_1   0.000001 0.500002 0.821138 0.018058
C242  C     C_1   0.499999 0.000000 0.821138 0.018054
C243  C     C_1   1.000000 0.500001 0.178862 0.018053
C244  C     C_1   0.499998 0.999999 0.178862 0.018059
C245  C     C_1   0.499999 0.999998 0.271159 0.013645
C246  C     C_R   0.453826 0.281739 0.475419 -0.013711
C247  C     C_1   0.999999 0.500000 0.271159 0.013640
C248  C     C_1   0.499999 0.000000 0.728841 0.013640
C249  C     C_1   0.000002 0.500001 0.728841 0.013645
C250  C     C_1   0.000001 0.500001 0.771158 0.013640
C251  C     C_1   0.499999 0.000000 0.771158 0.013637
C252  C     C_1   0.999999 0.500001 0.228841 0.013636
C253  C     C_1   0.499999 0.999998 0.228841 0.013641
C254  C     C_R   0.423307 0.189091 0.435078 0.338881
C255  C     C_R   0.810884 0.423222 0.435120 0.338845
C256  C     C_R   0.576783 0.810890 0.435131 0.338887
H1    H     H_    0.394713 0.360698 0.462485 0.152295
H2    H     H_    0.139257 0.894678 0.962560 0.152244
H3    H     H_    0.133791 0.513594 0.413741 0.313390
H4    H     H_    0.486399 0.866208 0.586259 0.313391
H5    H     H_    0.866214 0.513477 0.586265 0.313400
H6    H     H_    0.513610 0.133795 0.586264 0.313388
H7    H     H_    0.133811 0.486411 0.586264 0.313411
H8    H     H_    0.986289 0.633813 0.913745 0.313410
H9    H     H_    0.366199 0.986307 0.913746 0.313401
H10   H     H_    0.013557 0.366205 0.913736 0.313418
H11   H     H_    0.633797 0.013626 0.913739 0.313399
H12   H     H_    0.986367 0.366202 0.086260 0.313400
H13   H     H_    0.105297 0.139295 0.962511 0.152283
H14   H     H_    0.366188 0.013702 0.086256 0.313409
H15   H     H_    0.013700 0.633802 0.086254 0.313401
H16   H     H_    0.633794 0.986454 0.086264 0.313418
H17   H     H_    0.305155 0.351874 0.425312 0.339917
H18   H     H_    0.648024 0.305139 0.425373 0.339922
H19   H     H_    0.695006 0.648135 0.425576 0.339932
H20   H     H_    0.351957 0.694874 0.425363 0.339915
H21   H     H_    0.305119 0.648043 0.574627 0.339916
H22   H     H_    0.648127 0.694835 0.574705 0.339915
H23   H     H_    0.694868 0.351977 0.574615 0.339922
H24   H     H_    0.860742 0.105300 0.962536 0.152291
H25   H     H_    0.351865 0.305005 0.574441 0.339931
H26   H     H_    0.804936 0.851890 0.925673 0.339940
H27   H     H_    0.148039 0.805033 0.925514 0.339932
H28   H     H_    0.194923 0.148130 0.925434 0.339930
H29   H     H_    0.851961 0.194908 0.925435 0.339927
H30   H     H_    0.805084 0.148039 0.074554 0.339928
H31   H     H_    0.148111 0.195055 0.074342 0.339939
H32   H     H_    0.194974 0.851961 0.074476 0.339932
H33   H     H_    0.851869 0.805086 0.074581 0.339929
H34   H     H_    0.894697 0.139258 0.037459 0.152287
H35   H     H_    0.139278 0.105340 0.037388 0.152225
H36   H     H_    0.105325 0.860744 0.037435 0.152241
H37   H     H_    0.860704 0.894706 0.037496 0.152288
H38   H     H_    0.672037 0.253924 0.666986 0.149509
H39   H     H_    0.744058 0.196941 0.716905 0.127235
H40   H     H_    0.784072 0.095117 0.693139 0.132571
H41   H     H_    0.639260 0.394710 0.462521 0.152297
H42   H     H_    0.752955 0.050353 0.618413 0.136187
H43   H     H_    0.682466 0.107110 0.567287 0.148510
H44   H     H_    0.746138 0.671557 0.667181 0.149369
H45   H     H_    0.803157 0.743356 0.717263 0.127230
H46   H     H_    0.904957 0.783509 0.693561 0.132592
H47   H     H_    0.949668 0.752750 0.618737 0.136201
H48   H     H_    0.892887 0.682463 0.567464 0.148399
H49   H     H_    0.328175 0.746086 0.667057 0.149403
H50   H     H_    0.256253 0.803067 0.717061 0.127220
H51   H     H_    0.216129 0.904857 0.693312 0.132573
H52   H     H_    0.605330 0.639292 0.462588 0.152226
H53   H     H_    0.247043 0.949594 0.618529 0.136185
H54   H     H_    0.317450 0.892846 0.567328 0.148395
H55   H     H_    0.253986 0.327833 0.666918 0.149579
H56   H     H_    0.197010 0.255802 0.716845 0.127229
H57   H     H_    0.095096 0.215919 0.693146 0.132563
H58   H     H_    0.050241 0.247168 0.618480 0.136193
H59   H     H_    0.106995 0.317652 0.567338 0.148621
H60   H     H_    0.672205 0.746005 0.333100 0.149592
H61   H     H_    0.744248 0.802979 0.283181 0.127230
H62   H     H_    0.784115 0.904900 0.306878 0.132561
H63   H     H_    0.360734 0.605305 0.462521 0.152262
H64   H     H_    0.752838 0.949765 0.381534 0.136193
H65   H     H_    0.682343 0.893012 0.432670 0.148633
H66   H     H_    0.746078 0.327982 0.333004 0.149507
H67   H     H_    0.803062 0.255968 0.283079 0.127235
H68   H     H_    0.904885 0.215950 0.306844 0.132572
H69   H     H_    0.949647 0.247056 0.381574 0.136188
H70   H     H_    0.892889 0.317538 0.432704 0.148510
H71   H     H_    0.328408 0.253867 0.332835 0.149377
H72   H     H_    0.256595 0.196849 0.282763 0.127230
H73   H     H_    0.216455 0.095045 0.306467 0.132590
H74   H     H_    0.394692 0.639266 0.537474 0.152258
H75   H     H_    0.247237 0.050329 0.381283 0.136200
H76   H     H_    0.317536 0.107109 0.432549 0.148405
H77   H     H_    0.253912 0.671807 0.332934 0.149401
H78   H     H_    0.196931 0.743723 0.282925 0.127219
H79   H     H_    0.095142 0.783851 0.306672 0.132574
H80   H     H_    0.050406 0.752947 0.381458 0.136186
H81   H     H_    0.107154 0.682546 0.432663 0.148396
H82   H     H_    0.172286 0.753924 0.166858 0.149536
H83   H     H_    0.244387 0.696944 0.216713 0.127242
H84   H     H_    0.284338 0.595104 0.192926 0.132549
H85   H     H_    0.639303 0.605283 0.537523 0.152301
H86   H     H_    0.253077 0.550322 0.118238 0.136173
H87   H     H_    0.182512 0.607080 0.067171 0.148526
H88   H     H_    0.246069 0.172456 0.166780 0.149593
H89   H     H_    0.303059 0.244619 0.216587 0.127248
H90   H     H_    0.404949 0.284464 0.192808 0.132546
H91   H     H_    0.449764 0.253053 0.118169 0.136171
H92   H     H_    0.392991 0.182442 0.067141 0.148594
H93   H     H_    0.827941 0.246072 0.166965 0.149487
H94   H     H_    0.755915 0.303050 0.216885 0.127232
H95   H     H_    0.715892 0.404870 0.193115 0.132564
H96   H     H_    0.605293 0.360740 0.537473 0.152293
H97   H     H_    0.747004 0.449635 0.118387 0.136174
H98   H     H_    0.817500 0.392882 0.067262 0.148481
H99   H     H_    0.753881 0.828041 0.167021 0.149497
H100  H     H_    0.696866 0.756083 0.216978 0.127237
H101  H     H_    0.595013 0.716093 0.193244 0.132567
H102  H     H_    0.550250 0.747173 0.118510 0.136191
H103  H     H_    0.607035 0.817601 0.067347 0.148533
H104  H     H_    0.171988 0.246116 0.832994 0.149501
H105  H     H_    0.243958 0.303129 0.783045 0.127237
H106  H     H_    0.283942 0.404983 0.806782 0.132565
H107  H     H_    0.360708 0.394674 0.537420 0.152231
H108  H     H_    0.252844 0.449749 0.881511 0.136190
H109  H     H_    0.182405 0.392965 0.932666 0.148534
H110  H     H_    0.246077 0.827731 0.833133 0.149535
H111  H     H_    0.303058 0.755635 0.783273 0.127242
H112  H     H_    0.404897 0.715681 0.807059 0.132550
H113  H     H_    0.449678 0.746932 0.881750 0.136174
H114  H     H_    0.392919 0.817491 0.932821 0.148527
H115  H     H_    0.827512 0.753936 0.833235 0.149601
H116  H     H_    0.755337 0.696948 0.783437 0.127249
H117  H     H_    0.715502 0.595054 0.807217 0.132545
H118  H     H_    0.894657 0.860723 0.962619 0.152220
H119  H     H_    0.746936 0.550234 0.881849 0.136170
H120  H     H_    0.817557 0.607006 0.932869 0.148600
H121  H     H_    0.753927 0.172040 0.833025 0.149485
H122  H     H_    0.696948 0.244060 0.783100 0.127231
H123  H     H_    0.595129 0.284086 0.806868 0.132565
H124  H     H_    0.550366 0.252985 0.881599 0.136175
H125  H     H_    0.607119 0.182495 0.932729 0.148482
H126  H     H_    0.486513 0.133788 0.413735 0.313402
H127  H     H_    0.866206 0.486397 0.413735 0.313387
H128  H     H_    0.513597 0.866187 0.413736 0.313414
O1    O     O_R   0.551720 0.091610 0.499990 -0.595004
O2    O     O_R   0.408390 0.051720 0.999990 -0.595009
O3    O     O_R   0.948280 0.408390 0.999990 -0.594978
O4    O     O_R   0.591610 0.948280 0.999990 -0.595004
O5    O     O_R   0.051720 0.408390 0.000010 -0.595001
O6    O     O_R   0.408390 0.948280 0.000010 -0.594956
O7    O     O_R   0.948280 0.591610 0.000010 -0.595009
O8    O     O_R   0.591610 0.051720 0.000010 -0.594980
O9    O     O_R   0.551720 0.000010 0.436860 -0.586036
O10   O     O_R   0.999990 0.551720 0.436860 -0.585944
O11   O     O_R   0.448280 0.999990 0.436860 -0.585959
O12   O     O_R   0.908390 0.551720 0.499990 -0.594989
O13   O     O_R   0.000010 0.448280 0.436860 -0.585973
O14   O     O_R   0.551720 0.999990 0.563140 -0.585970
O15   O     O_R   0.999990 0.448280 0.563140 -0.586036
O16   O     O_R   0.448280 0.000010 0.563140 -0.585942
O17   O     O_R   0.000010 0.551720 0.563140 -0.585960
O18   O     O_R   0.051720 0.500010 0.936860 -0.585958
O19   O     O_R   0.499990 0.051720 0.936860 -0.585947
O20   O     O_R   0.948280 0.499990 0.936860 -0.585975
O21   O     O_R   0.500010 0.948280 0.936860 -0.585941
O22   O     O_R   0.051720 0.499990 0.063140 -0.585938
O23   O     O_R   0.448280 0.908390 0.499990 -0.594960
O24   O     O_R   0.499990 0.948280 0.063140 -0.585962
O25   O     O_R   0.948280 0.500010 0.063140 -0.585944
O26   O     O_R   0.500010 0.051720 0.063140 -0.585976
O27   O     O_R   0.591590 0.499990 0.535660 -0.624640
O28   O     O_R   0.500010 0.591590 0.535660 -0.624652
O29   O     O_R   0.408410 0.500010 0.535660 -0.624630
O30   O     O_R   0.499990 0.408410 0.535660 -0.624614
O31   O     O_R   0.591590 0.500010 0.464340 -0.624613
O32   O     O_R   0.500010 0.408410 0.464340 -0.624640
O33   O     O_R   0.408410 0.499990 0.464340 -0.624651
O34   O     O_R   0.091610 0.448280 0.499990 -0.595053
O35   O     O_R   0.499990 0.591590 0.464340 -0.624630
O36   O     O_R   0.091590 0.999990 0.035660 -0.624630
O37   O     O_R   0.000010 0.091590 0.035660 -0.624610
O38   O     O_R   0.908410 0.000010 0.035660 -0.624634
O39   O     O_R   0.999990 0.908410 0.035660 -0.624649
O40   O     O_R   0.091590 0.000010 0.964340 -0.624648
O41   O     O_R   0.000010 0.908410 0.964340 -0.624631
O42   O     O_R   0.908410 0.999990 0.964340 -0.624609
O43   O     O_R   0.999990 0.091590 0.964340 -0.624634
O44   O     O_3   0.440882 0.134683 0.414487 -0.763177
O45   O     O_R   0.551720 0.908390 0.500010 -0.595054
O46   O     O_3   0.865294 0.440767 0.414513 -0.763153
O47   O     O_3   0.559227 0.865283 0.414506 -0.763213
O48   O     O_3   0.134700 0.559224 0.414515 -0.763114
O49   O     O_3   0.440769 0.865299 0.585483 -0.763108
O50   O     O_3   0.865319 0.559108 0.585516 -0.763182
O51   O     O_3   0.559240 0.134707 0.585485 -0.763148
O52   O     O_3   0.134715 0.440781 0.585495 -0.763214
O53   O     O_3   0.940660 0.634720 0.914543 -0.763109
O54   O     O_3   0.365288 0.940677 0.914543 -0.763089
O55   O     O_3   0.059188 0.365308 0.914502 -0.763167
O56   O     O_R   0.908390 0.448280 0.500010 -0.595008
O57   O     O_3   0.634709 0.059256 0.914521 -0.763119
O58   O     O_3   0.940737 0.365290 0.085476 -0.763113
O59   O     O_3   0.365282 0.059331 0.085459 -0.763114
O60   O     O_3   0.059329 0.634713 0.085455 -0.763085
O61   O     O_3   0.634691 0.940823 0.085501 -0.763175
O62   O     O_3   0.306467 0.309040 0.413530 -0.772655
O63   O     O_3   0.690886 0.306382 0.413647 -0.772730
O64   O     O_3   0.693708 0.690958 0.413772 -0.772744
O65   O     O_3   0.309105 0.693606 0.413615 -0.772682
O66   O     O_3   0.306386 0.690894 0.586375 -0.772683
O67   O     O_R   0.448280 0.091610 0.500010 -0.594989
O68   O     O_3   0.690961 0.693521 0.586487 -0.772651
O69   O     O_3   0.693627 0.309114 0.586341 -0.772730
O70   O     O_3   0.309041 0.306304 0.586244 -0.772738
O71   O     O_3   0.806194 0.809052 0.913896 -0.772736
O72   O     O_3   0.190899 0.806268 0.913780 -0.772734
O73   O     O_3   0.193633 0.190968 0.913659 -0.772712
O74   O     O_3   0.809109 0.193650 0.913686 -0.772709
O75   O     O_3   0.806341 0.190891 0.086303 -0.772709
O76   O     O_3   0.190949 0.193794 0.086119 -0.772734
O77   O     O_3   0.193739 0.809101 0.086210 -0.772734
O78   O     O_R   0.091610 0.551720 0.500010 -0.594962
O79   O     O_3   0.809031 0.806378 0.086356 -0.772710
O80   O     O_R   0.051720 0.591610 0.999990 -0.594953
Zn1   Zn    Zn3+2 0.569070 0.000000 0.500000 0.983275
Zn2   Zn    Zn3+2 0.500000 0.500000 0.452400 0.955789
Zn3   Zn    Zn3+2 0.000000 0.000000 0.047600 0.955799
Zn4   Zn    Zn3+2 0.000000 0.000000 0.952400 0.955800
Zn5   Zn    Zn3+2 0.000000 0.569070 0.500000 0.983421
Zn6   Zn    Zn3+2 0.430930 0.000000 0.500000 0.983418
Zn7   Zn    Zn3+2 0.000000 0.430930 0.500000 0.983280
Zn8   Zn    Zn3+2 0.069070 0.500000 0.000000 0.983352
Zn9   Zn    Zn3+2 0.500000 0.069070 0.000000 0.983321
Zn10  Zn    Zn3+2 0.930930 0.500000 0.000000 0.983318
Zn11  Zn    Zn3+2 0.500000 0.930930 0.000000 0.983351
Zn12  Zn    Zn3+2 0.500000 0.500000 0.547600 0.955788

loop_
_geom_bond_atom_site_label_1
_geom_bond_atom_site_label_2
_ccdc_geom_bond_type
C144  H99   S    
C126  C127  A    
C220  O13   A    
C96   C102  A    
C162  H114  S    
C8    C26   A    
C185  C207  A    
C23   C70   S    
C125  H82   S    
C114  C115  A    
C15   C32   A    
C247  C252  T    
C157  C192  A    
O31   Zn2   S    
C98   H61   S    
C242  C251  S    
C46   C181  A    
C31   C130  S    
C141  H97   S    
C84   H49   S    
C57   C59   A    
C106  C107  A    
C10   C28   A    
C143  C144  A    
C26   C163  S    
C79   C184  A    
C107  H69   S    
O40   Zn4   S    
C110  C111  A    
H25   O70   S    
C19   C37   A    
C121  H80   S    
C14   C189  A    
C190  C206  A    
C38   C55   A    
C21   C83   S    
O23   Zn6   S    
C238  C247  S    
C129  H87   S    
O22   Zn8   S    
C48   C65   A    
C15   O60   S    
C62   H2    S    
C83   C88   A    
C240  C249  S    
C165  H116  S    
C173  H123  S    
H10   O55   S    
C176  C203  A    
H22   O68   S    
C210  O27   A    
C104  C105  A    
O35   Zn2   S    
C7    O52   S    
C161  C162  A    
O34   Zn7   S    
C5    O50   S    
C40   C58   A    
C212  O33   A    
C232  C241  T    
C37   O64   S    
C140  C141  A    
C47   C64   A    
C144  C145  A    
C166  H117  S    
C245  C253  T    
C134  H91   S    
C239  C248  S    
C209  C235  S    
C140  H95   S    
C224  O5    A    
C136  H92   S    
O38   Zn3   S    
C227  O24   A    
C39   C56   A    
C168  C254  A    
C177  C204  A    
C237  C245  S    
C148  C149  A    
C60   H107  S    
O25   Zn10  S    
O78   Zn5   S    
O3    Zn10  S    
C108  H70   S    
C158  C159  A    
C18   C255  A    
C17   C34   A    
C4    C179  A    
C197  C218  S    
O14   Zn1   S    
C118  H77   S    
C223  C232  S    
C43   C61   A    
C13   C54   A    
C105  C106  A    
C27   C156  S    
C10   O55   S    
O5    Zn8   S    
C214  O32   A    
C72   C73   A    
C2    C53   A    
C17   C109  S    
C139  C140  A    
C186  C208  A    
H23   O69   S    
C23   C41   A    
C7    C183  A    
C156  C158  A    
C130  C131  A    
O39   Zn3   S    
O41   Zn4   S    
C222  O15   A    
C122  H81   S    
C56   H74   S    
C196  C212  S    
C143  C149  A    
C98   C99   A    
C57   C193  A    
C51   C69   A    
C131  H88   S    
O18   Zn8   S    
C213  O2    A    
C65   H34   S    
C87   H53   S    
C137  C142  A    
H6    O51   S    
C182  C201  A    
C147  C148  A    
C22   C76   S    
H4    O49   S    
C212  O29   A    
C12   O58   S    
C128  C129  A    
C97   C98   A    
C167  C169  A    
C85   C86   A    
C124  C199  A    
C249  C250  T    
C220  C229  S    
C29   C47   A    
C30   C48   A    
C169  H120  S    
C191  C205  S    
C145  H100  S    
C78   C80   A    
C170  C171  A    
O36   Zn3   S    
O6    Zn11  S    
C58   H85   S    
C155  H109  S    
C65   C124  A    
C104  H66   S    
C174  C175  A    
C11   O57   S    
C27   C44   A    
C187  C209  A    
C93   H57   S    
C221  C230  S    
C69   C157  A    
C193  C246  A    
C211  O28   A    
C219  C228  S    
C89   C91   A    
C50   C67   A    
H19   O64   S    
C202  O7    A    
H12   O58   S    
O80   Zn8   S    
C46   C58   A    
C214  O30   A    
C32   C123  S    
C230  C239  T    
C181  C203  A    
C158  H110  S    
C219  O11   A    
C81   H47   S    
C57   C182  A    
C82   H48   S    
C46   C194  A    
C35   C179  A    
H5    O50   S    
C17   C254  A    
C121  C122  A    
C49   C66   A    
C50   O77   S    
C45   O73   S    
C138  C139  A    
C76   C82   A    
C91   C92   A    
C124  C188  A    
C211  O35   A    
O37   Zn3   S    
O56   Zn7   S    
C43   O71   S    
O8    Zn9   S    
C223  O20   A    
C231  C240  T    
O2    Zn9   S    
C117  C122  A    
C210  O31   A    
C194  C210  S    
C36   O63   S    
C19   C256  A    
C83   C84   A    
C174  H124  S    
H26   O71   S    
C66   H35   S    
C142  H98   S    
C1    O1    A    
C150  C155  A    
C183  C205  A    
C74   H42   S    
O1    Zn1   S    
C120  C121  A    
O15   Zn7   S    
C154  H108  S    
H29   O74   S    
C138  H93   S    
C35   C56   A    
H11   O57   S    
C180  O45   A    
H27   O72   S    
C128  H86   S    
C101  C199  A    
C208  C224  S    
O33   Zn2   S    
C226  C234  S    
C157  C200  A    
C63   H13   S    
C71   C72   A    
C202  O80   A    
C117  C118  A    
C176  C255  A    
O16   Zn6   S    
H14   O59   S    
C64   H24   S    
C139  H94   S    
C10   C186  A    
C75   H43   S    
C39   O66   S    
C233  C242  T    
C42   O70   S    
O42   Zn4   S    
C152  C153  A    
O30   Zn12  S    
C70   C75   A    
C150  C151  A    
C110  H71   S    
C219  O9    A    
C85   H50   S    
C191  O78   A    
C115  H75   S    
C221  O14   A    
C87   C88   A    
C73   C74   A    
C161  H113  S    
C1    C201  S    
O13   Zn7   S    
C222  O17   A    
C215  O36   A    
C226  O25   A    
C80   H46   S    
C68   C183  A    
C216  O43   A    
C77   C78   A    
C33   C143  S    
C227  C236  S    
C225  O19   A    
C93   C94   A    
C223  O18   A    
C73   H40   S    
C167  H119  S    
C164  C165  A    
C116  H76   S    
C3    C178  A    
C123  C125  A    
C24   C196  A    
C113  C187  A    
C184  C206  A    
C40   O68   S    
C159  H111  S    
O67   Zn6   S    
H9    O54   S    
C109  C116  A    
C61   H118  S    
C97   H60   S    
C151  C152  A    
C70   C71   A    
C9    O54   S    
C111  H72   S    
C14   C31   A    
C35   C195  A    
C30   C137  S    
C200  C217  S    
C31   C49   A    
C224  O3    A    
C198  C215  S    
C5    C181  A    
C20   C117  S    
C145  C147  A    
C170  C175  A    
H18   O63   S    
C130  C136  A    
C148  H102  S    
C16   O61   S    
C3    O48   S    
C84   C85   A    
C86   C87   A    
C256  O47   S    
C67   H36   S    
C94   H58   S    
C55   H63   S    
C2    C194  A    
C8    O53   S    
C89   C95   A    
O19   Zn9   S    
C6    O51   S    
C133  C134  A    
C171  H121  S    
C159  C160  A    
C4    O49   S    
O27   Zn12  S    
C68   C196  A    
O26   Zn9   S    
C48   O75   S    
H31   O76   S    
C180  O23   A    
C86   H51   S    
C1    O67   A    
C6    C182  A    
C153  H106  S    
C175  H125  S    
C244  C253  S    
C125  C126  A    
C51   O79   S    
C217  O38   A    
C254  O44   S    
C131  C132  A    
C127  H84   S    
C9    C27   A    
C216  O37   A    
C172  H122  S    
C177  C256  A    
C225  O21   A    
C188  C208  A    
H128  O47   S    
C12   C30   A    
C241  C250  S    
C54   H52   S    
C180  C204  S    
C25   C42   A    
C119  C120  A    
C90   C185  A    
C218  O39   A    
C33   C51   A    
H15   O60   S    
C34   C52   A    
C151  H104  S    
C7    C25   A    
O7    Zn10  S    
C225  C233  S    
O4    Zn11  S    
C49   O76   S    
C95   H59   S    
C228  C237  T    
C109  C110  A    
O43   Zn4   S    
C189  C207  A    
C13   C177  A    
C52   H1    S    
C92   C93   A    
C113  C200  A    
H7    O52   S    
C111  C114  A    
C18   C103  S    
C94   C95   A    
C163  C169  A    
C72   H39   S    
C192  C209  A    
H126  O44   S    
H16   O61   S    
C66   C135  A    
H3    O48   S    
C34   O62   S    
C60   C68   A    
C13   C195  A    
C103  C104  A    
C105  H67   S    
C235  O4    A    
C160  H112  S    
C112  C203  S    
C229  C238  T    
C18   C36   A    
C115  C116  A    
C149  H103  S    
H8    O53   S    
C78   H45   S    
C168  C246  A    
C171  C172  A    
C178  C205  A    
O10   Zn5   S    
C28   C150  S    
C165  C166  A    
C79   C197  A    
C163  C164  A    
C53   H41   S    
C213  O6    A    
C63   C101  A    
C135  C198  A    
C81   C82   A    
C193  C214  S    
C173  C174  A    
C24   C55   A    
H30   O75   S    
C147  H101  S    
C11   C187  A    
H28   O73   S    
C25   C89   S    
C61   C79   A    
C44   O72   S    
C9    C185  A    
C59   H96   S    
O11   Zn6   S    
C12   C188  A    
O24   Zn11  S    
C62   C90   A    
C207  C213  S    
C168  C201  A    
O21   Zn11  S    
C118  C119  A    
C135  C189  A    
C16   C192  A    
C2    C176  A    
C164  H115  S    
C5    C22   A    
C133  H90   S    
C255  O46   S    
C132  C133  A    
C235  O8    A    
C29   C170  S    
C215  O40   A    
C248  C251  T    
C234  C243  T    
C8    C184  A    
H127  O46   S    
C156  C162  A    
C119  H78   S    
C123  C129  A    
C14   O59   S    
C221  O16   A    
C26   C43   A    
C126  H83   S    
C28   C45   A    
C74   C75   A    
C199  C216  S    
C102  H65   S    
C3    C20   A    
C76   C77   A    
C41   C59   A    
O28   Zn12  S    
C226  O22   A    
C42   C60   A    
C134  C136  A    
C44   C62   A    
C120  H79   S    
C45   C63   A    
O29   Zn12  S    
O9    Zn1   S    
C71   H38   S    
H20   O65   S    
C99   H62   S    
C195  C211  S    
C36   C53   A    
C16   C33   A    
C20   C38   A    
C112  O12   A    
C99   C100  A    
C21   C39   A    
C107  C108  A    
C22   C40   A    
C96   C97   A    
C67   C146  A    
C100  C102  A    
C154  C155  A    
C32   C50   A    
C100  H64   S    
O12   Zn5   S    
C77   H44   S    
O17   Zn5   S    
C37   C54   A    
C15   C190  A    
C222  C231  S    
C166  C167  A    
H21   O66   S    
C101  C186  A    
C172  C173  A    
C218  O41   A    
C92   H56   S    
H33   O79   S    
C106  H68   S    
C64   C113  A    
O45   Zn1   S    
C80   C81   A    
C52   C246  A    
C191  O34   A    
C38   O65   S    
C90   C198  A    
C91   H55   S    
H17   O62   S    
O32   Zn2   S    
C137  C138  A    
C88   H54   S    
C220  O10   A    
C160  C161  A    
C236  C244  T    
C146  C197  A    
H32   O77   S    
C114  H73   S    
C141  C142  A    
C24   C178  A    
C4    C21   A    
C152  H105  S    
C6    C23   A    
C243  C252  S    
C217  O42   A    
C69   H37   S    
C112  O56   A    
C227  O26   A    
C179  C204  A    
C11   C29   A    
C41   O69   S    
C132  H89   S    
C202  C206  S    
C146  C190  A    
C103  C108  A    
C153  C154  A    
O20   Zn10  S    
C19   C96   S    
C127  C128  A    
C47   O74   S    
