data_mof_unit_38256.cif
_audit_creation_date              2012-12-11T16:28:15-0500
_audit_creation_method            fapswitch 2.2
_symmetry_space_group_name_H-M    P1
_symmetry_Int_Tables_number       1
_space_group_crystal_system       triclinic
_cell_length_a                    30.148322
_cell_length_b                    22.503341
_cell_length_c                    18.102116
_cell_angle_alpha                 89.911097
_cell_angle_beta                  123.423105
_cell_angle_gamma                 89.932433
_cell_volume                      10250.1327018

loop_
_atom_site_label
_atom_site_type_symbol
_atom_type_description
_atom_site_fract_x
_atom_site_fract_y
_atom_site_fract_z
_atom_type_partial_charge
C1    C     C_R   0.532292 0.607145 0.707413 -0.131226
C2    C     C_R   0.454866 0.419983 0.256471 -0.149090
C3    C     C_R   0.455274 0.580789 0.257040 -0.129054
C4    C     C_R   0.543946 0.418697 0.742087 -0.128399
C5    C     C_R   0.033813 0.103833 0.713844 -0.130679
C6    C     C_R   0.955393 0.919381 0.257130 -0.146769
C7    C     C_R   0.962978 0.102251 0.280742 -0.126432
C8    C     C_R   0.039666 0.904788 0.729095 -0.130219
C9    C     C_R   0.300851 0.598093 0.566202 -0.160838
C10   C     C_R   0.607837 0.261131 0.428699 -0.164231
C11   C     C_R   0.680460 0.641235 0.416038 -0.173870
C12   C     C_R   0.317480 0.365988 0.584436 -0.175102
C13   C     C_R   0.800976 0.099556 0.565705 -0.166396
C14   C     C_R   0.109643 0.762227 0.429439 -0.162897
C15   C     C_R   0.144808 0.207845 0.423178 -0.176374
C16   C     C_R   0.866905 0.781813 0.577942 -0.167218
C17   C     C_R   0.256681 0.618286 0.564783 -0.178665
C18   C     C_R   0.632182 0.208696 0.427975 -0.182612
C19   C     C_R   0.723150 0.661742 0.414185 -0.163472
C20   C     C_R   0.274705 0.343986 0.584713 -0.160190
C21   C     C_R   0.756505 0.119369 0.563614 -0.181522
C22   C     C_R   0.132831 0.708640 0.429533 -0.182336
C23   C     C_R   0.165261 0.262771 0.422353 -0.162258
C24   C     C_R   0.843293 0.728746 0.576749 -0.163998
C25   C     C_R   0.217375 0.651948 0.492653 0.115330
C26   C     C_R   0.682139 0.192645 0.502177 0.115246
C27   C     C_R   0.775185 0.653585 0.487906 0.117286
C28   C     C_R   0.223495 0.346508 0.507362 0.116888
C29   C     C_R   0.717772 0.153960 0.492178 0.117461
C30   C     C_R   0.182986 0.692486 0.503151 0.119686
C31   C     C_R   0.185467 0.300957 0.495315 0.119079
C32   C     C_R   0.816299 0.694514 0.499366 0.116248
C33   C     C_R   0.369152 0.611476 0.111353 0.131235
C34   C     C_R   0.628810 0.387333 0.888284 0.130956
C35   C     C_R   0.591852 0.699262 0.776859 0.132064
C36   C     C_R   0.369147 0.388388 0.111473 0.131906
C37   C     C_R   0.902163 0.192957 0.207543 0.132543
C38   C     C_R   0.105211 0.821486 0.818432 0.133477
C39   C     C_R   0.096227 0.191645 0.794301 0.132977
C40   C     C_R   0.870542 0.886221 0.112235 0.131358
C41   C     C_R   0.361046 0.644973 0.976763 -0.212885
C42   C     C_R   0.634008 0.351203 0.019340 -0.213562
C43   C     C_R   0.579618 0.777262 0.856525 -0.213176
C44   C     C_R   0.362115 0.355328 0.977726 -0.213117
C45   C     C_R   0.915309 0.272118 0.130308 -0.213491
C46   C     C_R   0.093510 0.745997 0.901891 -0.212822
C47   C     C_R   0.084734 0.267491 0.877420 -0.212652
C48   C     C_R   0.865504 0.850632 0.981218 -0.215626
C49   C     C_R   0.392176 0.623013 0.063253 -0.170324
C50   C     C_R   0.604084 0.373176 0.932911 -0.173529
C51   C     C_R   0.562451 0.724857 0.807611 -0.170075
C52   C     C_R   0.392732 0.376695 0.064312 -0.172541
C53   C     C_R   0.931234 0.218224 0.175919 -0.168385
C54   C     C_R   0.078891 0.800227 0.857280 -0.174630
C55   C     C_R   0.068521 0.214593 0.829784 -0.171857
C56   C     C_R   0.895248 0.872590 0.067437 -0.175087
C57   C     C_R   0.314137 0.617739 0.069026 -0.256776
C58   C     C_R   0.684204 0.383045 0.933816 -0.258632
C59   C     C_R   0.636457 0.729381 0.790413 -0.255706
C60   C     C_R   0.314012 0.382262 0.068272 -0.258005
C61   C     C_R   0.858974 0.224346 0.197436 -0.254453
C62   C     C_R   0.144953 0.786730 0.822091 -0.250781
C63   C     C_R   0.138438 0.224202 0.802876 -0.254887
C64   C     C_R   0.815197 0.880712 0.067212 -0.260657
C65   C     C_R   0.282423 0.640979 0.983367 0.080809
C66   C     C_R   0.714928 0.360266 0.020072 0.080164
C67   C     C_R   0.655172 0.781490 0.841219 0.079513
C68   C     C_R   0.282598 0.360228 0.981770 0.081355
C69   C     C_R   0.841854 0.278266 0.150868 0.079555
C70   C     C_R   0.160726 0.732324 0.867397 0.078696
C71   C     C_R   0.156310 0.276863 0.852461 0.079569
C72   C     C_R   0.784504 0.858533 0.980555 0.081034
C73   C     C_R   0.306924 0.657123 0.938435 0.191397
C74   C     C_R   0.688810 0.341880 0.061491 0.190093
C75   C     C_R   0.627013 0.804139 0.877037 0.189503
C76   C     C_R   0.307754 0.344268 0.937821 0.193133
C77   C     C_R   0.869646 0.301031 0.114441 0.190488
C78   C     C_R   0.135176 0.712782 0.909464 0.192044
C79   C     C_R   0.129590 0.297461 0.891993 0.190417
C80   C     C_R   0.810762 0.841131 0.938961 0.190423
C81   C     C_R   0.228844 0.656885 0.947751 0.073871
C82   C     C_R   0.769748 0.347940 0.060777 0.072918
C83   C     C_R   0.704385 0.807480 0.865693 0.071466
C84   C     C_R   0.228214 0.346507 0.942991 0.072663
C85   C     C_R   0.794243 0.306246 0.130900 0.072700
C86   C     C_R   0.204925 0.700167 0.879919 0.072738
C87   C     C_R   0.203432 0.305778 0.871807 0.075317
C88   C     C_R   0.729404 0.846978 0.938525 0.071875
C89   C     C_R   0.644656 0.581354 0.571401 -0.139544
C90   C     C_R   0.355201 0.419088 0.428052 -0.121558
C91   C     C_R   0.355432 0.582102 0.425676 -0.125683
C92   C     C_R   0.626059 0.391390 0.574576 -0.126090
C93   C     C_R   0.133232 0.102234 0.572810 -0.131407
C94   C     C_R   0.872345 0.892461 0.426120 -0.128085
C95   C     C_R   0.855504 0.082276 0.426164 -0.138973
C96   C     C_R   0.128817 0.893446 0.573664 -0.117877
C97   C     C_R   0.799960 0.372972 0.030517 -0.215864
C98   C     C_R   0.199954 0.634548 0.982149 -0.214886
C99   C     C_R   0.198748 0.369510 0.975914 -0.213545
C100  C     C_R   0.730527 0.793507 0.822782 -0.212035
C101  C     C_R   0.228180 0.712067 0.831617 -0.208767
C102  C     C_R   0.768738 0.291777 0.174754 -0.212504
C103  C     C_R   0.699056 0.871564 0.968819 -0.214502
C104  C     C_R   0.228150 0.293353 0.826071 -0.215643
C105  C     C_R   0.849991 0.350685 0.059073 -0.231842
C106  C     C_R   0.153026 0.661598 0.961614 -0.232016
C107  C     C_R   0.149428 0.346101 0.948937 -0.231623
C108  C     C_R   0.782546 0.811737 0.857794 -0.233985
C109  C     C_R   0.277944 0.688956 0.859138 -0.237707
C110  C     C_R   0.717159 0.311115 0.141745 -0.232013
C111  C     C_R   0.647914 0.851441 0.936452 -0.230990
C112  C     C_R   0.279012 0.314206 0.857233 -0.235975
C113  C     C_R   0.593672 0.583342 0.424303 -0.124957
C114  C     C_R   0.405629 0.418114 0.575294 -0.126274
C115  C     C_R   0.403696 0.581407 0.572719 -0.135316
C116  C     C_R   0.575756 0.389956 0.426685 -0.127005
C117  C     C_R   0.084010 0.101912 0.425658 -0.120530
C118  C     C_R   0.920459 0.893222 0.573695 -0.120972
C119  C     C_R   0.904199 0.082352 0.573098 -0.131828
C120  C     C_R   0.076953 0.891007 0.426224 -0.130501
C121  C     C_R   0.381765 0.582387 0.258373 -0.122546
C122  C     C_R   0.618095 0.418514 0.743067 -0.137205
C123  C     C_R   0.606734 0.608330 0.707495 -0.126454
C124  C     C_R   0.381691 0.417635 0.258471 -0.120281
C125  C     C_R   0.890568 0.105248 0.285810 -0.126897
C126  C     C_R   0.113738 0.903751 0.729960 -0.136620
C127  C     C_R   0.109862 0.103308 0.719636 -0.132388
C128  C     C_R   0.881790 0.918163 0.257518 -0.138586
C129  C     C_R   0.577753 0.640355 0.733408 0.054504
C130  C     C_R   0.401349 0.404522 0.206486 0.058897
C131  C     C_R   0.401562 0.595722 0.206566 0.054863
C132  C     C_R   0.597557 0.404022 0.793432 0.058546
C133  C     C_R   0.081144 0.134393 0.746772 0.054652
C134  C     C_R   0.901972 0.903854 0.206703 0.061348
C135  C     C_R   0.917112 0.134900 0.253552 0.054243
C136  C     C_R   0.088389 0.876776 0.766081 0.055954
C137  C     C_R   0.643678 0.596992 0.496316 0.036576
C138  C     C_R   0.355477 0.405098 0.503021 0.035077
C139  C     C_R   0.354155 0.596080 0.498564 0.038599
C140  C     C_R   0.612648 0.357328 0.501377 0.034337
C141  C     C_R   0.123574 0.132239 0.498599 0.030862
C142  C     C_R   0.883846 0.860457 0.500281 0.032919
C143  C     C_R   0.854790 0.097465 0.499148 0.039084
C144  C     C_R   0.115442 0.859427 0.500559 0.032136
C145  C     C_R   0.219903 0.659223 0.418066 -0.165611
C146  C     C_R   0.703910 0.225403 0.580532 -0.163013
C147  C     C_R   0.784111 0.618746 0.559245 -0.183231
C148  C     C_R   0.214584 0.379164 0.434305 -0.181484
C149  C     C_R   0.721549 0.163374 0.419183 -0.165176
C150  C     C_R   0.206241 0.726734 0.580411 -0.159615
C151  C     C_R   0.180621 0.285641 0.565641 -0.188894
C152  C     C_R   0.818485 0.710724 0.426585 -0.182533
C153  C     C_R   0.263759 0.639037 0.419418 -0.175576
C154  C     C_R   0.679634 0.277480 0.581364 -0.164945
C155  C     C_R   0.741242 0.598292 0.561211 -0.167332
C156  C     C_R   0.257519 0.401407 0.434074 -0.159613
C157  C     C_R   0.765656 0.143415 0.421096 -0.173897
C158  C     C_R   0.183123 0.779983 0.580421 -0.178170
C159  C     C_R   0.160243 0.230475 0.566524 -0.159693
C160  C     C_R   0.842178 0.764045 0.427745 -0.162253
C161  C     C_R   0.305689 0.610847 0.495033 0.140400
C162  C     C_R   0.632997 0.297531 0.503988 0.143708
C163  C     C_R   0.689168 0.611952 0.491310 0.142824
C164  C     C_R   0.309471 0.391518 0.507275 0.142384
C165  C     C_R   0.806652 0.113497 0.495779 0.143264
C166  C     C_R   0.136095 0.799739 0.503391 0.149120
C167  C     C_R   0.144156 0.190464 0.496808 0.149923
C168  C     C_R   0.864224 0.801289 0.501977 0.145496
H1    H     H_    0.702886 0.392487 0.899025 0.114910
H2    H     H_    0.296733 0.610201 0.106245 0.114257
H3    H     H_    0.296260 0.389689 0.105035 0.114057
H4    H     H_    0.658746 0.709502 0.766755 0.115572
H5    H     H_    0.164661 0.803591 0.791798 0.114637
H6    H     H_    0.836760 0.204635 0.221347 0.114869
H7    H     H_    0.796631 0.889342 0.102438 0.114613
H8    H     H_    0.158981 0.206254 0.774686 0.111597
H9    H     H_    0.561479 0.376656 0.900328 0.112132
H10   H     H_    0.434410 0.617584 0.093196 0.112022
H11   H     H_    0.435051 0.381680 0.094980 0.111247
H12   H     H_    0.527242 0.703595 0.796922 0.113434
H13   H     H_    0.047309 0.825483 0.854000 0.111388
H14   H     H_    0.965604 0.196092 0.184435 0.112287
H15   H     H_    0.937769 0.876674 0.099656 0.112001
H16   H     H_    0.035194 0.191117 0.823000 0.113492
H17   H     H_    0.679412 0.578098 0.638153 0.086234
H18   H     H_    0.320921 0.421863 0.360784 0.083421
H19   H     H_    0.321611 0.578620 0.358066 0.084620
H20   H     H_    0.652808 0.379568 0.643247 0.094234
H21   H     H_    0.165161 0.111021 0.639987 0.088640
H22   H     H_    0.844752 0.880521 0.357739 0.094324
H23   H     H_    0.821206 0.078242 0.359085 0.089656
H24   H     H_    0.158743 0.883341 0.641398 0.084303
H25   H     H_    0.340846 0.579979 0.238246 0.081627
H26   H     H_    0.659364 0.422179 0.765544 0.083808
H27   H     H_    0.644243 0.619632 0.716870 0.092758
H28   H     H_    0.340742 0.419729 0.238380 0.081960
H29   H     H_    0.852598 0.115727 0.275284 0.089460
H30   H     H_    0.155105 0.899454 0.753383 0.086791
H31   H     H_    0.150536 0.110745 0.741350 0.087065
H32   H     H_    0.840560 0.921382 0.235533 0.084862
H33   H     H_    0.190731 0.685696 0.361967 0.115313
H34   H     H_    0.742589 0.214530 0.638599 0.115593
H35   H     H_    0.824067 0.611434 0.616318 0.115224
H36   H     H_    0.175092 0.382356 0.374544 0.114395
H37   H     H_    0.692938 0.190815 0.363896 0.113910
H38   H     H_    0.245084 0.715813 0.638051 0.110970
H39   H     H_    0.195765 0.314708 0.622242 0.121503
H40   H     H_    0.798348 0.684474 0.366588 0.117700
H41   H     H_    0.266266 0.649142 0.363336 0.112108
H42   H     H_    0.699939 0.303911 0.640976 0.107729
H43   H     H_    0.749031 0.573791 0.618678 0.108671
H44   H     H_    0.250012 0.423362 0.375022 0.106099
H45   H     H_    0.769022 0.154562 0.366153 0.108286
H46   H     H_    0.204389 0.807127 0.639195 0.103318
H47   H     H_    0.157816 0.218752 0.622197 0.105415
H48   H     H_    0.841408 0.776967 0.369442 0.114293
H49   H     H_    0.754068 0.111102 0.620242 0.116329
H50   H     H_    0.113724 0.682233 0.369708 0.114122
H51   H     H_    0.169452 0.272975 0.367998 0.116226
H52   H     H_    0.841635 0.717797 0.633467 0.113300
H53   H     H_    0.255134 0.611489 0.622580 0.117824
H54   H     H_    0.614230 0.183369 0.367251 0.115031
H55   H     H_    0.715017 0.689140 0.358778 0.116615
H56   H     H_    0.282747 0.318800 0.641918 0.111874
H57   H     H_    0.871609 0.369738 0.032846 0.129584
H58   H     H_    0.132725 0.644810 0.991509 0.128682
H59   H     H_    0.128487 0.363562 0.977342 0.128751
H60   H     H_    0.801782 0.799384 0.824114 0.129992
H61   H     H_    0.295487 0.700278 0.822380 0.125778
H62   H     H_    0.698157 0.298048 0.175543 0.129780
H63   H     H_    0.626131 0.870305 0.962502 0.131117
H64   H     H_    0.297252 0.302907 0.821567 0.126959
N1    N     N_R   0.532910 0.558440 0.665240 -0.039882
N2    N     N_R   0.467090 0.441560 0.334760 -0.037172
N3    N     N_R   0.467090 0.558440 0.334760 -0.038214
N4    N     N_R   0.532910 0.441560 0.665240 -0.038320
N5    N     N_R   0.032910 0.058440 0.665240 -0.039907
N6    N     N_R   0.967090 0.941560 0.334760 -0.037136
N7    N     N_R   0.967090 0.058440 0.334760 -0.038447
N8    N     N_R   0.032910 0.941560 0.665240 -0.038078
N9    N     N_R   0.597030 0.558910 0.545540 -0.037260
N10   N     N_R   0.402970 0.441090 0.454460 -0.038546
N11   N     N_R   0.402970 0.558910 0.454460 -0.037066
N12   N     N_R   0.597030 0.441090 0.545540 -0.039376
N13   N     N_R   0.097030 0.058910 0.545540 -0.037771
N14   N     N_R   0.902970 0.941090 0.454460 -0.038777
N15   N     N_R   0.902970 0.058910 0.454460 -0.036503
N16   N     N_R   0.097030 0.941090 0.545540 -0.039789
N17   N     N_R   0.566200 0.559270 0.454460 -0.038108
N18   N     N_R   0.433800 0.440730 0.545540 -0.037929
N19   N     N_R   0.433800 0.559270 0.545540 -0.037323
N20   N     N_R   0.566200 0.440730 0.454460 -0.039613
N21   N     N_R   0.066200 0.059270 0.454460 -0.039344
N22   N     N_R   0.933800 0.940730 0.545540 -0.039855
N23   N     N_R   0.933800 0.059270 0.545540 -0.037930
N24   N     N_R   0.066200 0.940730 0.454460 -0.040782
N25   N     N_R   0.421050 0.559750 0.334770 -0.039634
N26   N     N_R   0.578950 0.440250 0.665230 -0.038974
N27   N     N_R   0.578950 0.559750 0.665230 -0.039928
N28   N     N_R   0.421050 0.440250 0.334770 -0.038671
N29   N     N_R   0.921050 0.059750 0.334770 -0.039255
N30   N     N_R   0.078950 0.940250 0.665230 -0.037567
N31   N     N_R   0.078950 0.059750 0.665230 -0.038431
N32   N     N_R   0.921050 0.940250 0.334770 -0.037913
Ni1   Ni    Ni4+2 0.483090 0.500000 0.604440 0.208351
Ni2   Ni    Ni4+2 0.516910 0.500000 0.395560 0.209646
Ni3   Ni    Ni4+2 0.983090 1.000000 0.604440 0.211806
Ni4   Ni    Ni4+2 0.016910 1.000000 0.395560 0.213505
Ni5   Ni    Ni4+2 0.586780 0.500000 0.604440 0.210393
Ni6   Ni    Ni4+2 0.413220 0.500000 0.395560 0.207102
Ni7   Ni    Ni4+2 0.086780 1.000000 0.604440 0.218039
Ni8   Ni    Ni4+2 0.913220 1.000000 0.395560 0.213556
H65   H     H_    0.500702 0.618595 0.716109 0.092555
H66   H     H_    0.480512 0.424245 0.232411 0.086467
H67   H     H_    0.481363 0.577385 0.233739 0.084344
H68   H     H_    0.517267 0.421625 0.764247 0.083902
H69   H     H_    0.002293 0.114550 0.723059 0.091884
H70   H     H_    0.981384 0.923188 0.233697 0.086862
H71   H     H_    0.989640 0.109368 0.259775 0.082238
H72   H     H_    0.012936 0.900438 0.750674 0.080590
H73   H     H_    0.380001 0.656170 0.942226 0.120612
H74   H     H_    0.613807 0.338188 0.051153 0.120943
H75   H     H_    0.557361 0.794962 0.882408 0.122984
H76   H     H_    0.381538 0.344222 0.943926 0.120283
H77   H     H_    0.937332 0.289811 0.103993 0.121443
H78   H     H_    0.073408 0.730973 0.933005 0.120820
H79   H     H_    0.063700 0.283453 0.906460 0.121589
H80   H     H_    0.885771 0.838303 0.949255 0.119992
H81   H     H_    0.785532 0.409948 0.984769 0.130564
H82   H     H_    0.213346 0.596371 0.025664 0.128492
H83   H     H_    0.213211 0.405794 0.022580 0.128480
H84   H     H_    0.711232 0.769040 0.761420 0.133792
H85   H     H_    0.208641 0.739221 0.772580 0.133932
H86   H     H_    0.788080 0.265709 0.234878 0.131698
H87   H     H_    0.714030 0.906865 0.017090 0.131282
H88   H     H_    0.208764 0.267830 0.765810 0.125684
H89   H     H_    0.581754 0.580758 0.356065 0.088408
H90   H     H_    0.417313 0.421662 0.643309 0.085164
H91   H     H_    0.413919 0.578259 0.639961 0.083662
H92   H     H_    0.556739 0.376944 0.358354 0.094618
H93   H     H_    0.070624 0.110348 0.358042 0.084108
H94   H     H_    0.935866 0.882321 0.641361 0.086266
H95   H     H_    0.914551 0.079731 0.640448 0.084266
H96   H     H_    0.057881 0.878058 0.357867 0.094866
H97   H     H_    0.331789 0.574455 0.624041 0.108522
H98   H     H_    0.570797 0.274358 0.369099 0.111924
H99   H     H_    0.640679 0.651929 0.360924 0.111418
H100  H     H_    0.357010 0.358477 0.642370 0.108779
H101  H     H_    0.831320 0.074821 0.622822 0.108987
H102  H     H_    0.072221 0.775163 0.370343 0.111598
H103  H     H_    0.131958 0.178026 0.368108 0.108281
H104  H     H_    0.883974 0.809105 0.636550 0.104854

loop_
_geom_bond_atom_site_label_1
_geom_bond_atom_site_label_2
_ccdc_geom_bond_type
C119  C143  A    
C120  C144  A    
N1    N27   A    
N2    N28   A    
C6    N6    A    
C3    C131  A    
N13   Ni7   S    
N14   Ni8   S    
N5    N31   A    
C10   H98   S    
C62   C70   A    
C115  H91   S    
N29   Ni8   S    
C110  H62   S    
C72   C88   A    
N30   Ni7   S    
C1    N1    A    
C37   C135  S    
C38   C136  S    
C147  C155  A    
C81   C86   A    
C97   C105  A    
C125  C135  A    
N3    Ni2   S    
C83   C88   A    
N24   Ni4   S    
C126  C136  A    
C10   C162  A    
C122  H26   S    
C7    H71   S    
C41   C49   A    
C43   C75   A    
C23   H51   S    
C46   H78   S    
C159  H47   S    
C90   H18   S    
C123  N27   A    
N13   N21   A    
C153  C161  A    
C23   C31   A    
C24   C32   A    
C36   C130  S    
C2    H66   S    
C146  C154  A    
C12   C20   A    
C20   H56   S    
C13   C21   A    
C93   N13   A    
C43   H75   S    
C24   H52   S    
C115  C139  A    
C83   C100  A    
C35   C51   A    
N4    Ni1   S    
C113  C137  A    
C25   C145  A    
C6    H70   S    
C99   C107  A    
C120  H96   S    
C104  C112  A    
C14   H102  S    
N4    N26   A    
N18   Ni1   S    
N8    N30   A    
C74   C110  A    
C82   C85   A    
C1    C129  A    
C98   C106  A    
C78   C106  A    
N5    Ni3   S    
C17   C25   A    
N6    Ni4   S    
C154  H42   S    
C101  H85   S    
N15   Ni8   S    
N16   Ni7   S    
C10   C18   A    
C147  H35   S    
C12   H100  S    
C159  C167  A    
N7    Ni4   S    
C13   H101  S    
C160  C168  A    
C17   H53   S    
C142  C168  S    
C96   C144  A    
C100  H84   S    
C34   C58   A    
C151  H39   S    
C33   C49   A    
C38   C62   A    
C44   H76   S    
C67   C83   A    
C111  H63   S    
C69   C77   A    
C71   C79   A    
C4    C132  A    
C5    C133  A    
C118  H94   S    
C103  C111  A    
C115  N19   A    
C140  C162  S    
C66   C74   A    
C113  N17   A    
C26   C146  A    
N26   Ni5   S    
C95   N15   A    
C117  N21   A    
C107  H59   S    
C55   H16   S    
C105  H57   S    
C14   C166  A    
N19   Ni1   S    
C20   C28   A    
C36   C52   A    
C76   C112  A    
C3    N3    A    
C44   C52   A    
N31   Ni7   S    
C45   C53   A    
C21   H49   S    
C4    N4    A    
C15   C167  A    
C90   C138  A    
C8    N8    A    
C100  C108  A    
C11   H99   S    
C94   C142  A    
C58   H1    S    
C150  H38   S    
C157  C165  A    
C137  C163  S    
C155  C163  A    
C62   H5    S    
C40   C134  S    
C151  C159  A    
C128  C134  A    
C31   C151  A    
C32   C152  A    
C124  H28   S    
C11   C163  A    
C8    H72   S    
C54   H13   S    
C9    C161  A    
C60   C68   A    
C42   C50   A    
N20   Ni2   S    
C90   N10   A    
C67   C75   A    
C69   C85   A    
C148  H36   S    
C57   H2    S    
C91   H19   S    
C113  H89   S    
C22   C30   A    
C97   H81   S    
C60   H3    S    
C89   H17   S    
C152  H40   S    
N9    N17   A    
C61   H6    S    
C7    N7    A    
C127  H31   S    
C92   H20   S    
C103  H87   S    
C93   H21   S    
C158  H46   S    
C80   C108  A    
C14   C22   A    
N11   Ni6   S    
C72   C80   A    
C53   H14   S    
N23   Ni3   S    
N9    Ni5   S    
C114  C138  A    
N28   Ni6   S    
C41   C73   A    
C125  N29   A    
N7    N29   A    
C45   C77   A    
C85   C102  A    
C121  N25   A    
C95   C143  A    
C8    C136  A    
N6    N32   A    
C18   C26   A    
C16   H104  S    
C63   H8    S    
C102  H86   S    
C11   C19   A    
C5    N5    A    
C98   H82   S    
C30   C150  A    
C70   C78   A    
C81   C98   A    
C101  C109  A    
C160  H48   S    
C45   H77   S    
C35   C59   A    
C143  C165  S    
C109  H61   S    
C2    N2    A    
C39   C55   A    
C40   C56   A    
N27   Ni5   S    
N32   Ni8   S    
C123  H27   S    
C121  H25   S    
C154  C162  A    
N21   Ni4   S    
N22   Ni3   S    
C141  C167  S    
C42   C74   A    
N12   Ni5   S    
C68   C84   A    
C139  C161  S    
C50   H9    S    
C19   H55   S    
C149  H37   S    
C46   C78   A    
N14   N22   A    
C118  C142  A    
C144  C166  S    
N10   N18   A    
C117  C141  A    
C128  H32   S    
C12   C164  A    
C13   C165  A    
C38   C54   A    
C46   C54   A    
C79   C107  A    
C3    H67   S    
C94   N14   A    
C71   C87   A    
C89   C137  A    
C82   C97   A    
C102  C110  A    
C68   C76   A    
C59   H4    S    
C92   C140  A    
C93   C141  A    
C158  C166  A    
C49   H10   S    
C39   C133  S    
C25   C30   S    
C150  C158  A    
C27   C32   S    
C84   C99   A    
C28   C31   S    
C127  C133  A    
C57   C65   A    
C119  N23   A    
C73   C109  A    
C56   H15   S    
C104  H88   S    
C108  H60   S    
C75   C111  A    
C112  H64   S    
N11   N19   A    
C77   C105  A    
C47   H79   S    
C153  H41   S    
C48   H80   S    
C43   C51   A    
C21   C29   A    
C91   C139  A    
C2    C130  A    
C127  N31   A    
C128  N32   A    
C18   H54   S    
C52   H11   S    
C87   C104  A    
C9    H97   S    
C124  N28   A    
C146  H34   S    
C117  H93   S    
C114  H90   S    
C148  C156  A    
C119  H95   S    
C149  C157  A    
C96   N16   A    
N15   N23   A    
C152  C160  A    
C156  H44   S    
C84   C87   A    
C47   C79   A    
C94   H22   S    
N10   Ni6   S    
C41   H73   S    
N2    Ni2   S    
C66   C82   A    
C114  N18   A    
C65   C73   A    
C126  N30   A    
C44   C76   A    
C118  N22   A    
C65   C81   A    
C122  N26   A    
C106  H58   S    
C19   C27   A    
C35   C129  S    
C1    H65   S    
C95   H23   S    
C59   C67   A    
C33   C131  S    
C15   C23   A    
C22   H50   S    
C125  H29   S    
C16   C24   A    
C123  C129  A    
N8    Ni3   S    
C121  C131  A    
C99   H83   S    
C122  C132  A    
C42   H74   S    
C58   C66   A    
C34   C50   A    
C124  C130  A    
C4    H68   S    
C5    H69   S    
C116  N20   A    
N1    Ni1   S    
N17   Ni2   S    
C120  N24   A    
C7    C135  A    
N3    N25   A    
C64   H7    S    
C156  C164  A    
C9    C17   A    
C91   N11   A    
C89   N9    A    
C51   H12   S    
C70   C86   A    
C88   C103  A    
C47   C55   A    
C61   C69   A    
C145  C153  A    
C48   C56   A    
C33   C57   A    
N12   N20   A    
C28   C148  A    
C63   C71   A    
C36   C60   A    
C37   C61   A    
N16   N24   A    
C39   C63   A    
C157  H45   S    
C40   C64   A    
C48   C80   A    
C155  H43   S    
C37   C53   A    
C6    C134  A    
C145  H33   S    
C92   N12   A    
C126  H30   S    
C16   C168  A    
C64   C72   A    
C96   H24   S    
C29   C149  A    
C34   C132  S    
C116  H92   S    
C26   C29   S    
C27   C147  A    
C138  C164  S    
N25   Ni6   S    
C86   C101  A    
C116  C140  A    
C15   H103  S    
