data_mof_unit_31524.cif
_audit_creation_date              2012-12-11T18:11:23-0500
_audit_creation_method            fapswitch 2.2
_symmetry_space_group_name_H-M    P1
_symmetry_Int_Tables_number       1
_space_group_crystal_system       triclinic
_cell_length_a                    8.266306
_cell_length_b                    12.843093
_cell_length_c                    18.660973
_cell_angle_alpha                 99.663375
_cell_angle_beta                  90.916352
_cell_angle_gamma                 98.407217
_cell_volume                      1930.37346193

loop_
_atom_site_label
_atom_site_type_symbol
_atom_type_description
_atom_site_fract_x
_atom_site_fract_y
_atom_site_fract_z
_atom_type_partial_charge
Ba1   Ba    Ba6+2 0.852780 0.548340 0.465070 1.698337
Ba2   Ba    Ba6+2 0.337060 0.451750 0.534940 1.743169
C1    C     C_3   0.557837 0.875142 0.234224 -0.353640
C2    C     C_R   0.906425 0.393028 0.095313 -0.081411
C3    C     C_R   0.766486 0.427620 0.957616 -0.096949
C4    C     C_3   0.124092 0.753528 0.262988 0.426649
C5    C     C_R   0.931988 0.464125 0.979591 0.021363
C6    C     C_R   0.708628 0.428645 0.887526 -0.055949
C7    C     C_R   0.813136 0.465369 0.835736 -0.012129
C8    C     C_R   0.974756 0.514211 0.858522 0.005821
C9    C     C_R   0.034413 0.514278 0.930946 0.029385
C10   C     C_R   0.761137 0.455186 0.761974 0.105561
C11   C     C_R   0.868498 0.494032 0.712364 -0.227387
C12   C     C_3   0.621180 0.812965 0.288488 0.349373
C13   C     C_R   0.023420 0.550142 0.734612 -0.005217
C14   C     C_R   0.076991 0.562054 0.808801 -0.058054
C15   C     C_R   0.157647 0.503255 0.072120 0.028668
C16   C     C_3   0.104706 0.779234 0.186953 -0.272184
C17   C     C_R   0.217708 0.499830 0.143973 0.000489
C18   C     C_R   0.116515 0.447769 0.192333 -0.026691
C19   C     C_R   0.967068 0.388725 0.164512 0.014389
C20   C     C_R   0.229050 0.620091 0.835095 -0.006075
C21   C     C_R   0.288398 0.619567 0.905308 -0.072545
C22   C     C_R   0.196578 0.562671 0.953572 0.000108
C23   C     C_3   0.477515 0.264351 0.303512 0.716025
C24   C     C_R   0.259592 0.555322 0.024016 0.022309
C25   C     C_R   0.423624 0.595059 0.047368 -0.100280
C26   C     C_R   0.379378 0.547381 0.167037 -0.034395
C27   C     C_R   0.481768 0.590927 0.116954 -0.098323
C28   C     C_3   0.233737 0.775960 0.609988 0.292121
C29   C     C_R   0.433889 0.550025 0.239509 -0.013647
C30   C     C_R   0.326331 0.508352 0.288590 -0.277287
C31   C     C_R   0.169075 0.455021 0.266380 0.069653
C32   C     C_R   0.758332 0.178835 0.526010 -0.261386
C33   C     C_R   0.434884 0.803698 0.464219 -0.333838
C34   C     C_3   0.599495 0.270949 0.243878 -0.308631
C35   C     C_R   0.405258 0.975520 0.433968 0.285853
C36   C     C_R   0.343010 0.869094 0.433734 -0.030511
C37   C     C_R   0.581255 0.845777 0.504301 0.064947
C38   C     C_R   0.643019 0.957708 0.510387 -0.102028
C39   C     C_R   0.553190 0.024381 0.475161 -0.109960
C40   C     C_3   0.293764 0.895477 0.621608 -0.410950
C41   C     C_R   0.613606 0.136604 0.485130 0.045207
C42   C     C_R   0.854299 0.113818 0.553635 0.063200
C43   C     C_R   0.793320 0.004714 0.549196 -0.001330
C44   C     C_3   0.955539 0.212752 0.379157 0.473990
C45   C     C_3   0.087906 0.257770 0.732995 0.361367
C46   C     C_3   0.881344 0.094569 0.357270 0.271717
C47   C     C_3   0.778773 0.755294 0.690909 0.705572
C48   C     C_3   0.905044 0.847895 0.728527 0.306028
C49   C     C_3   0.077481 0.242261 0.812073 -0.297345
C50   C     C_3   0.494524 0.184644 0.722068 0.599631
C51   C     C_3   0.429023 0.095882 0.763888 -0.263190
C52   C     C_R   0.995993 0.454609 0.049123 0.009305
Cl1   Cl    Cl    0.954767 0.032744 0.273633 -0.541244
Cl2   Cl    Cl    0.668313 0.695503 0.758506 -0.687146
Cl3   Cl    Cl    0.812463 0.948907 0.783599 -0.594329
Cl4   Cl    Cl    0.286888 0.212909 0.257217 -0.615527
Cl5   Cl    Cl    0.703147 0.174782 0.708825 -0.789834
Cl6   Cl    Cl    0.287170 0.034640 0.377182 -0.588766
H1    H     H_    0.704656 0.868685 0.329624 0.085859
H2    H     H_    0.494147 0.939241 0.263018 0.153036
H3    H     H_    0.971551 0.885313 0.686264 -0.007987
H4    H     H_    0.992197 0.818466 0.763371 0.036156
H5    H     H_    0.515445 0.779368 0.317653 -0.066046
H6    H     H_    0.471081 0.820528 0.193898 0.095063
H7    H     H_    0.474808 0.344730 0.336114 -0.073838
H8    H     H_    0.568926 0.204166 0.197227 0.141384
H9    H     H_    0.603705 0.347698 0.223684 0.065570
H10   H     H_    0.720025 0.261693 0.265283 0.128888
H11   H     H_    0.660490 0.911641 0.204667 0.182797
H12   H     H_    0.228549 0.938229 0.665624 0.139022
H13   H     H_    0.150207 0.717943 0.146462 0.032847
H14   H     H_    0.203152 0.309912 0.726367 0.073234
H15   H     H_    0.986626 0.300472 0.720516 0.034394
H16   H     H_    0.185210 0.209677 0.829763 0.120596
H17   H     H_    0.075275 0.320030 0.847654 0.052710
H18   H     H_    0.964532 0.187461 0.819540 0.214541
H19   H     H_    0.427416 0.172781 0.668597 0.055469
H20   H     H_    0.468234 0.119238 0.822346 0.154214
H21   H     H_    0.476594 0.020764 0.743163 0.166938
H22   H     H_    0.047421 0.675779 0.265380 0.051587
H23   H     H_    0.426787 0.911301 0.635495 0.136978
H24   H     H_    0.293823 0.079810 0.759402 0.090377
H25   H     H_    0.827610 0.484607 0.655941 0.074891
H26   H     H_    0.580363 0.400305 0.875124 0.118963
H27   H     H_    0.895634 0.337798 0.195786 0.094784
H28   H     H_    0.305575 0.665997 0.801624 0.159395
H29   H     H_    0.608800 0.622731 0.130566 0.112446
H30   H     H_    0.367863 0.514436 0.344612 0.069306
H31   H     H_    0.677107 0.399285 0.994115 0.076048
H32   H     H_    0.789944 0.344447 0.078698 0.072617
H33   H     H_    0.407044 0.665971 0.920320 0.105174
H34   H     H_    0.270625 0.927972 0.571825 0.092850
H35   H     H_    0.254226 0.746646 0.273017 -0.126211
H36   H     H_    0.512212 0.628644 0.012606 0.084662
H37   H     H_    0.865927 0.958064 0.575777 0.096855
H38   H     H_    0.802296 0.263716 0.533095 0.061938
H39   H     H_    0.385623 0.720146 0.460848 0.068583
H40   H     H_    0.973911 0.780618 0.173388 0.158843
H41   H     H_    0.176072 0.858530 0.183898 0.170823
H42   H     H_    0.329144 0.732674 0.583736 0.035442
H43   H     H_    0.122639 0.758933 0.573778 0.068064
H44   H     H_    0.867303 0.256503 0.410923 -0.216838
H45   H     H_    0.068585 0.218759 0.412896 0.064197
H46   H     H_    0.747133 0.086661 0.349408 -0.001350
H47   H     H_    0.908187 0.049615 0.400734 0.016211
H48   H     H_    0.840870 0.693789 0.657927 -0.151331
O1    O     O_2   0.873090 0.425890 0.325140 -0.487453
O2    O     O_2   0.197298 0.122147 0.557629 -0.487206
O3    O     O_3   0.080210 0.158022 0.686882 -0.577109
O4    O     O_3   0.122420 0.434370 0.414380 -0.502427
O5    O     O_3   0.578370 0.633800 0.536380 -0.470133
O6    O     O_2   0.341510 0.231850 0.465510 -0.420241
O7    O     O_3   0.518443 0.189464 0.344653 -0.602163
O8    O     O_2   0.438530 0.474185 0.756169 -0.457967
O9    O     O_3   0.473422 0.282191 0.764910 -0.646466
O10   O     O_3   0.659500 0.627100 0.368810 -0.473051
O11   O     O_2   0.772046 0.542410 0.243722 -0.503229
O12   O     O_3   0.667322 0.796502 0.650350 -0.609371
O13   O     O_3   0.991832 0.255849 0.316566 -0.557035
O14   O     O_3   0.709719 0.736311 0.251354 -0.588048
O15   O     O_2   0.848200 0.768190 0.534530 -0.515659
O16   O     O_3   0.081160 0.685950 0.404810 -0.511475
O17   O     O_2   0.008494 0.875835 0.450722 -0.468348
O18   O     O_3   0.073437 0.835041 0.313608 -0.490592
O19   O     O_2   0.316610 0.574140 0.674900 -0.407044
O20   O     O_3   0.067290 0.565720 0.585630 -0.509998
O21   O     O_3   0.530210 0.372990 0.631200 -0.472058
O22   O     O_3   0.198625 0.744577 0.677033 -0.637453
O23   O     O_3   0.611340 0.366290 0.463630 -0.488736
O24   O     O_3   0.108550 0.314140 0.595200 -0.511024
P1    P     P_3+3 0.041040 0.394770 0.336330 1.032185
P2    P     P_3+3 0.672880 0.754030 0.556100 0.995981
P3    P     P_3+3 0.128155 0.818210 0.401455 1.050524
P4    P     P_3+3 0.148670 0.605320 0.663680 0.987098
P5    P     P_3+3 0.059175 0.176289 0.596234 0.978924
P6    P     P_3+3 0.642757 0.611165 0.274698 0.951413
P7    P     P_3+3 0.522792 0.232274 0.439676 1.038285
P8    P     P_3+3 0.553038 0.394036 0.726592 1.007673

loop_
_geom_bond_atom_site_label_1
_geom_bond_atom_site_label_2
_ccdc_geom_bond_type
C46   Cl1   S    
C19   H27   S    
C42   P5    S    
C12   O14   S    
C25   C27   A    
C48   H4    S    
C33   C37   A    
C17   C18   A    
C23   H7    S    
Ba1   O20   S    
O4    P1    S    
C32   H38   S    
C46   H46   S    
C27   H29   S    
C42   C43   A    
C5    C9    A    
C10   C11   A    
Ba2   O4    S    
C24   C25   A    
C16   H40   S    
C51   H24   S    
C4    H22   S    
C15   C24   A    
C26   C27   A    
C22   C24   A    
O20   P4    S    
Ba1   O4    S    
Ba2   O5    S    
C33   H39   S    
C47   O12   S    
C13   C14   A    
C44   H45   S    
C9    C22   A    
Ba2   O21   S    
C51   H21   S    
Ba1   Ba2   S    
Ba1   O1    S    
C30   H30   S    
C6    C7    A    
C28   H43   S    
Ba2   O24   S    
C21   C22   A    
C10   P8    S    
C44   O13   S    
C41   P7    S    
C20   H28   S    
C50   H19   S    
C7    C8    A    
C6    H26   S    
C2    H32   S    
Ba2   O19   S    
O17   P3    D    
C48   H3    S    
C39   C41   A    
O6    P7    D    
C25   H36   S    
Ba1   O5    S    
Ba1   P1    S    
C34   H10   S    
C47   H48   S    
Ba1   O15   S    
C26   C29   A    
C38   C43   A    
C4    C16   S    
C44   C46   S    
C40   H23   S    
O15   P2    D    
O1    P1    D    
Ba2   O6    S    
C33   C36   A    
C32   C42   A    
O19   P4    D    
C4    O18   S    
C37   C38   A    
C3    C5    A    
C51   H20   S    
C45   C49   S    
C13   P4    S    
O24   P5    S    
C28   O22   S    
C12   H1    S    
C44   H44   S    
Ba2   P4    S    
C21   H33   S    
C16   H41   S    
C1    H11   S    
C49   H17   S    
C35   C36   A    
C50   Cl5   S    
C29   C30   A    
C28   H42   S    
C40   H12   S    
Ba2   O23   S    
C36   P3    S    
C49   H16   S    
C29   P6    S    
C17   C26   A    
O14   P6    S    
C3    H31   S    
C1    C12   S    
C18   C31   A    
C38   C39   A    
O7    P7    S    
O18   P3    S    
C4    H35   S    
C16   H13   S    
O5    P2    S    
C11   C13   A    
O9    P8    S    
C23   Cl4   S    
Ba1   P2    S    
C50   C51   S    
O3    P5    S    
C1    H2    S    
C14   C20   A    
O16   P3    S    
C2    C52   A    
C40   H34   S    
O11   P6    D    
O2    P5    D    
O22   P4    S    
C32   C41   A    
C45   H14   S    
Ba1   O23   S    
C3    C6    A    
C34   H8    S    
C47   Cl2   S    
C30   C31   A    
C23   O7    S    
Ba1   O16   S    
C45   H15   S    
C8    C14   A    
C50   O9    S    
C2    C19   A    
C48   Cl3   S    
O21   P8    S    
C45   O3    S    
C46   H47   S    
C15   C17   A    
C12   H5    S    
O12   P2    S    
Ba1   O10   S    
C35   C39   A    
C34   H9    S    
C7    C10   A    
C49   H18   S    
C35   Cl6   S    
O23   P7    S    
C8    C9    A    
C23   C34   S    
C1    H6    S    
C31   P1    S    
C18   C19   A    
C47   C48   S    
C11   H25   S    
C20   C21   A    
C28   C40   S    
C43   H37   S    
C5    C52   A    
O13   P1    S    
O10   P6    S    
C15   C52   A    
O8    P8    D    
C37   P2    S    
Ba2   O20   S    
