data_mof_unit_28821.cif
_audit_creation_date              2013-03-05T16:19:19-0500
_audit_creation_method            fapswitch 2.2
_symmetry_space_group_name_H-M    P1
_symmetry_Int_Tables_number       1
_space_group_crystal_system       triclinic
_cell_length_a                    10.677438
_cell_length_b                    9.755402
_cell_length_c                    23.493987
_cell_angle_alpha                 91.053753
_cell_angle_beta                  90.018622
_cell_angle_gamma                 89.361869
_cell_volume                      2446.63148474

loop_
_atom_site_label
_atom_site_type_symbol
_atom_site_description
_atom_site_fract_x
_atom_site_fract_y
_atom_site_fract_z
_atom_type_partial_charge
O1    O     O_R   0.314910 0.616040 0.499990 -0.543175
O2    O     O_R   0.314910 0.383960 0.499990 -0.606291
C1    C     C_R   0.257965 0.501093 0.498814 0.925904
O3    O     O_R   0.500080 0.616070 0.416130 -0.599000
O4    O     O_R   0.500080 0.383930 0.416130 -0.596149
C2    C     C_R   0.499987 0.498664 0.389382 0.960410
Zn1   Zn    Zn3+2 0.500150 0.654960 0.499970 1.027976
Zn2   Zn    Zn3+2 0.500150 0.345040 0.499970 1.058171
O5    O     O_R   0.685320 0.616040 0.499970 -0.637234
O6    O     O_R   0.685320 0.383960 0.499970 -0.556917
O7    O     O_R   0.500150 0.616010 0.583820 -0.588691
O8    O     O_R   0.500150 0.383990 0.583820 -0.535463
C3    C     C_R   0.742212 0.499498 0.498004 0.976167
C4    C     C_R   0.499189 0.500784 0.610779 0.892119
C5    C     C_R   0.626630 0.452836 0.881738 0.682438
N1    N     N_R   0.520375 0.487447 0.852895 -0.345866
C6    C     C_R   0.411103 0.518656 0.880546 0.591121
C7    C     C_R   0.408514 0.529444 0.940135 -0.143651
C8    C     C_R   0.514067 0.481774 0.970672 -0.070125
C9    C     C_R   0.623060 0.436872 0.941147 -0.165497
C10   C     C_R   0.303055 0.583495 0.969609 0.235752
C11   C     C_R   0.298722 0.579527 0.029103 0.234321
C12   C     C_R   0.402603 0.528435 0.060044 -0.148518
C13   C     C_R   0.510939 0.480273 0.030578 -0.105161
C14   C     C_R   0.616140 0.430764 0.061044 -0.100860
C15   C     C_R   0.721320 0.375815 0.031520 0.419595
C16   C     C_R   0.725018 0.379708 0.971500 0.201662
C17   C     C_R   0.403539 0.527144 0.119877 0.588260
N2    N     N_R   0.506878 0.482146 0.148216 -0.361357
C18   C     C_R   0.611737 0.435315 0.120853 0.656510
O9    O     O_2   0.735070 0.436721 0.852799 -0.424201
O10   O     O_2   0.305066 0.535968 0.850089 -0.447725
O11   O     O_2   0.302850 0.570522 0.150154 -0.456639
O12   O     O_2   0.711383 0.395064 0.151992 -0.415544
C19   C     C_R   0.492262 0.362794 0.238545 0.532073
C20   C     C_R   0.490335 0.368202 0.298073 -0.282982
H1    H     H_    0.480314 0.274119 0.321329 0.164160
C21   C     C_R   0.500589 0.494479 0.327299 -0.066549
C22   C     C_R   0.512184 0.615812 0.296833 -0.146262
H2    H     H_    0.519625 0.714284 0.318428 0.168060
C23   C     C_R   0.514923 0.610875 0.237839 -0.160327
H3    H     H_    0.524428 0.704792 0.214424 0.178812
C24   C     C_R   0.505255 0.485053 0.208851 0.237475
C25   C     C_R   0.485975 0.613328 0.765449 -0.148745
H4    H     H_    0.461670 0.703346 0.791001 0.211582
C26   C     C_R   0.468769 0.615994 0.706969 0.471656
C27   C     C_R   0.502911 0.499967 0.673310 -0.211663
C28   C     C_R   0.543844 0.379932 0.700175 -0.343095
H5    H     H_    0.569620 0.289981 0.675182 0.234103
C29   C     C_R   0.550348 0.373808 0.759531 0.538855
C30   C     C_R   0.522560 0.492237 0.792049 0.131460
C31   C     C_3   0.069065 0.654004 0.482777 0.672801
C32   C     C_3   0.070918 0.460694 0.558784 0.604302
C33   C     C_3   0.924380 0.646842 0.483104 -0.589633
C34   C     C_3   0.926076 0.462051 0.556866 -0.426163
H6    H     H_    0.884366 0.722202 0.514419 0.210619
H7    H     H_    0.887819 0.537964 0.588568 0.198886
H8    H     H_    0.884415 0.679162 0.441685 0.249198
H9    H     H_    0.887730 0.361493 0.569595 0.231500
H10   H     H_    0.109122 0.427835 0.408201 0.220360
H11   H     H_    0.116415 0.297607 0.456903 0.243372
C35   C     C_3   0.074926 0.401132 0.451001 -0.592476
C36   C     C_3   0.121375 0.504618 0.497959 -0.244534
C37   C     C_3   0.878673 0.499678 0.496791 -0.153767
C38   C     C_3   0.930178 0.393905 0.451223 0.830441
C39   C     C_3   0.389006 0.080922 0.468030 -0.385863
C40   C     C_3   0.395210 0.919353 0.463766 -0.312586
H12   H     H_    0.379519 0.125751 0.425156 0.181114
H13   H     H_    0.402518 0.885543 0.418617 0.178993
H14   H     H_    0.300813 0.112385 0.489990 0.268987
H15   H     H_    0.304207 0.877617 0.477506 0.297812
C41   C     C_3   0.614293 0.079665 0.470320 0.236971
C42   C     C_3   0.619622 0.917691 0.475242 0.165665
C43   C     C_3   0.494006 0.085944 0.558248 0.700589
C44   C     C_3   0.481975 0.921284 0.558157 0.675623
N3    N     N_3   0.499750 0.138610 0.498760 -0.140907
N4    N     N_3   0.499750 0.861390 0.498760 -0.165514
H16   H     H_    0.698021 0.120618 0.492272 0.189871
H17   H     H_    0.697603 0.896630 0.504968 0.100805
N5    N     N_R   0.204233 0.653504 0.939993 0.271476
O13   O     O_R   0.088494 0.616111 0.945832 -0.226200
O14   O     O_R   0.228591 0.764331 0.912249 -0.284781
O15   O     O_3   0.411166 0.729847 0.685090 -0.686605
H18   H     H_    0.352277 0.697043 0.655406 0.360558
O16   O     O_3   0.580859 0.253555 0.786689 -0.683086
H19   H     H_    0.596565 0.180166 0.757715 0.361466
N6    N     N_R   0.108920 0.701616 0.426098 0.211591
O17   O     O_R   0.066865 0.819330 0.408567 -0.338516
O18   O     O_R   0.200259 0.643482 0.397641 -0.437007
N7    N     N_R   0.116318 0.323013 0.575548 0.230223
O19   O     O_R   0.180795 0.309156 0.622178 -0.312088
O20   O     O_R   0.077991 0.212384 0.549469 -0.358447
O21   O     O_3   0.111779 0.753534 0.522829 -0.691480
H20   H     H_    0.054774 0.762292 0.555959 0.377177
O22   O     O_3   0.107236 0.556449 0.601323 -0.738550
H21   H     H_    0.199988 0.556767 0.603413 0.340048
O23   O     O_3   0.879524 0.421152 0.396871 -0.735317
H22   H     H_    0.919539 0.503871 0.381516 0.339215
O24   O     O_3   0.895241 0.260542 0.466189 -0.696459
H23   H     H_    0.916936 0.198144 0.433692 0.388904
N8    N     N_R   0.189549 0.633300 0.057501 0.270402
O25   O     O_R   0.171744 0.765202 0.061837 -0.280125
O26   O     O_R   0.100681 0.550914 0.072195 -0.237614
O27   O     O_3   0.626953 0.126041 0.414143 -0.659196
H24   H     H_    0.563453 0.081926 0.389541 0.323890
O28   O     O_3   0.657666 0.849498 0.424684 -0.670998
H25   H     H_    0.593697 0.862560 0.394960 0.338075
O29   O     O_3   0.600625 0.130780 0.589163 -0.769941
H26   H     H_    0.674058 0.071428 0.580299 0.311505
O30   O     O_3   0.569028 0.867524 0.597705 -0.738723
H27   H     H_    0.631449 0.807205 0.578597 0.338373
O31   O     O_3   0.387904 0.145358 0.585009 -0.656522
H28   H     H_    0.399548 0.139051 0.626838 0.370176
O32   O     O_3   0.361503 0.884676 0.576929 -0.673057
H29   H     H_    0.352909 0.913683 0.617383 0.391444
O33   O     O_3   0.817728 0.316383 0.062267 -0.626496
H30   H     H_    0.870260 0.256685 0.037362 0.384009
N9    N     N_R   0.829715 0.319185 0.941685 0.237968
O34   O     O_R   0.815300 0.206592 0.911969 -0.273286
O35   O     O_R   0.941130 0.369848 0.947983 -0.255516
O36   O     O_3   0.480962 0.240728 0.208387 -0.716517
H31   H     H_    0.472745 0.164837 0.235605 0.342606

loop_
_geom_bond_atom_site_label_1
_geom_bond_atom_site_label_2
_geom_bond_distance
_ccdc_geom_bond_type
C39   H12   1.109644 S    
N6    O17   1.302224 A    
N8    O25   1.300781 A    
C34   H9    1.113201 S    
C32   O22   1.412548 S    
C7    C10   1.413992 A    
C23   H3    1.083046 S    
C8    C9    1.416123 A    
C40   N4    1.498017 S    
N1    C30   1.431353 S    
C41   N3    1.497882 S    
O32   H29   0.990655 S    
N7    O19   1.302050 A    
C22   C23   1.386260 A    
C39   H14   1.111390 S    
O16   H19   0.991737 S    
O29   H26   0.989421 S    
Zn1   O7    2.013128 S    
C15   C16   1.411916 A    
O21   H20   0.990107 S    
C11   N8    1.432871 S    
C43   N3    1.499411 S    
O15   H18   0.990001 S    
C20   H1    1.083074 S    
C43   O31   1.409655 S    
O4    C2    1.293652 A    
O7    C4    1.300488 A    
O28   H25   0.985614 S    
C5    N1    1.363722 A    
Zn2   N3    2.013538 S    
O33   H30   0.988202 S    
H10   C35   1.106483 S    
C7    C8    1.414659 A    
O5    C3    1.283128 A    
N9    O34   1.301177 A    
O31   H28   0.993449 S    
C41   H16   1.106762 S    
C29   O16   1.381414 S    
O30   H27   0.986782 S    
C27   C28   1.405768 A    
C31   C33   1.547246 S    
N1    C6    1.364301 A    
C12   C13   1.419336 A    
C2    C21   1.458414 S    
N2    C18   1.361558 A    
C19   C24   1.401005 A    
Zn1   N4    2.014489 S    
C28   C29   1.398569 A    
C39   C40   1.578167 S    
N8    O26   1.301120 A    
C10   C11   1.399786 A    
N2    C24   1.424423 S    
C23   C24   1.397534 A    
O3    Zn1   1.999078 S    
O27   H24   0.987980 S    
C25   C26   1.386766 A    
O23   H22   0.991137 S    
N9    O35   1.300635 A    
C32   C34   1.547098 S    
C5    C9    1.407823 A    
C33   H6    1.112475 S    
C43   C44   1.612840 S    
C18   O12   1.349880 S    
C19   O36   1.380840 S    
C13   C14   1.416847 A    
C38   O24   1.408232 S    
N5    O14   1.301423 A    
C22   H2    1.081802 S    
C41   C42   1.586852 S    
C41   O27   1.410058 S    
C29   C30   1.402316 A    
C14   C15   1.415324 A    
O6    C3    1.287915 A    
O1    C1    1.281376 A    
C19   C20   1.398706 A    
C35   C36   1.565919 S    
N7    O20   1.301133 A    
O24   H23   0.993479 S    
Zn2   O8    1.999406 S    
C39   N3    1.495148 S    
C34   C37   1.548380 S    
C6    C7    1.402248 A    
C42   H17   1.106484 S    
C31   O21   1.418522 S    
C44   O32   1.411762 S    
C12   C17   1.406035 A    
C44   N4    1.514092 S    
O36   H31   0.991776 S    
C25   C30   1.398322 A    
O3    C2    1.296256 A    
C28   H5    1.079972 S    
O8    C4    1.293307 A    
C17   O11   1.349141 S    
C34   H7    1.114979 S    
C32   N7    1.482888 S    
C25   H4    1.083765 S    
C33   H8    1.111958 S    
C16   N9    1.435113 S    
C14   C18   1.405819 A    
Zn1   O5    2.009111 S    
C26   C27   1.413330 A    
C17   N2    1.361219 A    
C44   O30   1.417330 S    
C35   C38   1.547946 S    
O1    Zn1   2.018150 S    
C31   N6    1.482405 S    
O2    Zn2   2.009841 S    
N5    O13   1.300417 A    
C31   C36   1.601197 S    
O4    Zn2   2.012778 S    
C5    O9    1.349124 S    
C4    C27   1.469802 S    
C9    C16   1.416072 A    
C1    C36   1.458590 S    
C37   C38   1.568557 S    
C20   C21   1.404576 A    
O2    C1    1.289131 A    
C38   O23   1.415135 S    
C32   C36   1.595030 S    
C42   O28   1.408440 S    
C21   C22   1.401131 A    
C3    C37   1.457363 S    
C33   C37   1.560561 S    
C10   N5    1.436981 S    
N6    O18   1.301494 A    
C8    C13   1.408182 A    
C40   H15   1.108140 S    
H11   C35   1.109311 S    
C15   O33   1.385353 S    
C43   O29   1.419055 S    
C26   O15   1.371759 S    
Zn2   O6    2.017416 S    
O22   H21   0.991593 S    
C6    O10   1.349849 S    
C42   N4    1.507468 S    
C11   C12   1.416915 A    
C40   H13   1.107539 S    
