data_mof_unit_24018.cif
_audit_creation_date              2012-10-26T19:25:22-0400
_audit_creation_method            fapswitch 2.2
_symmetry_space_group_name_H-M    P1
_symmetry_Int_Tables_number       1
_space_group_crystal_system       triclinic
_cell_length_a                    12.334288
_cell_length_b                    13.330021
_cell_length_c                    19.358663
_cell_angle_alpha                 77.147492
_cell_angle_beta                  101.3409
_cell_angle_gamma                 116.490768
_cell_volume                      2759.96064817

loop_
_atom_site_label
_atom_site_type_symbol
_atom_type_description
_atom_site_fract_x
_atom_site_fract_y
_atom_site_fract_z
_atom_type_partial_charge
C1    C     C_R   0.854518 0.287217 0.506798 0.534683
C2    C     C_R   0.998407 0.496799 0.145907 -0.006513
C3    C     C_R   0.264937 0.030448 0.442631 -0.153721
C4    C     C_R   0.999254 0.499078 0.632299 0.544281
C5    C     C_R   0.229513 0.833932 0.482389 0.028817
C6    C     C_R   0.813011 0.090263 0.561305 -0.181983
C7    C     C_R   0.731741 0.985034 0.591271 -0.077623
C8    C     C_R   0.606679 0.952892 0.576421 0.250034
C9    C     C_R   0.561156 0.019657 0.520900 0.003728
C10   C     C_R   0.643648 0.129152 0.492542 -0.005320
C11   C     C_R   0.436002 0.982310 0.493569 0.006868
C12   C     C_R   0.996939 0.497043 0.708065 -0.026148
C13   C     C_R   0.390724 0.062636 0.457332 0.011377
C14   C     C_R   0.472091 0.170815 0.430982 -0.136829
C15   C     C_R   0.596270 0.198864 0.442252 -0.115312
C16   C     C_R   0.145522 0.713018 0.490024 0.567632
C17   C     C_R   0.356667 0.866767 0.495030 0.227385
C18   C     C_R   0.184483 0.917064 0.458515 -0.185857
C19   C     C_R   0.770246 0.166290 0.516451 -0.010043
C20   C     C_R   0.345690 0.327889 0.614347 0.238603
C21   C     C_R   0.763899 0.650242 0.407126 0.052409
C22   C     C_R   0.673509 0.690624 0.391313 0.190780
C23   C     C_R   0.998000 0.496727 0.069797 0.344883
C24   C     C_R   0.571255 0.635516 0.428500 -0.035262
C25   C     C_R   0.554414 0.536865 0.479384 -0.028273
C26   C     C_R   0.653344 0.504812 0.496801 0.138991
C27   C     C_R   0.447340 0.473467 0.516729 0.002268
C28   C     C_R   0.999302 0.499332 0.367501 0.554947
C29   C     C_R   0.447600 0.388059 0.575322 -0.006389
C30   C     C_R   0.548692 0.362736 0.593667 -0.174085
C31   C     C_R   0.647551 0.417901 0.554467 -0.111127
C32   C     C_R   0.338641 0.489611 0.497454 0.376987
C33   C     C_R   0.249362 0.360060 0.598521 0.036244
C34   C     C_R   0.993185 0.493785 0.929549 0.368104
C35   C     C_R   0.098188 0.502427 0.757347 -0.146934
C36   C     C_R   0.095373 0.500413 0.829096 -0.166556
C37   C     C_R   0.991482 0.493450 0.853111 0.046436
C38   C     C_R   0.888733 0.488512 0.803624 0.270689
C39   C     C_R   0.892242 0.488431 0.731519 -0.127093
C40   C     C_3   0.303817 0.139037 0.642831 -0.014745
C41   C     C_3   0.165064 0.076520 0.632479 -0.394655
C42   C     C_3   0.737936 0.551950 0.788904 -0.001487
C43   C     C_3   0.652820 0.560278 0.832308 -0.338325
C44   C     C_3   0.700399 0.428610 0.254414 -0.003499
C45   C     C_R   0.089477 0.480722 0.196871 -0.134967
C46   C     C_3   0.602675 0.441491 0.284122 -0.354381
C47   C     C_R   0.089095 0.481698 0.268660 -0.174116
C48   C     C_R   0.996890 0.497429 0.291184 0.017743
C49   C     C_R   0.902554 0.510008 0.240148 0.253408
C50   C     C_R   0.906323 0.512630 0.168025 -0.102246
Cu1   Cu    Cu3+1 0.098280 0.475420 0.516260 0.981257
Cu2   Cu    Cu3+1 0.901720 0.524580 0.483740 0.925976
H1    H     H_    0.180027 0.508893 0.740431 0.151911
H2    H     H_    0.844601 0.692417 0.379459 0.142192
H3    H     H_    0.510202 0.676066 0.418662 0.195618
H4    H     H_    0.719167 0.391315 0.572815 0.186389
H5    H     H_    0.812099 0.478966 0.693918 0.118400
H6    H     H_    0.161816 0.468381 0.181316 0.152631
H7    H     H_    0.161562 0.470370 0.306503 0.183373
H8    H     H_    0.836087 0.526726 0.129418 0.143254
H9    H     H_    0.087415 0.893743 0.447274 0.139240
H10   H     H_    0.479767 0.822415 0.480275 0.331877
H11   H     H_    0.460532 0.871773 0.624013 0.333574
H12   H     H_    0.439472 0.230592 0.397228 0.112198
H13   H     H_    0.339402 0.083616 0.682526 0.161400
H14   H     H_    0.341591 0.151439 0.592152 0.129048
H15   H     H_    0.126479 0.124219 0.588246 0.134258
H16   H     H_    0.138502 0.991385 0.618786 0.113666
H17   H     H_    0.126647 0.066175 0.682229 0.165672
H18   H     H_    0.293246 0.600866 0.435466 0.378430
H19   H     H_    0.761015 0.814113 0.319993 0.323026
H20   H     H_    0.684822 0.523729 0.737914 0.141966
H21   H     H_    0.813061 0.638237 0.777742 0.126162
H22   H     H_    0.702993 0.589308 0.883584 0.179696
H23   H     H_    0.229122 0.092397 0.417669 0.126056
H24   H     H_    0.616342 0.621958 0.802067 0.113474
H25   H     H_    0.575459 0.476127 0.843460 0.176625
H26   H     H_    0.711140 0.351799 0.285496 0.124264
H27   H     H_    0.668394 0.416172 0.197761 0.131617
H28   H     H_    0.591720 0.519001 0.255474 0.179297
H29   H     H_    0.514412 0.366494 0.277400 0.093657
H30   H     H_    0.628229 0.447800 0.341716 0.164736
H31   H     H_    0.909234 0.116175 0.579108 0.127956
H32   H     H_    0.766339 0.931973 0.631061 0.141973
H33   H     H_    0.653321 0.275977 0.411150 0.148540
H34   H     H_    0.173515 0.318416 0.630221 0.140756
H35   H     H_    0.551778 0.298649 0.638622 0.158148
H36   H     H_    0.175589 0.505542 0.865780 0.148661
N1    N     N_R   0.912311 0.519301 0.951937 -0.164226
N2    N     N_R   0.914454 0.520482 0.020610 -0.239462
N3    N     N_R   0.079713 0.471995 0.047514 -0.224516
N4    N     N_R   0.077400 0.470687 0.978701 -0.239166
N5    N     N_R   0.246290 0.438200 0.540910 -0.258277
N6    N     N_R   0.754310 0.561190 0.459520 -0.268089
O1    O     O_R   0.972510 0.318130 0.520450 -0.508874
O2    O     O_3   0.533399 0.860651 0.620528 -0.667626
O3    O     O_3   0.341281 0.241209 0.670152 -0.565464
O4    O     O_3   0.319123 0.543279 0.430309 -0.720252
O5    O     O_3   0.683611 0.784990 0.341225 -0.698978
O6    O     O_3   0.782149 0.471923 0.827733 -0.534062
O7    O     O_3   0.810725 0.527081 0.259828 -0.540963
O8    O     O_R   0.806530 0.359650 0.492990 -0.535612
O9    O     O_R   0.083010 0.479220 0.613590 -0.503282
O10   O     O_R   0.917030 0.520740 0.586130 -0.522915
O11   O     O_R   0.193470 0.640350 0.507010 -0.447814
O12   O     O_R   0.027490 0.681870 0.479550 -0.525716
O13   O     O_R   0.082970 0.479260 0.413870 -0.493800
O14   O     O_R   0.916990 0.520780 0.386410 -0.457170
O15   O     O_3   0.401924 0.786548 0.501792 -0.664516

loop_
_geom_bond_atom_site_label_1
_geom_bond_atom_site_label_2
_ccdc_geom_bond_type
C26   N6    A    
C35   H1    S    
C34   C37   S    
C35   C36   A    
C8    O2    S    
C7    C8    A    
C41   H15   S    
C36   H36   S    
C24   H3    S    
C6    C19   A    
Cu2   O8    S    
C29   C30   A    
C36   C37   A    
C10   C15   A    
C49   O7    S    
C38   C39   A    
C5    C17   A    
C21   N6    A    
C28   O13   A    
Cu1   O9    S    
C39   H5    S    
C4    O9    A    
C27   C29   A    
C3    C18   A    
C5    C16   S    
C2    C50   A    
C46   H30   S    
Cu2   O10   S    
C20   O3    S    
C8    C9    A    
Cu2   N6    S    
C22   O5    S    
C31   H4    S    
C4    C12   S    
C3    H23   S    
C9    C10   A    
C3    C13   A    
C16   O12   A    
C15   H33   S    
C43   H22   S    
C7    H32   S    
Cu2   O12   S    
C26   C31   A    
C40   H14   S    
C21   C22   A    
C44   C46   S    
C41   H16   S    
C20   C29   A    
C45   C47   A    
C2    C45   A    
C45   H6    S    
C1    C19   S    
Cu1   Cu2   S    
C24   C25   A    
C38   O6    S    
C40   O3    S    
C5    C18   A    
C25   C26   A    
H19   O5    S    
H11   O2    S    
C17   O15   S    
C33   H34   S    
C37   C38   A    
C42   O6    S    
C46   H29   S    
C47   C48   A    
C10   C19   A    
C1    O1    A    
C14   H12   S    
C42   H20   S    
C23   N2    A    
C12   C35   A    
C9    C11   A    
C16   O11   A    
Cu1   N5    S    
C20   C33   A    
C40   C41   S    
C40   H13   S    
C23   N3    A    
C25   C27   A    
C42   C43   S    
N3    N4    A    
C41   H17   S    
C43   H24   S    
C28   C48   S    
C42   H21   S    
C6    H31   S    
C27   C32   A    
C11   C17   A    
C44   H27   S    
C33   N5    A    
C44   O7    S    
C18   H9    S    
C6    C7    A    
C43   H25   S    
C21   H2    S    
C50   H8    S    
C12   C39   A    
C44   H26   S    
C30   H35   S    
C34   N1    A    
C46   H28   S    
C11   C13   A    
C30   C31   A    
H10   O15   S    
C28   O14   A    
C48   C49   A    
C4    O10   A    
C32   O4    S    
C32   N5    A    
C22   C24   A    
C34   N4    A    
Cu1   O11   S    
C47   H7    S    
Cu2   O14   S    
Cu1   O13   S    
C49   C50   A    
C2    C23   S    
C14   C15   A    
N1    N2    A    
C13   C14   A    
C1    O8    A    
H18   O4    S    
Cu1   O1    S    
