data_mof_unit_65680.cif
_audit_creation_date              2012-12-11T14:34:34-0500
_audit_creation_method            fapswitch 2.2
_symmetry_space_group_name_H-M    P1
_symmetry_Int_Tables_number       1
_space_group_crystal_system       monoclinic
_cell_length_a                    33.511604
_cell_length_b                    7.257532
_cell_length_c                    27.911018
_cell_angle_alpha                 90.0
_cell_angle_beta                  140.477724
_cell_angle_gamma                 90.0
_cell_volume                      4319.91425067

loop_
_atom_site_label
_atom_site_type_symbol
_atom_type_description
_atom_site_fract_x
_atom_site_fract_y
_atom_site_fract_z
_atom_type_partial_charge
O1    O     O_R   0.335930 0.530330 0.836120 -0.559221
O2    O     O_R   0.664070 0.469670 0.163880 -0.559221
O3    O     O_R   0.664070 0.530330 0.663880 -0.559221
O4    O     O_R   0.335930 0.469670 0.336120 -0.559221
O5    O     O_R   0.835930 0.030330 0.836120 -0.559221
O6    O     O_R   0.164070 0.969670 0.163880 -0.559221
O7    O     O_R   0.164070 0.030330 0.663880 -0.559221
O8    O     O_R   0.835930 0.969670 0.336120 -0.559221
O9    O     O_R   0.254100 0.856860 0.685510 -0.532465
O10   O     O_R   0.745900 0.143140 0.314490 -0.532465
O11   O     O_R   0.745900 0.856860 0.814490 -0.532465
O12   O     O_R   0.254100 0.143140 0.185510 -0.532465
O13   O     O_R   0.754100 0.356860 0.685510 -0.532465
O14   O     O_R   0.245900 0.643140 0.314490 -0.532465
O15   O     O_R   0.245900 0.356860 0.814490 -0.532465
O16   O     O_R   0.754100 0.643140 0.185510 -0.532465
C1    C     C_R   0.251089 0.692227 0.662966 0.720369
C2    C     C_R   0.748911 0.307772 0.337034 0.720369
C3    C     C_R   0.748911 0.692227 0.837034 0.720369
C4    C     C_R   0.251089 0.307772 0.162966 0.720370
C5    C     C_R   0.751089 0.192227 0.662966 0.720370
C6    C     C_R   0.248911 0.807772 0.337034 0.720369
C7    C     C_R   0.248911 0.192227 0.837034 0.720370
C8    C     C_R   0.751089 0.807772 0.162966 0.720370
O17   O     O_R   0.341180 0.859830 0.836880 -0.503977
O18   O     O_R   0.658820 0.140170 0.163120 -0.503978
O19   O     O_R   0.658820 0.859830 0.663120 -0.503977
O20   O     O_R   0.341180 0.140170 0.336880 -0.503977
O21   O     O_R   0.841180 0.359830 0.836880 -0.503977
O22   O     O_R   0.158820 0.640170 0.163120 -0.503977
O23   O     O_R   0.158820 0.359830 0.663120 -0.503977
O24   O     O_R   0.841180 0.640170 0.336880 -0.503977
O25   O     O_R   0.251370 0.033430 0.816330 -0.532607
O26   O     O_R   0.748630 0.966570 0.183670 -0.532608
O27   O     O_R   0.748630 0.033430 0.683670 -0.532607
O28   O     O_R   0.251370 0.966570 0.316330 -0.532608
O29   O     O_R   0.751370 0.533430 0.816330 -0.532607
O30   O     O_R   0.248630 0.466570 0.183670 -0.532607
O31   O     O_R   0.248630 0.533430 0.683670 -0.532607
O32   O     O_R   0.751370 0.466570 0.316330 -0.532608
C9    C     C_R   0.366345 0.689927 0.863194 0.666205
C10   C     C_R   0.633655 0.310073 0.136806 0.666205
C11   C     C_R   0.633655 0.689927 0.636806 0.666204
C12   C     C_R   0.366345 0.310073 0.363194 0.666204
C13   C     C_R   0.866345 0.189927 0.863194 0.666204
C14   C     C_R   0.133654 0.810073 0.136806 0.666205
C15   C     C_R   0.133654 0.189927 0.636806 0.666204
C16   C     C_R   0.866345 0.810073 0.363194 0.666204
O33   O     O_3   0.220230 0.697940 0.743080 -0.373334
O34   O     O_3   0.779770 0.302060 0.256920 -0.373334
O35   O     O_3   0.779770 0.697940 0.756920 -0.373334
O36   O     O_3   0.220230 0.302060 0.243080 -0.373334
O37   O     O_3   0.720230 0.197940 0.743080 -0.373334
O38   O     O_3   0.279770 0.802060 0.256920 -0.373334
O39   O     O_3   0.279770 0.197940 0.756920 -0.373334
O40   O     O_3   0.720230 0.802060 0.243080 -0.373334
V1    V     V_3+5 0.255280 0.971510 0.751280 1.574488
V2    V     V_3+5 0.744720 0.028490 0.248720 1.574488
V3    V     V_3+5 0.744720 0.971510 0.748720 1.574489
V4    V     V_3+5 0.255280 0.028490 0.251280 1.574488
V5    V     V_3+5 0.755280 0.471510 0.751280 1.574489
V6    V     V_3+5 0.244720 0.528490 0.248720 1.574488
V7    V     V_3+5 0.244720 0.471510 0.748720 1.574488
V8    V     V_3+5 0.755280 0.528490 0.251280 1.574488
H1    H     H_    0.936828 0.090224 0.459330 0.173260
H2    H     H_    0.063172 0.909775 0.540670 0.173260
H3    H     H_    0.063172 0.090226 0.040671 0.173261
H4    H     H_    0.936828 0.909776 0.959330 0.173259
H5    H     H_    0.436828 0.590224 0.459330 0.173260
H6    H     H_    0.563172 0.409776 0.540670 0.173260
H7    H     H_    0.563172 0.590224 0.040670 0.173260
H8    H     H_    0.436828 0.409775 0.959329 0.173260
C17   C     C_2   0.063800 0.172823 0.573173 0.249315
C18   C     C_2   0.936200 0.827177 0.426827 0.249315
C19   C     C_2   0.936200 0.172823 0.926827 0.249315
C20   C     C_2   0.063800 0.827176 0.073173 0.249314
C21   C     C_2   0.563800 0.672823 0.573173 0.249315
C22   C     C_2   0.436200 0.327177 0.426827 0.249315
C23   C     C_2   0.436200 0.672823 0.926827 0.249314
C24   C     C_2   0.563800 0.327177 0.073173 0.249315
C25   C     C_2   0.034632 0.016911 0.530341 -0.118194
C26   C     C_2   0.965368 0.983089 0.469659 -0.118194
C27   C     C_2   0.965368 0.016911 0.969659 -0.118195
C28   C     C_2   0.034632 0.983090 0.030341 -0.118194
C29   C     C_2   0.534632 0.516911 0.530341 -0.118194
C30   C     C_2   0.465368 0.483089 0.469659 -0.118194
C31   C     C_2   0.465368 0.516910 0.969659 -0.118194
C32   C     C_2   0.534632 0.483089 0.030341 -0.118194
C33   C     C_1   0.250772 0.187026 0.890805 -0.099931
C34   C     C_1   0.749228 0.812974 0.109195 -0.099931
C35   C     C_1   0.749228 0.187026 0.609195 -0.099932
C36   C     C_1   0.250772 0.812974 0.390805 -0.099932
C37   C     C_1   0.750772 0.687026 0.890805 -0.099932
C38   C     C_1   0.249228 0.312974 0.109195 -0.099931
C39   C     C_1   0.249228 0.687026 0.609195 -0.099932
C40   C     C_1   0.750772 0.312974 0.390805 -0.099932
C41   C     C_2   0.258445 0.178133 0.993693 0.302337
C42   C     C_2   0.741555 0.821866 0.006307 0.302337
C43   C     C_2   0.741555 0.178134 0.506306 0.302337
C44   C     C_2   0.258445 0.821866 0.493694 0.302337
C45   C     C_2   0.758445 0.678133 0.993693 0.302337
C46   C     C_2   0.241555 0.321866 0.006307 0.302337
C47   C     C_2   0.241555 0.678134 0.506306 0.302337
C48   C     C_2   0.758445 0.321866 0.493694 0.302337
C49   C     C_1   0.246409 0.315505 0.063038 0.113615
C50   C     C_1   0.753591 0.684495 0.936962 0.113615
C51   C     C_1   0.753591 0.315505 0.436962 0.113615
C52   C     C_1   0.246409 0.684495 0.563038 0.113615
C53   C     C_1   0.746409 0.815505 0.063038 0.113615
C54   C     C_1   0.253591 0.184495 0.936962 0.113615
C55   C     C_1   0.253591 0.815505 0.436962 0.113615
C56   C     C_1   0.746409 0.184495 0.563038 0.113615
Cl1   Cl    Cl    0.978773 0.649070 0.438113 -0.551225
Cl2   Cl    Cl    0.021227 0.350930 0.561887 -0.551225
Cl3   Cl    Cl    0.021227 0.649068 0.061886 -0.551225
Cl4   Cl    Cl    0.978772 0.350929 0.938112 -0.551223
Cl5   Cl    Cl    0.478772 0.149070 0.438113 -0.551225
Cl6   Cl    Cl    0.521227 0.850930 0.561887 -0.551225
Cl7   Cl    Cl    0.521227 0.149071 0.061887 -0.551224
Cl8   Cl    Cl    0.478773 0.850930 0.938114 -0.551225
Cl9   Cl    Cl    0.211404 0.526027 0.953113 -0.528633
Cl10  Cl    Cl    0.788596 0.473973 0.046887 -0.528634
Cl11  Cl    Cl    0.788597 0.526026 0.546888 -0.528634
Cl12  Cl    Cl    0.211403 0.473974 0.453112 -0.528635
Cl13  Cl    Cl    0.711404 0.026027 0.953113 -0.528634
Cl14  Cl    Cl    0.288596 0.973973 0.046887 -0.528633
Cl15  Cl    Cl    0.288597 0.026026 0.546888 -0.528635
Cl16  Cl    Cl    0.711403 0.973974 0.453112 -0.528634

loop_
_geom_bond_atom_site_label_1
_geom_bond_atom_site_label_2
_ccdc_geom_bond_type
C31   C32   S    
C38   C49   T    
C10   C24   S    
O33   V7    S    
C44   Cl15  S    
C2    C40   S    
O35   V5    S    
C20   C28   D    
C23   C31   D    
C25   C26   S    
O37   V3    S    
C48   Cl11  S    
O38   V4    S    
C29   C30   S    
O11   C3    A    
O10   V2    S    
O2    C10   A    
O3    V5    S    
O14   V6    S    
O4    V6    S    
O23   V7    S    
C20   Cl3   S    
O34   V8    S    
C46   C49   S    
O27   V3    S    
C1    O31   A    
C17   C25   D    
C2    O32   A    
C3    O29   A    
O8    V2    S    
C42   Cl13  S    
C7    O25   A    
C7    C33   S    
C47   C52   S    
C1    C39   S    
C46   Cl9   S    
C41   C46   D    
C3    C37   S    
C22   C30   D    
O15   C7    A    
C43   C48   D    
C24   Cl7   S    
C21   C29   D    
H3    C28   S    
O16   C8    A    
C42   C53   S    
O23   C15   A    
O24   C16   A    
O17   V1    S    
C18   C26   D    
O11   V3    S    
C47   Cl12  S    
O1    V7    S    
C14   C20   S    
O2    V8    S    
O20   V4    S    
O21   V5    S    
O5    V3    S    
C16   C18   S    
C22   Cl5   S    
C15   C17   S    
C21   Cl6   S    
O17   C9    A    
O4    C12   A    
C18   Cl1   S    
O5    C13   A    
C33   C54   T    
O20   C12   A    
C44   C47   D    
C8    O26   A    
C17   Cl2   S    
O21   C13   A    
O7    C15   A    
C35   C56   T    
O8    C16   A    
O6    V4    S    
C37   C50   T    
C4    O30   A    
C27   C28   S    
O3    C11   A    
C23   Cl8   S    
O12   C4    A    
O13   C5    A    
O18   V2    S    
O24   V8    S    
O1    C9    A    
C40   C51   T    
O39   V1    S    
H8    C31   S    
C6    O28   A    
O18   C10   A    
C5    C35   S    
O9    C1    A    
C45   C50   S    
C4    C38   S    
O25   V1    S    
O6    C14   A    
H4    C27   S    
O22   C14   A    
C41   Cl14  S    
O28   V4    S    
C8    C34   S    
C9    C23   S    
O29   V5    S    
C36   C55   T    
C43   Cl16  S    
C5    O27   A    
C11   C21   S    
C42   C45   D    
O31   V7    S    
C45   Cl10  S    
O32   V8    S    
O15   V7    S    
C13   C19   S    
O14   C6    A    
O22   V6    S    
C24   C32   D    
O36   V6    S    
H2    C25   S    
C41   C54   S    
C19   C27   D    
H1    C26   S    
O10   C2    A    
C43   C56   S    
C12   C22   S    
O40   V2    S    
O9    V1    S    
C39   C52   T    
H7    C32   S    
O12   V4    S    
O19   C11   A    
O13   V5    S    
C44   C55   S    
O26   V2    S    
C6    C36   S    
O19   V3    S    
C19   Cl4   S    
O16   V8    S    
C34   C53   T    
H6    C29   S    
O7    V1    S    
C48   C51   S    
H5    C30   S    
O30   V6    S    
