data_mof_unit_6788.cif
_audit_creation_date              2013-03-05T15:53:17-0500
_audit_creation_method            fapswitch 2.2
_symmetry_space_group_name_H-M    P1
_symmetry_Int_Tables_number       1
_space_group_crystal_system       triclinic
_cell_length_a                    11.537094
_cell_length_b                    10.715256
_cell_length_c                    10.005929
_cell_angle_alpha                 94.285503
_cell_angle_beta                  89.447448
_cell_angle_gamma                 92.874322
_cell_volume                      1231.93023682

loop_
_atom_site_label
_atom_site_type_symbol
_atom_site_description
_atom_site_fract_x
_atom_site_fract_y
_atom_site_fract_z
_atom_type_partial_charge
O1    O     O_R   0.500000 0.316780 0.614690 -0.647291
O2    O     O_R   0.499990 0.316750 0.385360 -0.596316
C1    C     C_R   0.512148 0.261180 0.496605 0.872415
O3    O     O_R   0.334450 0.500030 0.614670 -0.643131
O4    O     O_R   0.334440 0.500000 0.385330 -0.599489
C2    C     C_R   0.282328 0.500557 0.500553 0.945999
Zn1   Zn    Zn3+2 0.500010 0.500020 0.653130 1.014789
Zn2   Zn    Zn3+2 0.499990 0.499980 0.346870 1.063979
O5    O     O_R   0.500010 0.683250 0.614640 -0.618503
O6    O     O_R   0.500000 0.683220 0.385310 -0.544397
O7    O     O_R   0.665560 0.500000 0.614670 -0.562520
O8    O     O_R   0.665550 0.499970 0.385330 -0.620511
C3    C     C_R   0.493648 0.740182 0.505837 0.935339
C4    C     C_R   0.717736 0.500675 0.499533 0.890094
C5    C     C_1   0.161767 0.501732 0.501235 -0.036622
C6    C     C_1   0.059508 0.502181 0.500466 0.099107
C7    C     C_1   0.940694 0.501928 0.499225 0.094586
C8    C     C_1   0.838386 0.501371 0.498720 -0.067011
H1    H     H_    0.445459 0.093920 0.305127 0.247438
C9    C     C_R   0.632860 0.144781 0.709415 -0.235053
H2    H     H_    0.671852 0.235646 0.689889 0.208818
C10   C     C_R   0.644446 0.103206 0.837684 0.245415
C11   C     C_R   0.597703 0.983481 0.863459 0.278124
C12   C     C_R   0.539161 0.910083 0.760732 -0.179265
H3    H     H_    0.496174 0.824466 0.788551 0.229592
C13   C     C_R   0.530029 0.950591 0.629910 -0.004129
C14   C     C_R   0.566010 0.074494 0.609778 0.051211
C15   C     C_R   0.527727 0.127667 0.493772 -0.122487
C16   C     C_R   0.473284 0.053387 0.391618 -0.219617
C17   C     C_R   0.442461 0.929599 0.405948 0.313566
C18   C     C_R   0.481808 0.874660 0.519117 -0.199662
C19   C     C_R   0.304093 0.396530 0.127736 -0.024072
C20   C     C_R   0.199959 0.384420 0.056477 -0.250058
H4    H     H_    0.121203 0.354418 0.107467 0.225969
C21   C     C_R   0.205358 0.366253 0.916890 0.288076
C22   C     C_R   0.312354 0.387821 0.853892 -0.181013
H5    H     H_    0.323460 0.349198 0.753157 0.227409
C23   C     C_R   0.405770 0.449074 0.924500 0.056797
C24   C     C_R   0.403662 0.452148 0.067924 0.100575
N1    N     N_R   0.498930 0.498800 0.142780 -0.159716
C25   C     C_R   0.592744 0.546851 0.074069 -0.049687
C26   C     C_R   0.592890 0.546493 0.931080 0.317827
N2    N     N_R   0.498900 0.498720 0.857170 -0.162537
N3    N     N_R   0.106693 0.313729 0.841449 0.235849
O9    O     O_R   0.009829 0.284721 0.901903 -0.271266
O10   O     O_R   0.113569 0.291303 0.712063 -0.392487
N4    N     N_R   0.692879 0.597283 0.864407 0.221377
O11   O     O_R   0.687540 0.700439 0.804960 -0.375848
O12   O     O_R   0.791009 0.542769 0.866494 -0.289156
N5    N     N_R   0.692660 0.188334 0.943094 0.235743
O13   O     O_R   0.767670 0.277204 0.914645 -0.283433
O14   O     O_R   0.645683 0.193141 0.062045 -0.314458
N6    N     N_R   0.613773 0.932404 0.990593 0.259306
O15   O     O_R   0.711628 0.953476 0.053910 -0.279989
O16   O     O_R   0.539894 0.847608 0.031575 -0.340223
N7    N     N_R   0.362497 0.863728 0.311883 0.238024
O17   O     O_R   0.348540 0.903805 0.193763 -0.293815
O18   O     O_R   0.287697 0.779578 0.352677 -0.394594
C27   C     C_2   0.693845 0.604664 0.147943 1.053522
O19   O     O_2   0.785608 0.552121 0.143781 -0.548686
O20   O     O_R   0.685152 0.720128 0.220834 -0.719504
H6    H     H_    0.760241 0.750101 0.267339 0.348703
C28   C     C_2   0.319241 0.283550 0.196939 0.972065
O21   O     O_2   0.382082 0.205338 0.144610 -0.594511
O22   O     O_R   0.248808 0.256585 0.306712 -0.800252
H7    H     H_    0.259318 0.170012 0.337527 0.349596

loop_
_geom_bond_atom_site_label_1
_geom_bond_atom_site_label_2
_geom_bond_distance
_ccdc_geom_bond_type
C7    C8    1.180122 T    
O1    C1    1.292523 A    
O4    Zn2   1.944716 S    
N5    O14   1.301606 A    
C11   C12   1.403769 A    
C28   O22   1.398896 S    
C12   H3    1.074680 S    
C16   C17   1.373515 A    
C9    C14   1.414333 A    
Zn1   N2    2.042610 S    
C25   C26   1.430435 A    
C4    C8    1.391542 S    
C21   C22   1.397398 A    
C10   N5    1.438948 S    
Zn2   O8    1.952102 S    
C19   C20   1.398448 A    
O20   H6    1.013758 S    
C22   C23   1.402098 A    
C20   H4    1.084210 S    
O8    C4    1.296090 A    
C27   O19   1.222679 D    
N4    O12   1.300761 A    
N6    O15   1.301442 A    
N7    O17   1.301414 A    
Zn1   O7    1.944713 S    
C21   N3    1.439143 S    
C15   C16   1.383272 A    
C13   C14   1.399516 A    
C23   C24   1.433007 A    
C17   N7    1.444764 S    
O3    Zn1   1.952104 S    
O4    C2    1.294866 A    
O3    C2    1.296143 A    
N1    C25   1.375469 A    
C20   C21   1.396947 A    
C12   C13   1.416024 A    
C11   N6    1.439064 S    
O2    C1    1.312897 A    
C26   N4    1.431244 S    
N6    O16   1.300575 A    
C17   C18   1.403998 A    
O7    C4    1.295016 A    
C27   O20   1.396029 S    
C1    C15   1.448941 S    
C26   N2    1.374059 A    
C9    C10   1.399393 A    
C28   O21   1.220722 D    
H1    C16   1.056493 S    
N4    O11   1.298141 A    
C23   N2    1.368789 A    
C9    H2    1.082276 S    
C25   C27   1.471866 S    
Zn2   O6    1.972369 S    
O22   H7    1.012454 S    
C19   C24   1.415745 A    
C24   N1    1.386998 A    
Zn1   O5    2.028818 S    
O5    C3    1.291529 A    
C10   C11   1.407307 A    
C22   H5    1.069641 S    
Zn2   N1    2.041355 S    
N5    O13   1.299948 A    
C2    C5    1.391559 S    
O1    Zn1   1.972369 S    
C13   C18   1.425531 A    
C3    C18   1.450330 S    
N3    O10   1.301366 A    
O2    Zn2   2.028817 S    
N3    O9    1.300609 A    
C5    C6    1.180126 T    
C19   C28   1.457542 S    
N7    O18   1.301753 A    
C6    C7    1.370803 S    
C14   C15   1.414576 A    
O6    C3    1.313425 A    
