data_mof_unit_16585.cif
_audit_creation_date              2013-03-05T16:44:38-0500
_audit_creation_method            fapswitch 2.2
_symmetry_space_group_name_H-M    P1
_symmetry_Int_Tables_number       1
_space_group_crystal_system       triclinic
_cell_length_a                    27.707636
_cell_length_b                    10.659634
_cell_length_c                    9.844215
_cell_angle_alpha                 90.039683
_cell_angle_beta                  90.24162
_cell_angle_gamma                 89.797125
_cell_volume                      2907.47623313

loop_
_atom_site_label
_atom_site_type_symbol
_atom_site_description
_atom_site_fract_x
_atom_site_fract_y
_atom_site_fract_z
_atom_type_partial_charge
O1    O     O_R   0.500010 0.316790 0.614690 -0.617623
O2    O     O_R   0.500000 0.316760 0.385350 -0.626878
C1    C     C_R   0.498104 0.259910 0.499984 0.883421
O3    O     O_R   0.428760 0.500040 0.614660 -0.614479
O4    O     O_R   0.428750 0.500000 0.385310 -0.627565
C2    C     C_R   0.406345 0.496987 0.499757 0.864978
Zn1   Zn    Zn3+2 0.500000 0.500020 0.653130 0.948102
Zn2   Zn    Zn3+2 0.500000 0.499980 0.346870 0.946114
O5    O     O_R   0.500000 0.683240 0.614650 -0.621770
O6    O     O_R   0.499990 0.683210 0.385310 -0.624772
O7    O     O_R   0.571250 0.500000 0.614690 -0.618804
O8    O     O_R   0.571240 0.499960 0.385340 -0.619201
C3    C     C_R   0.498145 0.740180 0.500009 0.886370
C4    C     C_R   0.593997 0.500473 0.500310 0.884762
C5    C     C_R   0.177921 0.393975 0.566968 0.511103
O9    O     O_2   0.202447 0.306792 0.639157 -0.563804
N1    N     N_R   0.202370 0.484547 0.497581 -0.349176
C6    C     C_R   0.178785 0.575024 0.424486 0.512942
C7    C     C_R   0.278312 0.584733 0.561823 -0.089731
C8    C     C_R   0.328358 0.587228 0.561087 -0.254736
C9    C     C_R   0.329880 0.386006 0.442215 0.170030
C10   C     C_R   0.279533 0.385463 0.442398 -0.105382
C11   C     C_R   0.253858 0.484707 0.501073 0.254741
C12   C     C_R   0.102284 0.485574 0.491573 -0.052550
C13   C     C_R   0.127443 0.392095 0.564261 -0.021977
C14   C     C_R   0.101854 0.299961 0.633850 -0.134838
C15   C     C_R   0.128339 0.577953 0.421136 -0.023667
C16   C     C_R   0.354221 0.489859 0.499414 -0.091518
H1    H     H_    0.260206 0.307979 0.396469 0.159021
H2    H     H_    0.120411 0.228143 0.692056 0.191031
C17   C     C_R   0.646681 0.502889 0.501147 -0.030917
C18   C     C_R   0.974397 0.388608 0.548964 0.045276
C19   C     C_R   0.975425 0.592227 0.429231 0.044526
C20   C     C_R   0.949666 0.492035 0.489827 0.074386
C21   C     C_R   0.947010 0.286827 0.598558 -0.211804
C22   C     C_R   0.896984 0.289956 0.597169 -0.128286
C23   C     C_R   0.872436 0.394403 0.546247 -0.019636
C24   C     C_R   0.898582 0.495557 0.491872 -0.047362
C25   C     C_R   0.873542 0.600373 0.439866 -0.023093
C26   C     C_R   0.823123 0.602916 0.445242 0.557284
N2    N     N_R   0.798702 0.504013 0.499440 -0.338014
C27   C     C_R   0.822020 0.400094 0.547822 0.566540
C28   C     C_R   0.722204 0.480366 0.382541 -0.141569
C29   C     C_R   0.672197 0.478484 0.381513 -0.205312
C30   C     C_R   0.671719 0.530921 0.621525 -0.315990
C31   C     C_R   0.722098 0.535076 0.623499 0.036692
C32   C     C_R   0.747298 0.507842 0.502355 0.312531
O10   O     O_2   0.796373 0.303183 0.597774 -0.554604
C33   C     C_R   0.025446 0.390044 0.556333 0.045115
C34   C     C_R   0.051175 0.486975 0.489743 0.072807
C35   C     C_R   0.026397 0.585642 0.421860 0.045013
C36   C     C_R   0.051828 0.298676 0.630069 -0.213315
H3    H     H_    0.653573 0.456528 0.287544 0.164387
H4    H     H_    0.741732 0.459499 0.290106 0.146747
H5    H     H_    0.877603 0.209997 0.637017 0.193971
H6    H     H_    0.963119 0.201701 0.636726 0.145097
H7    H     H_    0.034899 0.226509 0.689514 0.145535
O11   O     O_2   0.204170 0.661401 0.354764 -0.559134
C37   C     C_R   0.103672 0.670507 0.348303 -0.134386
H8    H     H_    0.346988 0.665867 0.607103 0.157124
H9    H     H_    0.258422 0.660903 0.608524 0.155753
H10   H     H_    0.122947 0.741053 0.291080 0.191202
C38   C     C_R   0.949169 0.696837 0.379792 -0.209982
C39   C     C_R   0.899194 0.700575 0.385152 -0.126301
O12   O     O_2   0.798579 0.703301 0.397353 -0.549692
C40   C     C_R   0.053661 0.674462 0.348416 -0.213336
H11   H     H_    0.966185 0.779448 0.339538 0.144344
H12   H     H_    0.651956 0.551477 0.713774 0.153253
H13   H     H_    0.880730 0.782922 0.346302 0.192631
H14   H     H_    0.037450 0.747092 0.287233 0.145311
C41   C     C_R   0.487923 0.064308 0.623116 0.118563
C42   C     C_R   0.489351 0.128864 0.500321 -0.099525
C43   C     C_R   0.480772 0.065023 0.377999 -0.233330
H15   H     H_    0.477775 0.114011 0.281952 0.168515
C44   C     C_R   0.480764 0.935306 0.378047 -0.222458
H16   H     H_    0.477790 0.886230 0.281981 0.173322
C45   C     C_R   0.489392 0.871482 0.500404 -0.103011
C46   C     C_R   0.487947 0.936331 0.623171 0.140705
C47   C     C_3   0.520686 0.929147 0.744100 -0.489446
C48   C     C_3   0.520691 0.071341 0.743958 -0.465170
H17   H     H_    0.502350 0.888529 0.834069 0.202248
H18   H     H_    0.556491 0.887372 0.720033 0.204898
H19   H     H_    0.502441 0.112684 0.833911 0.198842
H20   H     H_    0.556491 0.112325 0.719653 0.212465
C49   C     C_R   0.480934 0.401225 0.070903 0.211583
N3    N     N_R   0.499670 0.499140 0.142800 -0.106136
C50   C     C_R   0.522931 0.591358 0.072395 -0.128548
H21   H     H_    0.540666 0.666312 0.127107 0.150508
C51   C     C_R   0.522998 0.591252 0.928269 -0.134446
H22   H     H_    0.540904 0.665883 0.874093 0.144779
N4    N     N_R   0.499670 0.499180 0.857150 -0.105584
C52   C     C_R   0.480900 0.401353 0.928242 0.209032
C53   C     C_3   0.430054 0.356707 0.921389 -0.484824
C54   C     C_3   0.430048 0.356396 0.075666 -0.515739
H23   H     H_    0.405080 0.427508 0.876684 0.229810
H24   H     H_    0.427351 0.261281 0.876458 0.196768
H25   H     H_    0.404996 0.426828 0.120225 0.229391
H26   H     H_    0.427368 0.260612 0.119425 0.194045
N5    N     N_2   0.355007 0.280518 0.387723 -0.318930
H27   H     H_    0.388639 0.298494 0.348631 0.236338
C55   C     C_3   0.354913 0.170844 0.474143 -0.761229
H28   H     H_    0.372770 0.091548 0.420870 0.246087
H29   H     H_    0.317375 0.142521 0.498358 0.265052
H30   H     H_    0.374993 0.190391 0.569826 0.233139
C56   C     C_2   0.746464 0.569170 0.752973 0.438080
H31   H     H_    0.725324 0.578866 0.845029 0.053284
O13   O     O_2   0.789776 0.588983 0.759043 -0.556016

loop_
_geom_bond_atom_site_label_1
_geom_bond_atom_site_label_2
_geom_bond_distance
_ccdc_geom_bond_type
C50   H21   1.081611 S    
C53   C54   1.518745 S    
C10   H1    1.083499 S    
N2    C27   1.365443 A    
C7    C8    1.387066 A    
C12   C15   1.407784 A    
C4    C17   1.460047 S    
C28   C29   1.385783 A    
C40   H14   1.076948 S    
C45   C46   1.392508 A    
Zn1   O7    2.011675 S    
C25   C39   1.394837 A    
C56   O13   1.220460 D    
N1    C11   1.426870 S    
C22   C23   1.394998 A    
O3    Zn1   2.008323 S    
C37   C40   1.386178 A    
O4    C2    1.289118 A    
C9    N5    1.426060 S    
O7    C4    1.292722 A    
C5    C13   1.398984 A    
C54   H26   1.111295 S    
C5    O9    1.350123 S    
C31   C56   1.485339 S    
C5    N1    1.366400 A    
C43   H15   1.083182 S    
C23   C27   1.398164 A    
O5    C3    1.282543 A    
C29   H3    1.083203 S    
C49   C52   1.404381 A    
C2    C16   1.446500 S    
C21   C22   1.386406 A    
C8    H8    1.083925 S    
C19   C38   1.414782 A    
C53   H23   1.111888 S    
O1    Zn1   1.989228 S    
C9    C10   1.395046 A    
C43   C44   1.382745 A    
C48   H19   1.111616 S    
C41   C48   1.495422 S    
C55   H28   1.110370 S    
C6    O11   1.350223 S    
C19   C20   1.419771 A    
C3    C45   1.419650 S    
C12   C34   1.416171 A    
C38   H11   1.076933 S    
C17   C29   1.399928 A    
C48   H20   1.112332 S    
C18   C21   1.414551 A    
C12   C13   1.408098 A    
O3    C2    1.288564 A    
N4    C52   1.362211 A    
C47   H17   1.111702 S    
N3    C50   1.367946 A    
C8    C16   1.398894 A    
C54   H25   1.111910 S    
C34   C35   1.419886 A    
C13   C14   1.395171 A    
C49   N3    1.363647 A    
C38   C39   1.386330 A    
O1    C1    1.282285 A    
C35   C40   1.414351 A    
C18   C20   1.419912 A    
C7    C11   1.398003 A    
C44   H16   1.083395 S    
C23   C24   1.408408 A    
C14   C36   1.386561 A    
C47   H18   1.112381 S    
C49   C54   1.491236 S    
C28   H4    1.083160 S    
N5    H27   1.028381 S    
Zn2   O8    2.008323 S    
C33   C36   1.414670 A    
Zn1   N4    2.008502 S    
C30   H12   1.084260 S    
N1    C6    1.366578 A    
N2    C32   1.425124 S    
C27   O10   1.350115 S    
C39   H13   1.083591 S    
C44   C45   1.402997 A    
Zn2   O6    1.989226 S    
C26   N2    1.364861 A    
N5    C55   1.446352 S    
C9    C16   1.413727 A    
O8    C4    1.293280 A    
C14   H2    1.083547 S    
C53   H24   1.111568 S    
C26   O12   1.350038 S    
C50   C51   1.418809 A    
C51   N4    1.367818 A    
C25   C26   1.398402 A    
Zn1   O5    1.989711 S    
C31   C32   1.413912 A    
C37   H10   1.083527 S    
C21   H6    1.077024 S    
C20   C24   1.415987 A    
O2    Zn2   1.989712 S    
C6    C15   1.398222 A    
C42   C43   1.402579 A    
O6    C3    1.282824 A    
O4    Zn2   2.011678 S    
C19   C35   1.415984 A    
C56   H31   1.085768 S    
C1    C42   1.418652 S    
C41   C42   1.392156 A    
C22   H5    1.083600 S    
C15   C37   1.395215 A    
C46   C47   1.495458 S    
C24   C25   1.408595 A    
C7    H9    1.082951 S    
C52   C53   1.489874 S    
O2    C1    1.282626 A    
Zn2   N3    2.008905 S    
C18   C33   1.416129 A    
C36   H7    1.076912 S    
C47   C48   1.515738 S    
C30   C31   1.396801 A    
C55   H29   1.110931 S    
C33   C34   1.419729 A    
C17   C30   1.403172 A    
C10   C11   1.398639 A    
C55   H30   1.111897 S    
C51   H22   1.081239 S    
C28   C32   1.398006 A    
C41   C46   1.364186 A    
