data_mof_unit_29485.cif
_audit_creation_date              2013-03-05T15:50:45-0500
_audit_creation_method            fapswitch 2.2
_symmetry_space_group_name_H-M    P1
_symmetry_Int_Tables_number       1
_space_group_crystal_system       triclinic
_cell_length_a                    22.870637
_cell_length_b                    7.228055
_cell_length_c                    20.8027
_cell_angle_alpha                 89.867543
_cell_angle_beta                  93.226442
_cell_angle_gamma                 89.811775
_cell_volume                      3433.41868352

loop_
_atom_site_label
_atom_site_type_symbol
_atom_site_description
_atom_site_fract_x
_atom_site_fract_y
_atom_site_fract_z
_atom_type_partial_charge
O1    O     O_R   0.438030 0.494310 0.439340 -0.605077
O2    O     O_R   0.561970 0.994310 0.560660 -0.543217
O3    O     O_R   0.556900 0.822900 0.435960 -0.580926
O4    O     O_R   0.443100 0.322900 0.564040 -0.583501
C1    C     C_R   0.575785 0.655447 0.421087 0.955239
C2    C     C_R   0.424207 0.155572 0.578903 0.961794
O5    O     O_R   0.438170 0.823950 0.431660 -0.533095
O6    O     O_R   0.561830 0.323950 0.568340 -0.605439
O7    O     O_R   0.442390 0.995390 0.556340 -0.579825
O8    O     O_R   0.557610 0.495390 0.443660 -0.585664
C3    C     C_R   0.418676 0.655700 0.415169 0.987649
C4    C     C_R   0.581037 0.154500 0.585126 0.989647
O9    O     O_3   0.501520 0.661170 0.540910 -0.269826
O10   O     O_3   0.498480 0.161170 0.459090 -0.274941
V1    V     V_3+5 0.499720 0.935580 0.492410 1.263536
V2    V     V_3+5 0.500280 0.435580 0.507590 1.219720
C5    C     C_R   0.829107 0.937707 0.858866 -0.225314
C6    C     C_R   0.167093 0.742940 0.136652 -0.214069
C7    C     C_R   0.868982 0.084691 0.866402 -0.147782
C8    C     C_R   0.131767 0.583721 0.132921 -0.151346
C9    C     C_R   0.860414 0.243720 0.827719 -0.172021
C10   C     C_R   0.144707 0.436402 0.175848 -0.183530
C11   C     C_R   0.813141 0.255430 0.781605 0.110734
C12   C     C_R   0.191780 0.448414 0.222241 0.112350
C13   C     C_R   0.773133 0.107898 0.774651 0.070577
C14   C     C_R   0.227324 0.607714 0.225015 0.075216
C15   C     C_R   0.781000 0.949430 0.814010 0.162970
C16   C     C_R   0.214758 0.755157 0.181885 0.164921
C17   C     C_R   0.805342 0.412526 0.742439 -0.378744
C18   C     C_R   0.203532 0.304010 0.266138 -0.388078
C19   C     C_R   0.757964 0.425357 0.696204 0.541240
C20   C     C_R   0.250339 0.315704 0.313050 0.551372
C21   C     C_R   0.717396 0.278653 0.689602 0.052672
C22   C     C_R   0.286407 0.474255 0.315412 0.039005
C23   C     C_R   0.725143 0.118962 0.728625 -0.086531
C24   C     C_R   0.275223 0.620175 0.271041 -0.090154
C25   C     C_R   0.684908 0.970569 0.722098 0.029618
C26   C     C_R   0.311505 0.779144 0.272758 0.016311
C27   C     C_R   0.692293 0.817468 0.764104 -0.127311
C28   C     C_R   0.297325 0.925875 0.229699 -0.161356
C29   C     C_R   0.740079 0.806245 0.808707 -0.214644
C30   C     C_R   0.249778 0.913510 0.184882 -0.209101
C31   C     C_R   0.669251 0.288933 0.644514 -0.236109
C32   C     C_R   0.333071 0.490176 0.361976 -0.193608
C33   C     C_R   0.629523 0.141803 0.636242 -0.269830
C34   C     C_R   0.369671 0.646420 0.364621 -0.285349
C35   C     C_R   0.637739 0.980538 0.674676 0.488047
C36   C     C_R   0.360099 0.789157 0.318460 0.502803
H1    H     H_    0.834732 0.815590 0.888987 0.142768
H2    H     H_    0.158009 0.857291 0.103716 0.145825
H3    H     H_    0.890931 0.357869 0.833020 0.149112
H4    H     H_    0.117650 0.313431 0.173847 0.149409
H5    H     H_    0.836222 0.525670 0.747800 0.160011
H6    H     H_    0.176056 0.181984 0.264123 0.163390
H7    H     H_    0.663228 0.410608 0.614325 0.207710
H8    H     H_    0.340913 0.380367 0.396977 0.218906
H9    H     H_    0.661432 0.704436 0.763318 0.146119
H10   H     H_    0.321704 0.053845 0.230941 0.148716
H11   H     H_    0.744853 0.685110 0.839389 0.145969
H12   H     H_    0.240145 0.029208 0.152710 0.144583
C37   C     C_3   0.249759 0.264713 0.809485 -0.413934
C38   C     C_3   0.750173 0.765929 0.190639 -0.412987
C39   C     C_3   0.242082 0.918250 0.788840 0.201968
C40   C     C_3   0.757985 0.418881 0.210983 0.203074
C41   C     C_3   0.292328 0.933249 0.741018 -0.532034
C42   C     C_3   0.707700 0.433752 0.258769 -0.534667
H13   H     H_    0.342130 0.230513 0.792523 0.161406
H14   H     H_    0.657816 0.733042 0.207583 0.159735
H15   H     H_    0.267330 0.248227 0.860008 0.217596
H16   H     H_    0.732599 0.750757 0.140107 0.217620
H17   H     H_    0.211465 0.808937 0.769967 0.131516
H18   H     H_    0.788638 0.308711 0.229807 0.131520
H19   H     H_    0.335760 0.908451 0.766438 0.225924
H20   H     H_    0.664288 0.410343 0.233284 0.223978
H21   H     H_    0.287878 0.822403 0.704417 0.236052
H22   H     H_    0.712137 0.322029 0.295257 0.236213
C43   C     C_1   0.378573 0.146766 0.624547 -0.219956
C44   C     C_1   0.621411 0.646397 0.375444 -0.224222
C45   C     C_3   0.206734 0.104484 0.790700 -0.096150
C46   C     C_3   0.793256 0.604595 0.209286 -0.096247
C47   C     C_3   0.301598 0.270427 0.763582 0.348486
C48   C     C_3   0.698344 0.771572 0.236558 0.347163
C49   C     C_3   0.291981 0.126644 0.707930 -0.047299
C50   C     C_3   0.708001 0.626390 0.292058 -0.044567
C51   C     C_3   0.230459 0.162948 0.672611 0.089092
C52   C     C_3   0.769508 0.660798 0.327431 0.089343
C53   C     C_3   0.180232 0.137561 0.720421 0.051310
C54   C     C_3   0.819747 0.635757 0.279592 0.050716
C55   C     C_1   0.339919 0.138283 0.662229 0.157347
C56   C     C_1   0.660063 0.637894 0.337761 0.154512
C57   C     C_1   0.159427 0.092098 0.837170 0.143391
C58   C     C_1   0.840567 0.592400 0.162818 0.143417
C59   C     C_1   0.121092 0.083285 0.875226 -0.203159
C60   C     C_1   0.878908 0.583622 0.124767 -0.203249
H23   H     H_    0.155029 0.010746 0.706593 0.157174
H24   H     H_    0.845029 0.508284 0.293289 0.157235
H25   H     H_    0.230075 0.308407 0.655281 0.151981
H26   H     H_    0.769843 0.805815 0.344963 0.152018
H27   H     H_    0.226060 0.398608 0.809316 0.240712
H28   H     H_    0.773820 0.899435 0.190910 0.240430
O11   O     O_R   0.942420 0.735670 0.056390 -0.577636
O12   O     O_R   0.057580 0.235670 0.943610 -0.577488
O13   O     O_R   0.061840 0.404850 0.068350 -0.599162
O14   O     O_R   0.938160 0.904850 0.931650 -0.595077
C61   C     C_R   0.081773 0.573299 0.084107 0.947251
C62   C     C_R   0.918478 0.073953 0.915701 0.945579
O15   O     O_R   0.943100 0.406010 0.064050 -0.574997
O16   O     O_R   0.056900 0.906010 0.935950 -0.576390
O17   O     O_R   0.938020 0.234710 0.939330 -0.593786
O18   O     O_R   0.061980 0.734710 0.060670 -0.591987
C63   C     C_R   0.924332 0.574523 0.078887 0.950119
C64   C     C_R   0.075670 0.074401 0.921119 0.945869
O19   O     O_3   0.998500 0.567790 0.959120 -0.282087
O20   O     O_3   0.001500 0.067790 0.040880 -0.280685
V3    V     V_3+5 0.000280 0.293330 0.007580 1.202226
V4    V     V_3+5 0.999720 0.793330 0.992420 1.202704
N1    N     N_R   0.264737 0.858914 0.853155 0.260448
O21   O     O_R   0.309248 0.940977 0.882384 -0.390350
O22   O     O_R   0.241928 0.716001 0.880318 -0.392798
N2    N     N_R   0.735396 0.361129 0.146616 0.260409
O23   O     O_R   0.690914 0.444618 0.117375 -0.390822
O24   O     O_R   0.758201 0.218116 0.119441 -0.391674
N3    N     N_R   0.138407 0.292775 0.716085 0.260715
O25   O     O_R   0.083056 0.260041 0.703366 -0.327254
O26   O     O_R   0.155809 0.463589 0.721195 -0.402987
N4    N     N_R   0.861479 0.790278 0.284079 0.260836
O27   O     O_R   0.916849 0.756472 0.296765 -0.326121
O28   O     O_R   0.843974 0.961454 0.279153 -0.402508
O29   O     O_3   0.311407 0.450160 0.740349 -0.729714
H29   H     H_    0.273508 0.502305 0.723489 0.342231
O30   O     O_3   0.688506 0.950967 0.259978 -0.731353
H30   H     H_    0.726392 0.001959 0.276937 0.342615
N5    N     N_R   0.220582 0.046125 0.615241 0.254595
O31   O     O_R   0.217791 0.121827 0.558333 -0.320889
O32   O     O_R   0.211698 0.869021 0.620171 -0.366555
N6    N     N_R   0.779422 0.542369 0.384637 0.254620
O33   O     O_R   0.782176 0.616590 0.441651 -0.321364
O34   O     O_R   0.788389 0.365254 0.379460 -0.365897
O35   O     O_3   0.750742 0.579344 0.656980 -0.748434
H31   H     H_    0.782477 0.668939 0.667991 0.337678
O36   O     O_3   0.261583 0.173801 0.356740 -0.725935
H32   H     H_    0.232656 0.073600 0.348359 0.337567
O37   O     O_3   0.598237 0.837465 0.666225 -0.734701
H33   H     H_    0.620408 0.719522 0.667747 0.321582
O38   O     O_3   0.399265 0.934225 0.318563 -0.729451
H34   H     H_    0.405474 0.968949 0.273407 0.307053

loop_
_geom_bond_atom_site_label_1
_geom_bond_atom_site_label_2
_geom_bond_distance
_ccdc_geom_bond_type
C26   C28   1.411748 A    
C61   O18   1.331481 A    
C39   C41   1.565553 S    
O4    V2    1.981912 S    
N4    O27   1.301164 A    
O12   C64   1.330408 A    
O1    C3    1.333562 A    
O2    C4    1.330748 A    
C2    O7    1.324792 A    
O14   C62   1.335812 A    
O20   V3    1.769339 S    
N3    O25   1.301167 A    
C27   C29   1.395302 A    
C39   C45   1.569613 S    
C44   C56   1.215570 T    
O5    C3    1.335543 A    
C18   H6    1.084182 S    
C43   C55   1.215686 T    
C11   C17   1.401079 A    
C38   C46   1.558372 S    
C23   C25   1.417304 A    
C12   C14   1.411081 A    
O29   H29   0.989656 S    
N1    O22   1.300959 A    
C39   N1    1.469808 S    
C52   C54   1.572100 S    
C41   C49   1.556519 S    
O37   H33   0.990005 S    
C27   H9    1.080957 S    
C35   O37   1.380452 S    
C60   C63   1.451207 S    
C14   C24   1.417008 A    
C41   H19   1.112531 S    
C38   H16   1.109896 S    
C33   C35   1.417952 A    
C32   H8    1.083496 S    
C54   N4    1.471248 S    
O12   V3    1.963984 S    
N3    O26   1.301212 A    
C5    C7    1.405701 A    
O14   V4    2.004399 S    
C32   C34   1.407288 A    
C53   H23   1.114097 S    
C19   C21   1.413124 A    
C25   C35   1.421810 A    
C45   C57   1.493679 S    
C26   C36   1.423443 A    
O19   V4    1.772456 S    
O5    V1    2.010386 S    
C38   C48   1.564144 S    
O6    V2    2.004318 S    
C46   C54   1.568282 S    
C28   C30   1.395213 A    
C40   C46   1.569697 S    
C37   H27   1.107587 S    
C50   C56   1.493301 S    
C45   C53   1.568329 S    
C47   C49   1.564342 S    
N2    O24   1.300962 A    
O38   H34   0.989801 S    
C51   C53   1.572144 S    
C49   C55   1.493503 S    
C34   C36   1.415887 A    
C28   H10   1.081198 S    
C5    C15   1.404238 A    
C6    C16   1.402548 A    
C29   H11   1.083921 S    
N6    O34   1.301522 A    
C5    H1    1.084385 S    
C4    C33   1.494979 S    
C2    C43   1.451424 S    
O16   C64   1.333237 A    
C54   H24   1.114101 S    
C21   C31   1.407320 A    
C46   C58   1.493492 S    
O13   V3    2.010461 S    
C18   C20   1.410273 A    
C57   C59   1.215639 T    
C15   C29   1.398007 A    
C47   O29   1.408130 S    
O6    C4    1.338749 A    
C42   H22   1.107487 S    
C36   O38   1.381244 S    
C58   C60   1.215533 T    
C22   C32   1.405521 A    
O13   C61   1.336564 A    
O1    V2    1.997152 S    
O2    V1    2.000533 S    
C31   C33   1.405608 A    
O15   V3    1.980878 S    
C20   O36   1.382687 S    
C13   C23   1.417231 A    
C38   H28   1.107621 S    
C52   N6    1.471059 S    
C49   C51   1.571219 S    
C39   H17   1.114858 S    
H13   C47   1.113377 S    
C48   C50   1.564337 S    
C9    C11   1.406622 A    
N5    O31   1.301253 A    
C10   C12   1.407861 A    
O4    C2    1.327336 A    
C13   C15   1.411554 A    
C30   H12   1.084153 S    
O30   H30   0.989638 S    
O18   V4    1.997138 S    
C9    H3    1.084243 S    
O3    V1    1.980614 S    
N2    O23   1.301453 A    
C6    H2    1.084432 S    
C10   H4    1.084241 S    
C8    C61   1.488082 S    
C37   H15   1.109904 S    
N4    O28   1.301212 A    
C7    C9    1.408449 A    
O15   C63   1.332776 A    
C8    C10   1.408072 A    
N6    O33   1.301236 A    
O3    C1    1.326873 A    
C40   N2    1.469781 S    
O35   H31   0.991819 S    
C31   H7    1.083416 S    
O11   C63   1.330148 A    
C14   C16   1.409925 A    
C41   H21   1.107545 S    
H14   C48   1.113384 S    
O16   V4    1.982174 S    
C24   C26   1.418892 A    
O7    V1    1.967223 S    
C1    O8    1.324516 A    
C17   C19   1.410477 A    
C40   C42   1.565473 S    
O8    V2    1.967763 S    
N1    O21   1.301455 A    
C53   N3    1.471244 S    
C17   H5    1.084156 S    
C37   C45   1.558387 S    
C16   C30   1.398640 A    
C21   C23   1.414508 A    
C22   C24   1.413146 A    
C6    C8    1.408077 A    
C40   H18   1.114868 S    
C52   H26   1.110535 S    
C12   C18   1.400600 A    
C51   H25   1.110535 S    
O17   V3    2.000516 S    
C59   C64   1.451378 S    
C42   C50   1.556399 S    
C1    C44   1.451226 S    
C7    C62   1.485801 S    
C11   C13   1.409801 A    
C25   C27   1.412244 A    
O9    V2    1.772952 S    
C51   N5    1.471029 S    
N5    O32   1.301519 A    
O11   V4    1.964507 S    
O10   V1    1.769830 S    
C50   C52   1.571231 S    
C3    C34   1.494828 S    
C37   C47   1.564228 S    
C48   O30   1.408091 S    
O36   H32   0.991666 S    
C19   O35   1.382512 S    
C20   C22   1.413559 A    
C62   O17   1.331485 A    
C42   H20   1.112535 S    
