data_mof_unit_16058.cif
_audit_creation_date              2012-12-10T18:35:26-0500
_audit_creation_method            fapswitch 2.2
_symmetry_space_group_name_H-M    P1
_symmetry_Int_Tables_number       1
_space_group_crystal_system       triclinic
_cell_length_a                    15.090895
_cell_length_b                    13.835515
_cell_length_c                    10.870456
_cell_angle_alpha                 91.543902
_cell_angle_beta                  90.360483
_cell_angle_gamma                 89.87153
_cell_volume                      2268.77209147

loop_
_atom_site_label
_atom_site_type_symbol
_atom_type_description
_atom_site_fract_x
_atom_site_fract_y
_atom_site_fract_z
_atom_type_partial_charge
C1    C     C_R   0.329859 0.500078 0.499711 0.855772
C2    C     C_R   0.670096 0.499910 0.499850 0.853380
C3    C     C_R   0.048564 0.500091 0.497353 0.008075
C4    C     C_R   0.951214 0.499768 0.497318 0.006823
C5    C     C_R   0.579521 0.108328 0.518988 -0.295299
C6    C     C_R   0.438484 0.890211 0.427925 -0.244873
C7    C     C_R   0.423379 0.106569 0.473837 -0.349007
C8    C     C_R   0.567964 0.892880 0.558308 -0.329670
C9    C     C_R   0.576848 0.209785 0.522549 0.053762
C10   C     C_R   0.438132 0.788893 0.432636 0.102850
C11   C     C_R   0.424082 0.208194 0.474827 0.024184
C12   C     C_R   0.565068 0.791514 0.560739 0.029846
C13   C     C_R   0.502037 0.054151 0.495095 0.120735
C14   C     C_R   0.503039 0.944796 0.493313 0.129646
C15   C     C_R   0.510994 0.498747 0.262292 0.807134
C16   C     C_R   0.489577 0.501433 0.737845 0.804404
C17   C     C_R   0.559003 0.671381 0.122131 -0.345958
C18   C     C_R   0.432461 0.333203 0.882607 -0.334343
C19   C     C_R   0.468026 0.682739 0.900180 -0.342447
C20   C     C_R   0.525634 0.317585 0.102348 -0.335808
C21   C     C_R   0.537658 0.763070 0.077065 0.486152
C22   C     C_R   0.441658 0.241707 0.935558 0.480504
C23   C     C_R   0.486752 0.767756 0.969667 0.460716
C24   C     C_R   0.493800 0.233574 0.041119 0.459554
C25   C     C_R   0.492718 0.590991 0.943467 0.022420
C26   C     C_R   0.507096 0.410215 0.056790 0.018586
C27   C     C_R   0.525894 0.585965 0.064424 0.023434
C28   C     C_R   0.473548 0.415785 0.936255 0.023781
C29   C     C_R   0.478650 0.504091 0.873974 -0.130029
C30   C     C_R   0.522678 0.496885 0.126152 -0.130447
C31   C     C_R   0.094169 0.576984 0.556951 0.507848
C32   C     C_R   0.906180 0.427382 0.560741 0.508065
C33   C     C_R   0.904785 0.572001 0.434294 0.511826
C34   C     C_R   0.094453 0.423292 0.438340 0.509958
C35   C     C_R   0.187225 0.575249 0.558600 -0.314426
C36   C     C_R   0.813139 0.429164 0.562142 -0.311621
C37   C     C_R   0.811697 0.570148 0.434426 -0.318683
C38   C     C_R   0.187515 0.425154 0.438259 -0.311826
C39   C     C_R   0.233353 0.500181 0.498895 -0.147564
C40   C     C_R   0.766509 0.499727 0.498823 -0.144778
Cu1   Cu    Cu3+1 0.500000 0.596430 0.500000 0.926524
Cu2   Cu    Cu3+1 0.500000 0.403570 0.500000 0.923290
H1    H     H_    0.598950 0.666448 0.204423 0.174697
H2    H     H_    0.390934 0.341288 0.802218 0.173156
H3    H     H_    0.427365 0.688616 0.818508 0.186602
H4    H     H_    0.568348 0.309773 0.181604 0.185501
H5    H     H_    0.224081 0.630829 0.608548 0.160002
H6    H     H_    0.776651 0.377377 0.614722 0.155383
H7    H     H_    0.773945 0.621849 0.382450 0.152035
H8    H     H_    0.224651 0.369651 0.388937 0.155244
H9    H     H_    0.642730 0.073410 0.533327 0.129022
H10   H     H_    0.388952 0.924761 0.371754 0.133108
H11   H     H_    0.360949 0.070140 0.457597 0.135868
H12   H     H_    0.619039 0.929611 0.611533 0.133945
H13   H     H_    0.637328 0.248688 0.542713 0.130580
H14   H     H_    0.388527 0.748183 0.381215 0.131522
H15   H     H_    0.363017 0.245864 0.455871 0.132850
H16   H     H_    0.614494 0.753084 0.612892 0.136196
N1    N     N_R   0.500000 0.258690 0.500000 -0.170672
N2    N     N_R   0.500000 0.741310 0.500000 -0.181276
O1    O     O_R   0.371460 0.581430 0.500010 -0.592919
O2    O     O_R   0.628540 0.418570 0.499990 -0.598721
O3    O     O_R   0.628540 0.581430 0.499990 -0.595343
O4    O     O_R   0.371460 0.418570 0.500010 -0.601753
O5    O     O_R   0.499990 0.581440 0.319660 -0.580811
O6    O     O_R   0.500010 0.418560 0.680340 -0.576524
O7    O     O_R   0.500010 0.581440 0.680340 -0.588178
O8    O     O_R   0.499990 0.418560 0.319660 -0.582921
O9    O     O_3   0.519079 0.141769 0.075358 -0.549575
C41   C     C_3   0.492058 0.125225 0.196407 -0.198731
H17   H     H_    0.537431 0.161941 0.263162 0.156650
H18   H     H_    0.496306 0.046499 0.212396 0.226750
H19   H     H_    0.421991 0.147668 0.212269 0.145962
O10   O     O_3   0.450330 0.855971 0.939627 -0.536065
C42   C     C_3   0.483935 0.884924 0.826124 -0.227431
H20   H     H_    0.474308 0.963946 0.819298 0.219133
H21   H     H_    0.446498 0.849247 0.749351 0.153516
H22   H     H_    0.556504 0.871159 0.817735 0.135569
O11   O     O_3   0.396523 0.159333 0.894043 -0.549562
C43   C     C_3   0.390847 0.153192 0.764913 -0.287008
H23   H     H_    0.455717 0.169296 0.722362 0.183246
H24   H     H_    0.337381 0.200742 0.730250 0.157930
H25   H     H_    0.372600 0.078173 0.736923 0.184242
O12   O     O_3   0.555627 0.849714 0.140748 -0.539852
C44   C     C_3   0.637300 0.848040 0.204608 -0.329673
H26   H     H_    0.690953 0.813740 0.148562 0.145245
H27   H     H_    0.629918 0.811940 0.293967 0.175021
H28   H     H_    0.657552 0.923732 0.225793 0.196976
O13   O     O_3   0.045291 0.647048 0.621350 -0.566964
C45   C     C_3   0.079977 0.740712 0.606506 -0.298361
H29   H     H_    0.102227 0.752759 0.510570 0.162910
H30   H     H_    0.134634 0.755105 0.673331 0.164643
H31   H     H_    0.026823 0.794128 0.627076 0.177630
O14   O     O_3   0.955711 0.362272 0.628672 -0.564990
C46   C     C_3   0.920383 0.267862 0.620216 -0.303325
H32   H     H_    0.896666 0.248191 0.525542 0.159911
H33   H     H_    0.866663 0.259297 0.688386 0.161579
H34   H     H_    0.973591 0.215921 0.643564 0.180203
O15   O     O_3   0.953020 0.637094 0.365693 -0.564899
C47   C     C_3   0.916123 0.731008 0.371310 -0.307105
H35   H     H_    0.968344 0.783344 0.347067 0.180166
H36   H     H_    0.892551 0.751809 0.465313 0.160466
H37   H     H_    0.861966 0.737634 0.302370 0.155435
O16   O     O_3   0.045716 0.353114 0.373388 -0.565032
C48   C     C_3   0.081972 0.259683 0.386115 -0.305063
H38   H     H_    0.029320 0.205831 0.365009 0.179593
H39   H     H_    0.105733 0.246809 0.481571 0.159513
H40   H     H_    0.135881 0.246750 0.318542 0.162266

loop_
_geom_bond_atom_site_label_1
_geom_bond_atom_site_label_2
_ccdc_geom_bond_type
C32   O14   S    
Cu1   Cu2   S    
C19   C23   A    
C46   H32   S    
Cu1   O1    S    
C35   H5    S    
C46   H34   S    
Cu1   O7    S    
C44   H26   S    
C7    C11   A    
C48   H39   S    
C45   H31   S    
C32   C36   A    
C28   C29   A    
C22   O11   S    
C37   C40   A    
C38   C39   A    
C15   O8    A    
C15   O5    A    
C20   C24   A    
C31   O13   S    
C41   H17   S    
C9    H13   S    
C10   H14   S    
Cu2   O2    S    
C5    C13   A    
C12   H16   S    
C34   C38   A    
C13   C14   S    
C27   C30   A    
Cu2   O8    S    
O9    C41   S    
C43   H25   S    
C11   N1    A    
O16   C48   S    
C24   O9    S    
C44   H27   S    
C25   C29   A    
C48   H40   S    
O10   C42   S    
C17   C27   A    
C36   C40   A    
C18   C28   A    
O12   C44   S    
C43   H24   S    
C8    H12   S    
Cu1   O5    S    
C3    C34   A    
C16   C29   S    
C47   H37   S    
C33   C37   A    
C9    N1    A    
C10   N2    A    
C42   H20   S    
C17   H1    S    
C5    C9    A    
C18   H2    S    
C6    C14   A    
C37   H7    S    
C45   H30   S    
O15   C47   S    
C21   O12   S    
C8    C12   A    
C41   H19   S    
C47   H36   S    
C16   O7    A    
C46   H33   S    
C3    C31   A    
C42   H21   S    
C4    C32   A    
C26   C30   A    
C21   C23   A    
C31   C35   A    
C16   O6    A    
Cu1   O3    S    
C23   O10   S    
C3    C4    S    
C1    O4    A    
Cu2   O4    S    
C2    O3    A    
C15   C30   S    
C44   H28   S    
C4    C33   A    
C8    C14   A    
C18   C22   A    
Cu1   N2    S    
C43   H23   S    
C1    O1    A    
Cu2   N1    S    
C6    C10   A    
C19   H3    S    
C38   H8    S    
C25   C27   A    
C48   H38   S    
C26   C28   A    
C6    H10   S    
C45   H29   S    
C20   C26   A    
C35   C39   A    
C47   H35   S    
C36   H6    S    
C22   C24   A    
O14   C46   S    
C19   C25   A    
C42   H22   S    
C34   O16   S    
C1    C39   S    
O11   C43   S    
C12   N2    A    
C2    C40   S    
C7    C13   A    
Cu2   O6    S    
C7    H11   S    
C5    H9    S    
C41   H18   S    
C33   O15   S    
O13   C45   S    
C11   H15   S    
C20   H4    S    
C2    O2    A    
C17   C21   A    
