data_mof_unit_20326.cif
_audit_creation_date              2012-12-11T15:52:20-0500
_audit_creation_method            fapswitch 2.2
_symmetry_space_group_name_H-M    P1
_symmetry_Int_Tables_number       1
_space_group_crystal_system       triclinic
_cell_length_a                    11.011541
_cell_length_b                    11.048306
_cell_length_c                    18.7745
_cell_angle_alpha                 90.287374
_cell_angle_beta                  89.721235
_cell_angle_gamma                 119.868943
_cell_volume                      1980.65004344

loop_
_atom_site_label
_atom_site_type_symbol
_atom_type_description
_atom_site_fract_x
_atom_site_fract_y
_atom_site_fract_z
_atom_type_partial_charge
C1    C     C_R   0.519460 0.461069 0.148622 0.579707
C2    C     C_3   0.956577 0.709125 0.460799 -0.269889
C3    C     C_3   0.752653 0.042132 0.459616 -0.269269
C4    C     C_3   0.289963 0.248120 0.460053 -0.269705
C5    C     C_R   0.517152 0.458132 0.352813 0.535115
C6    C     C_R   0.541746 0.059412 0.352917 0.534238
C7    C     C_R   0.940524 0.482482 0.352872 0.536303
C8    C     C_R   0.453766 0.522295 0.644108 0.545545
C9    C     C_R   0.068832 0.546392 0.644094 0.544068
C10   C     C_R   0.477772 0.931309 0.644113 0.553488
C11   C     C_R   0.462661 0.911168 0.935745 0.004882
C12   C     C_R   0.538017 0.055610 0.149462 0.581609
C13   C     C_R   0.032255 0.522346 0.928731 0.054504
C14   C     C_R   0.467648 0.519429 0.931714 0.007112
C15   C     C_R   0.999138 0.487872 0.077210 0.003402
C16   C     C_R   0.482577 0.973339 0.084106 0.000713
C17   C     C_R   0.499632 0.514354 0.081153 -0.005395
C18   C     C_R   0.390578 0.971172 0.967164 -0.014553
C19   C     C_R   0.933738 0.394103 0.956422 0.039819
C20   C     C_R   0.596975 0.593176 0.963650 -0.038504
C21   C     C_R   0.920269 0.376461 0.030129 0.104084
C22   C     C_R   0.395118 0.994494 0.038636 0.024756
C23   C     C_R   0.940796 0.479363 0.148158 0.567785
C24   C     C_R   0.612024 0.595877 0.035598 0.021524
C25   C     C_R   0.539141 0.893843 0.056148 -0.130905
C26   C     C_R   0.103140 0.613936 0.049518 -0.173624
C27   C     C_R   0.366097 0.460726 0.051900 -0.152754
C28   C     C_R   0.117986 0.630134 0.975864 -0.102988
C29   C     C_R   0.532451 0.867040 0.982324 -0.107813
C30   C     C_R   0.349830 0.461209 0.977569 -0.095904
C31   C     C_3   0.292216 0.025309 0.953087 0.501969
C32   C     C_3   0.915456 0.252632 0.942447 0.462648
C33   C     C_3   0.749272 0.683553 0.947905 0.513471
C34   C     C_R   0.449459 0.525343 0.856047 0.538282
C35   C     C_3   0.918670 0.239982 0.022784 0.481144
C36   C     C_3   0.294053 0.046671 0.034313 0.526573
C37   C     C_3   0.766641 0.690983 0.029350 0.537664
C38   C     C_R   0.485619 0.960551 0.568722 0.015968
C39   C     C_R   0.039568 0.524869 0.568636 0.017235
C40   C     C_R   0.474930 0.514566 0.568595 0.016332
C41   C     C_R   0.013743 0.512978 0.420299 0.017605
C42   C     C_R   0.499107 0.986453 0.420393 0.018367
C43   C     C_R   0.485976 0.500948 0.420267 0.017945
C44   C     C_R   0.588242 0.950682 0.529966 0.041074
C45   C     C_R   0.065906 0.544935 0.853769 0.551589
C46   C     C_R   0.048828 0.636815 0.530494 0.043543
C47   C     C_R   0.362533 0.412044 0.530390 0.042164
C48   C     C_R   0.037212 0.632354 0.458045 0.029649
C49   C     C_R   0.595249 0.962451 0.457504 0.030442
C50   C     C_R   0.366488 0.405027 0.457899 0.030037
C51   C     C_R   0.379470 0.968767 0.456775 -0.165738
C52   C     C_R   0.031926 0.411514 0.456016 -0.165309
C53   C     C_R   0.587443 0.620518 0.456210 -0.165503
C54   C     C_R   0.043300 0.416661 0.530509 -0.161045
C55   C     C_R   0.373450 0.957348 0.531261 -0.160514
C56   C     C_R   0.454417 0.877843 0.860186 0.548488
C57   C     C_R   0.582764 0.626572 0.530728 -0.160934
C58   C     C_3   0.743032 0.028006 0.539626 -0.278563
C59   C     C_3   0.970557 0.713417 0.540807 -0.278083
C60   C     C_3   0.286312 0.257799 0.540125 -0.278520
Cr1   Cr    Cr6+3 0.769160 0.541570 0.250690 1.025237
Cr2   Cr    Cr6+3 0.458430 0.227590 0.250690 1.025140
Cr3   Cr    Cr6+3 0.772410 0.230840 0.250690 1.027985
Cr4   Cr    Cr6+3 0.541570 0.769160 0.749310 1.007953
Cr5   Cr    Cr6+3 0.227590 0.458430 0.749310 1.047589
Cr6   Cr    Cr6+3 0.230840 0.772410 0.749310 1.004075
H1    H     H_    0.599440 0.864324 0.089866 0.150958
H2    H     H_    0.049848 0.334487 0.558100 0.130035
H3    H     H_    0.284600 0.951082 0.559374 0.130266
H4    H     H_    0.665081 0.715221 0.558513 0.130378
H5    H     H_    0.783780 0.961231 0.560427 0.135551
H6    H     H_    0.037131 0.820546 0.562139 0.135965
H7    H     H_    0.178970 0.217029 0.561797 0.136191
H8    H     H_    0.846468 0.643441 0.443618 0.168712
H9    H     H_    0.797046 0.152026 0.442641 0.168869
H10   H     H_    0.355966 0.204009 0.442298 0.169639
H11   H     H_    0.780955 0.129109 0.567985 0.138079
H12   H     H_    0.165608 0.701739 0.084235 0.132977
H13   H     H_    0.869120 0.650050 0.569007 0.136988
H14   H     H_    0.350507 0.220271 0.567696 0.137734
H15   H     H_    0.014431 0.813902 0.435687 0.125706
H16   H     H_    0.799679 0.984100 0.433973 0.125471
H17   H     H_    0.184583 0.200978 0.435211 0.125279
H18   H     H_    0.164794 0.927807 0.874859 0.342886
H19   H     H_    0.006644 0.152530 0.908703 0.385416
H20   H     H_    0.780083 0.799720 0.864694 0.332339
H21   H     H_    0.809534 0.045796 0.039857 0.390012
H22   H     H_    0.270238 0.201965 0.051715 0.374220
H23   H     H_    0.275727 0.410547 0.086239 0.157601
H24   H     H_    0.942308 0.710159 0.050054 0.391919
H25   H     H_    0.381503 0.132159 0.867751 0.322181
H26   H     H_    0.790132 0.193399 0.861850 0.338387
H27   H     H_    0.761964 0.580955 0.866720 0.306723
H28   H     H_    0.032427 0.239531 0.100835 0.329584
H29   H     H_    0.185384 0.967816 0.120239 0.315875
H30   H     H_    0.802895 0.811461 0.111121 0.318502
H31   H     H_    0.198413 0.726019 0.954757 0.152277
H32   H     H_    0.584249 0.815183 0.961129 0.183338
H33   H     H_    0.246040 0.417674 0.956254 0.220699
H34   H     H_    0.297388 0.975586 0.428841 0.119680
H35   H     H_    0.025391 0.323086 0.427542 0.120400
H36   H     H_    0.675832 0.702306 0.427864 0.120447
O1    O     O_R   0.911480 0.572650 0.170990 -0.472619
O2    O     O_R   0.528970 0.640340 0.824320 -0.549326
O3    O     O_R   0.111370 0.471030 0.824320 -0.473136
O4    O     O_R   0.359660 0.888630 0.824320 -0.536506
O5    O     O_R   0.909980 0.572450 0.331530 -0.530576
O6    O     O_R   0.427550 0.337530 0.331530 -0.531484
O7    O     O_R   0.662470 0.090020 0.331530 -0.532359
O8    O     O_R   0.572450 0.909980 0.668470 -0.515336
O9    O     O_R   0.337530 0.427550 0.668470 -0.515128
O10   O     O_R   0.090020 0.662470 0.668470 -0.520097
O11   O     O_R   0.638950 0.528780 0.324500 -0.517963
O12   O     O_R   0.427350 0.338830 0.170990 -0.479244
O13   O     O_R   0.471220 0.110170 0.324500 -0.519325
O14   O     O_R   0.889830 0.361050 0.324500 -0.517376
O15   O     O_R   0.528780 0.638950 0.675500 -0.509478
O16   O     O_R   0.110170 0.471220 0.675500 -0.506150
O17   O     O_R   0.361050 0.889830 0.675500 -0.504663
O18   O     O_3   0.666667 0.333333 0.250560 -0.247432
O19   O     O_3   0.333333 0.666667 0.749440 -0.286701
O20   O     O_3   0.159687 0.925317 0.927571 -0.617778
O21   O     O_3   0.026481 0.250482 0.906762 -0.672697
O22   O     O_3   0.787589 0.813393 0.917022 -0.637776
O23   O     O_R   0.661170 0.088520 0.170990 -0.469687
O24   O     O_3   0.798502 0.127811 0.050097 -0.641219
O25   O     O_3   0.350564 0.185517 0.054338 -0.628652
O26   O     O_3   0.844550 0.632392 0.052678 -0.638679
O27   O     O_3   0.353473 0.151426 0.914859 -0.649292
O28   O     O_3   0.784833 0.162006 0.911782 -0.647051
O29   O     O_3   0.808831 0.612027 0.913629 -0.652434
O30   O     O_3   0.040923 0.245403 0.048137 -0.730606
O31   O     O_3   0.166211 0.957293 0.068311 -0.673671
O32   O     O_3   0.810421 0.823615 0.058637 -0.682140
O33   O     O_R   0.572650 0.911480 0.829010 -0.467037
O34   O     O_R   0.338830 0.427350 0.829010 -0.463338
O35   O     O_R   0.088520 0.661170 0.829010 -0.501330
O36   O     O_R   0.640340 0.528970 0.175680 -0.490321
O37   O     O_R   0.471030 0.111370 0.175680 -0.488182
O38   O     O_R   0.888630 0.359660 0.175680 -0.497805

loop_
_geom_bond_atom_site_label_1
_geom_bond_atom_site_label_2
_ccdc_geom_bond_type
C44   C49   A    
C28   H31   S    
C40   C47   A    
C13   C45   S    
C11   C18   A    
C46   C59   S    
Cr3   O38   S    
C10   O8    A    
C44   C58   S    
C25   H1    S    
C9    C39   S    
C36   O31   S    
C32   O28   S    
C3    C49   S    
Cr6   O35   S    
C26   H12   S    
C29   H32   S    
Cr1   O1    S    
Cr6   O4    S    
Cr2   O12   S    
H22   O25   S    
C31   C36   S    
Cr1   O36   S    
C39   C54   A    
Cr2   O6    S    
H18   O20   S    
Cr4   O19   S    
C60   H7    S    
H29   O31   S    
Cr5   O9    S    
C10   O17   A    
C58   H11   S    
C47   C60   S    
C43   C53   A    
C23   O1    A    
C38   C55   A    
C20   C24   A    
C52   C54   A    
C33   O22   S    
Cr5   O16   S    
C13   C28   A    
C27   H23   S    
Cr5   O19   S    
C57   H4    S    
C3    H9    S    
C41   C52   A    
Cr2   O18   S    
C2    H8    S    
C42   C51   A    
C37   O26   S    
C5    O11   A    
C33   O29   S    
C9    O10   A    
C15   C23   S    
C5    C43   S    
Cr4   O33   S    
C27   C30   A    
C9    O16   A    
C32   O21   S    
C14   C30   A    
C19   C32   S    
Cr5   O3    S    
C18   C31   S    
C45   O3    A    
C8    O15   A    
C47   C50   A    
C25   C29   A    
C46   C48   A    
C52   H35   S    
Cr6   O19   S    
C17   C24   A    
C13   C19   A    
C17   C27   A    
C32   C35   S    
C12   C16   S    
C23   O38   A    
C8    O9    A    
C59   H13   S    
C53   C57   A    
C2    C59   S    
C15   C26   A    
H30   O32   S    
C12   O23   A    
C2    C48   S    
C30   H33   S    
H28   O30   S    
Cr4   O15   S    
C4    C50   S    
C7    O14   A    
Cr3   O7    S    
C35   O24   S    
H26   O28   S    
C38   C44   A    
C14   C20   A    
Cr4   O8    S    
C34   O34   A    
C53   H36   S    
C4    C60   S    
C3    H16   S    
C45   O35   A    
C24   C37   S    
C12   O37   A    
Cr3   O23   S    
C56   O4    A    
C55   H3    S    
C39   C46   A    
H25   O27   S    
C20   C33   S    
Cr6   O17   S    
H20   O22   S    
Cr2   O37   S    
C6    O7    A    
C7    O5    A    
C36   O25   S    
C1    O12   A    
Cr3   O14   S    
C56   O33   A    
C33   C37   S    
C16   C25   A    
Cr4   O2    S    
C60   H14   S    
C16   C22   A    
C40   C57   A    
C19   C21   A    
C18   C22   A    
C26   C28   A    
C31   O20   S    
C14   C34   S    
C43   C50   A    
C21   C35   S    
C22   C36   S    
C59   H6    S    
C1    C17   S    
C10   C38   S    
Cr2   O13   S    
C31   O27   S    
Cr1   O11   S    
Cr3   O18   S    
C4    H17   S    
C41   C48   A    
H19   O21   S    
C51   C55   A    
C7    C41   S    
Cr1   O5    S    
C34   O2    A    
C6    O13   A    
C4    H10   S    
Cr5   O34   S    
C58   H5    S    
C1    O36   A    
C42   C49   A    
C3    C58   S    
C15   C21   A    
C54   H2    S    
C11   C29   A    
C6    C42   S    
H24   O26   S    
C37   O32   S    
C2    H15   S    
C51   H34   S    
C8    C40   S    
Cr6   O10   S    
H27   O29   S    
C35   O30   S    
H21   O24   S    
C11   C56   S    
Cr1   O18   S    
C5    O6    A    
