data_mof_unit_23943.cif
_audit_creation_date              2012-12-11T14:00:04-0500
_audit_creation_method            fapswitch 2.2
_symmetry_space_group_name_H-M    P1
_symmetry_Int_Tables_number       1
_space_group_crystal_system       triclinic
_cell_length_a                    11.235441
_cell_length_b                    11.240086
_cell_length_c                    18.773746
_cell_angle_alpha                 89.968533
_cell_angle_beta                  90.064368
_cell_angle_gamma                 119.993413
_cell_volume                      2053.38258988

loop_
_atom_site_label
_atom_site_type_symbol
_atom_type_description
_atom_site_fract_x
_atom_site_fract_y
_atom_site_fract_z
_atom_type_partial_charge
C1    C     C_R   0.542280 0.477254 0.853428 0.537883
C2    C     C_R   0.480917 0.541263 0.350445 0.557332
C3    C     C_R   0.060451 0.519161 0.350459 0.556103
C4    C     C_R   0.458786 0.939594 0.350469 0.557204
C5    C     C_2   0.970597 0.479036 0.572131 -0.102886
C6    C     C_2   0.521024 0.491522 0.572062 -0.103513
C7    C     C_2   0.508224 0.029284 0.572141 -0.101860
C8    C     C_2   0.511963 0.017934 0.415482 -0.106284
C9    C     C_2   0.506291 0.488100 0.415415 -0.106358
C10   C     C_2   0.982145 0.493924 0.415444 -0.106209
C11   C     C_2   0.945397 0.379679 0.452444 -0.161778
C12   C     C_R   0.522529 0.064555 0.853260 0.561693
C13   C     C_2   0.620588 0.565550 0.452444 -0.162002
C14   C     C_2   0.434580 0.054975 0.452349 -0.161752
C15   C     C_2   0.457219 0.087098 0.527696 -0.150784
C16   C     C_2   0.629961 0.542722 0.527776 -0.151101
C17   C     C_2   0.913129 0.370201 0.527748 -0.151908
C18   C     C_2   0.007394 0.509129 0.921184 -0.100952
C19   C     C_2   0.492630 0.493849 0.922379 -0.165524
C20   C     C_2   0.505114 0.996816 0.921830 -0.139342
C21   C     C_2   0.507390 0.001137 0.077598 -0.147838
C22   C     C_2   0.495001 0.491872 0.078161 -0.144764
C23   C     C_R   0.937185 0.458710 0.852814 0.571356
C24   C     C_2   0.999000 0.505896 0.076808 -0.152737
C25   C     C_2   0.017538 0.616326 0.037752 -0.067132
C26   C     C_2   0.385479 0.402093 0.038206 -0.011598
C27   C     C_2   0.595826 0.979456 0.037558 -0.009127
C28   C     C_2   0.614706 0.016995 0.961892 -0.022359
C29   C     C_2   0.404089 0.383798 0.962427 -0.019774
C30   C     C_2   0.995858 0.605589 0.959634 -0.024367
C31   C     C_2   0.056021 0.751581 0.071143 0.281826
C32   C     C_2   0.243327 0.316027 0.066822 0.337154
C33   C     C_2   0.680214 0.921010 0.065855 0.333404
C34   C     C_R   0.477505 0.542062 0.146747 0.556168
C35   C     C_2   0.757242 0.074382 0.933594 0.327742
C36   C     C_2   0.319526 0.241281 0.933965 0.340660
C37   C     C_2   0.961255 0.705580 0.926858 0.343032
C38   C     C_R   0.064106 0.522350 0.146605 0.559994
C39   C     C_R   0.457694 0.934934 0.146551 0.556368
C40   C     C_R   0.546409 0.478007 0.646429 0.548974
C41   C     C_R   0.521905 0.068354 0.646459 0.553236
C42   C     C_R   0.931549 0.453550 0.646445 0.552317
Cr1   Cr    Cr6+3 0.464030 0.233680 0.750360 1.044615
Cr2   Cr    Cr6+3 0.766320 0.230350 0.750360 1.028928
Cr3   Cr    Cr6+3 0.769650 0.535970 0.750360 1.074439
Cr4   Cr    Cr6+3 0.233680 0.464030 0.249640 1.025945
Cr5   Cr    Cr6+3 0.230350 0.766320 0.249640 1.032859
Cr6   Cr    Cr6+3 0.535970 0.769650 0.249640 1.021892
H1    H     H_    0.955776 0.405059 0.052613 0.162702
H2    H     H_    0.420335 0.153468 0.547958 0.157021
H3    H     H_    0.733231 0.579697 0.548175 0.157057
H4    H     H_    0.846958 0.266928 0.548048 0.157533
H5    H     H_    0.971402 0.577310 0.437695 0.101883
H6    H     H_    0.422906 0.393942 0.437657 0.101945
H7    H     H_    0.605997 0.028431 0.437868 0.101822
H8    H     H_    0.546795 0.963449 0.553600 0.094284
H9    H     H_    0.416605 0.452873 0.553380 0.094640
H10   H     H_    0.036220 0.583455 0.553547 0.095773
H11   H     H_    0.009112 0.755736 0.120894 0.116283
H12   H     H_    0.597525 0.544471 0.055289 0.117750
H13   H     H_    0.225997 0.265044 0.117971 0.131877
H14   H     H_    0.731720 0.953635 0.116947 0.136057
H15   H     H_    0.775487 0.041409 0.882491 0.138359
H16   H     H_    0.267428 0.222837 0.883061 0.145539
H17   H     H_    0.886151 0.725523 0.952199 0.124497
H18   H     H_    0.455753 0.052037 0.054687 0.160344
H19   H     H_    0.402486 0.946319 0.944596 0.170880
H20   H     H_    0.544501 0.596316 0.945279 0.143252
H21   H     H_    0.048260 0.449363 0.945440 0.158300
H22   H     H_    0.948630 0.293096 0.428815 0.152791
H23   H     H_    0.707192 0.655398 0.428839 0.152496
H24   H     H_    0.344901 0.052021 0.428576 0.152750
O1    O     O_R   0.434100 0.092480 0.829780 -0.471010
O2    O     O_R   0.362730 0.477510 0.175360 -0.524366
O3    O     O_R   0.114780 0.637270 0.175360 -0.513028
O4    O     O_R   0.522490 0.885220 0.175360 -0.526681
O5    O     O_R   0.432250 0.092620 0.670380 -0.509678
O6    O     O_R   0.907380 0.339630 0.670380 -0.516791
O7    O     O_R   0.660370 0.567750 0.670380 -0.511702
O8    O     O_R   0.092620 0.432250 0.329620 -0.517695
O9    O     O_R   0.339630 0.907380 0.329620 -0.517792
O10   O     O_R   0.567750 0.660370 0.329620 -0.517936
O11   O     O_R   0.475790 0.362860 0.676880 -0.505963
O12   O     O_R   0.907520 0.341620 0.829780 -0.502106
O13   O     O_R   0.637140 0.112930 0.676880 -0.506189
O14   O     O_R   0.887070 0.524210 0.676880 -0.496797
O15   O     O_R   0.362860 0.475790 0.323120 -0.503535
O16   O     O_R   0.112930 0.637140 0.323120 -0.505307
O17   O     O_R   0.524210 0.887070 0.323120 -0.503699
O18   O     O_3   0.666667 0.333333 0.749450 -0.266258
O19   O     O_3   0.333333 0.666667 0.250550 -0.247402
O20   O     O_2   0.139803 0.859076 0.042863 -0.449272
O21   O     O_2   0.143997 0.298015 0.031840 -0.476064
O22   O     O_2   0.696840 0.839292 0.030507 -0.536153
O23   O     O_R   0.658380 0.565900 0.829780 -0.498045
O24   O     O_2   0.855924 0.155961 0.968836 -0.481870
O25   O     O_2   0.303768 0.142778 0.968895 -0.471827
O26   O     O_2   0.023373 0.772760 0.874635 -0.456284
O27   O     O_R   0.092480 0.434100 0.170220 -0.492243
O28   O     O_R   0.341620 0.907520 0.170220 -0.478756
O29   O     O_R   0.565900 0.658380 0.170220 -0.497100
O30   O     O_R   0.477510 0.362730 0.824640 -0.521634
O31   O     O_R   0.637270 0.114780 0.824640 -0.528179
O32   O     O_R   0.885220 0.522490 0.824640 -0.463644

loop_
_geom_bond_atom_site_label_1
_geom_bond_atom_site_label_2
_ccdc_geom_bond_type
C25   C31   S    
Cr4   O8    S    
C5    C42   S    
C26   C32   S    
C21   H18   S    
Cr1   O11   S    
Cr6   O4    S    
C20   H19   S    
C40   O11   A    
C16   H3    S    
C4    C8    S    
C33   O22   D    
C11   H22   S    
C35   O24   D    
C27   C33   S    
C29   C36   S    
C5    H10   S    
C32   H13   S    
Cr4   O15   S    
C22   H12   S    
C5    C17   D    
C25   C30   S    
C17   H4    S    
C15   H2    S    
C31   H11   S    
C10   H5    S    
C9    C13   D    
Cr1   O1    S    
C4    O9    A    
C28   C35   S    
C33   H14   S    
Cr6   O19   S    
C37   H17   S    
C24   C38   S    
C36   O25   D    
C42   O14   A    
C18   H21   S    
C7    C15   D    
C32   O21   D    
C21   C27   D    
C12   O1    A    
C6    H9    S    
C14   H24   S    
C7    H8    S    
C3    O8    A    
C8    H7    S    
C37   O26   D    
Cr2   O31   S    
C38   O3    A    
C22   C34   S    
C1    C19   S    
C34   O29   A    
C23   O12   A    
C18   C23   S    
Cr1   O18   S    
C2    O15   A    
C24   C25   D    
C12   O31   A    
Cr5   O9    S    
Cr4   O19   S    
C13   H23   S    
Cr5   O28   S    
C30   C37   S    
Cr3   O32   S    
C23   O32   A    
C21   C39   S    
C1    O23   A    
C12   C20   S    
C40   O7    A    
C19   H20   S    
Cr3   O7    S    
C39   O4    A    
Cr3   O18   S    
C34   O2    A    
C18   C30   D    
C42   O6    A    
Cr6   O17   S    
C6    C40   S    
C2    O10   A    
Cr2   O13   S    
C19   C29   D    
Cr4   O2    S    
Cr2   O18   S    
C4    O17   A    
C24   H1    S    
C11   C17   S    
C8    C14   D    
C3    O16   A    
Cr5   O19   S    
C38   O27   A    
Cr2   O12   S    
Cr1   O5    S    
C20   C28   D    
Cr5   O16   S    
Cr4   O27   S    
Cr2   O6    S    
Cr3   O14   S    
Cr1   O30   S    
Cr5   O3    S    
C3    C10   S    
C41   O5    A    
C39   O28   A    
Cr6   O29   S    
Cr6   O10   S    
C7    C41   S    
C10   C11   D    
C6    C16   D    
C26   C29   S    
C31   O20   D    
C22   C26   D    
C13   C16   S    
C27   C28   S    
C14   C15   S    
C35   H15   S    
C9    H6    S    
C36   H16   S    
C2    C9    S    
C1    O30   A    
C41   O13   A    
Cr3   O23   S    
