data_mof_unit_15788.cif
_audit_creation_date              2012-12-11T16:53:35-0500
_audit_creation_method            fapswitch 2.2
_symmetry_space_group_name_H-M    P1
_symmetry_Int_Tables_number       1
_space_group_crystal_system       triclinic
_cell_length_a                    15.055639
_cell_length_b                    14.805433
_cell_length_c                    16.949285
_cell_angle_alpha                 108.675195
_cell_angle_beta                  106.713752
_cell_angle_gamma                 108.376772
_cell_volume                      3063.06128402

loop_
_atom_site_label
_atom_site_type_symbol
_atom_type_description
_atom_site_fract_x
_atom_site_fract_y
_atom_site_fract_z
_atom_type_partial_charge
C1    C     C_R   0.088123 0.286744 0.076697 -0.126935
C2    C     C_R   0.026355 0.579434 0.744402 0.082726
C3    C     C_R   0.761775 0.195346 0.726011 0.074621
C4    C     C_R   0.277923 0.452439 0.958085 0.067252
C5    C     C_R   0.273076 0.689798 0.253663 -0.142653
C6    C     C_R   0.704954 0.503564 0.922101 0.192955
C7    C     C_R   0.891074 0.463834 0.188123 -0.121552
C8    C     C_R   0.084491 0.806565 0.019340 -0.109957
C9    C     C_R   0.913789 0.723708 0.941228 -0.098306
C10   C     C_R   0.064365 0.549060 0.265251 -0.124981
C11   C     C_R   0.278327 0.786168 0.176936 -0.137843
C12   C     C_R   0.935970 0.518345 0.745705 -0.159133
C13   C     C_R   0.702295 0.411889 0.003515 -0.163833
C14   C     C_R   0.334482 0.783563 0.256083 0.066342
C15   C     C_R   0.646132 0.449014 0.955779 0.052991
C16   C     C_R   0.972665 0.534904 0.274739 0.060477
C17   C     C_R   0.999378 0.822633 0.981718 0.022555
C18   C     C_R   0.437505 0.526230 0.947773 0.027846
C19   C     C_R   0.359773 0.437296 0.939179 0.095652
C20   C     C_R   0.370944 0.343511 0.925033 -0.212886
C21   C     C_R   0.464531 0.343597 0.926854 -0.183476
C22   C     C_R   0.545151 0.438048 0.944418 0.012160
C23   C     C_R   0.777535 0.201300 0.812837 -0.131834
C24   C     C_R   0.529027 0.526989 0.952014 -0.052802
C25   C     C_3   0.591904 0.641147 0.024716 1.167089
C26   C     C_3   0.488220 0.640525 0.019575 -0.772244
C27   C     C_R   0.963885 0.580188 0.361297 0.135771
C28   C     C_R   0.034231 0.620637 0.677304 0.126849
C29   C     C_R   0.138573 0.692450 0.606736 -0.223673
C30   C     C_R   0.131797 0.675113 0.681048 -0.176735
C31   C     C_R   0.943880 0.596086 0.603416 -0.281837
C32   C     C_R   0.949954 0.607835 0.526715 0.191461
C33   C     C_R   0.048015 0.651952 0.526999 0.188119
C34   C     C_R   0.248199 0.526082 0.942044 -0.105724
C35   C     C_R   0.054061 0.642244 0.444702 -0.277014
C36   C     C_R   0.866285 0.549197 0.363014 -0.173886
C37   C     C_R   0.859454 0.564424 0.445963 -0.229320
C38   C     C_R   0.720259 0.098898 0.639260 0.128523
C39   C     C_R   0.442842 0.857221 0.322802 0.128406
C40   C     C_R   0.588355 0.032308 0.394528 -0.225526
C41   C     C_R   0.495525 0.952378 0.320044 -0.178617
C42   C     C_R   0.490714 0.837868 0.395645 -0.289481
C43   C     C_R   0.579983 0.919596 0.472612 0.190823
C44   C     C_R   0.626544 0.019050 0.473477 0.188789
C45   C     C_R   0.784229 0.297616 0.735182 -0.159501
C46   C     C_R   0.700886 0.107083 0.556364 -0.276820
C47   C     C_R   0.684130 0.997550 0.636414 -0.173132
C48   C     C_R   0.615432 0.907606 0.552732 -0.226042
C49   C     C_R   0.081074 0.090937 0.116687 0.159566
C50   C     C_R   0.001707 0.122066 0.095473 0.031997
C51   C     C_R   0.922415 0.086403 0.122964 -0.206681
C52   C     C_R   0.931652 0.035634 0.180422 -0.220582
C53   C     C_R   0.018316 0.016937 0.209379 0.039094
C54   C     C_R   0.087334 0.037443 0.170346 0.181722
C55   C     C_3   0.202630 0.088804 0.213630 -0.497954
C56   C     C_R   0.248446 0.433553 0.023532 -0.150248
C57   C     C_3   0.196961 0.148999 0.155920 -0.530851
C58   C     C_R   0.107501 0.604056 0.823996 -0.146712
C59   C     C_R   0.916515 0.202380 0.001925 -0.144574
C60   C     C_R   0.002662 0.193925 0.051299 0.066461
H1    H     H_    0.164885 0.317091 0.129535 0.088499
H2    H     H_    0.809358 0.434448 0.170208 0.093679
H3    H     H_    0.164952 0.864011 0.049684 0.088340
H4    H     H_    0.837503 0.706409 0.896862 0.112248
H5    H     H_    0.142870 0.598563 0.318050 0.095416
H6    H     H_    0.307103 0.839310 0.149187 0.081984
H7    H     H_    0.674031 0.354377 0.027686 0.096404
H8    H     H_    0.310549 0.273632 0.917742 0.130588
H9    H     H_    0.475625 0.272987 0.919021 0.127211
H10   H     H_    0.857863 0.495878 0.699784 0.092629
H11   H     H_    0.473879 0.649705 0.081648 0.197259
H12   H     H_    0.467191 0.691082 0.988820 0.205648
H13   H     H_    0.129891 0.672139 0.445472 0.118362
H14   H     H_    0.794964 0.506229 0.300287 0.111229
H15   H     H_    0.214386 0.728113 0.608354 0.127727
H16   H     H_    0.783592 0.532780 0.445232 0.125629
H17   H     H_    0.203227 0.698171 0.738101 0.116058
H18   H     H_    0.868060 0.558000 0.600576 0.118888
H19   H     H_    0.732831 0.183586 0.556501 0.119538
H20   H     H_    0.768031 0.137265 0.831977 0.093691
H21   H     H_    0.701759 0.987960 0.698832 0.116689
H22   H     H_    0.624382 0.107871 0.393862 0.126565
H23   H     H_    0.582020 0.831024 0.552491 0.126829
H24   H     H_    0.462417 0.968550 0.263616 0.113753
H25   H     H_    0.453856 0.763815 0.397905 0.116248
H26   H     H_    0.857848 0.105587 0.107129 0.127155
H27   H     H_    0.875001 0.017377 0.207466 0.131289
H28   H     H_    0.236950 0.141139 0.289118 0.198280
H29   H     H_    0.233920 0.030918 0.193268 0.187943
H30   H     H_    0.229857 0.235899 0.200199 0.193030
H31   H     H_    0.263809 0.562140 0.898251 0.108604
H32   H     H_    0.226120 0.126511 0.103005 0.193664
H33   H     H_    0.780173 0.323738 0.682396 0.103153
H34   H     H_    0.264454 0.384187 0.055166 0.100501
H35   H     H_    0.186863 0.663463 0.852750 0.083714
H36   H     H_    0.836834 0.153013 0.984866 0.088169
H37   H     H_    0.296242 0.653048 0.296233 0.085616
N1    N     N_R   0.055640 0.348550 0.045600 -0.038518
N2    N     N_R   0.798340 0.505430 0.954400 -0.056294
N3    N     N_R   0.931580 0.439470 0.128350 -0.040119
N4    N     N_R   0.051950 0.704140 0.002340 -0.039979
N5    N     N_R   0.944360 0.651450 0.954400 -0.046287
N6    N     N_R   0.039170 0.492150 0.176290 -0.041098
N7    N     N_R   0.188710 0.696600 0.128350 -0.036893
N8    N     N_R   0.794820 0.447010 0.002340 -0.049104
N9    N     N_R   0.960830 0.507850 0.823710 -0.040337
N10   N     N_R   0.811290 0.303400 0.871650 -0.040278
N11   N     N_R   0.205180 0.552990 0.997660 -0.044774
N12   N     N_R   0.814810 0.361830 0.823710 -0.050080
N13   N     N_R   0.201660 0.494570 0.045600 -0.039898
N14   N     N_R   0.068420 0.560530 0.871650 -0.036267
N15   N     N_R   0.948050 0.295860 0.997660 -0.037647
N16   N     N_R   0.185190 0.638170 0.176290 -0.037803
Ni1   Ni    Ni4+2 0.119330 0.493420 0.109950 0.209577
Ni2   Ni    Ni4+2 0.880670 0.506580 0.890050 0.209224
Ni3   Ni    Ni4+2 0.872590 0.372590 0.000000 0.207488
Ni4   Ni    Ni4+2 0.127410 0.627410 0.000000 0.208093
C61   C     C_3   0.659446 0.525170 0.841558 -0.448529
C62   C     C_3   0.685701 0.481539 0.761489 -0.292263
C63   C     C_3   0.639353 0.507066 0.683592 -0.939905
H38   H     H_    0.553422 0.470438 0.656059 0.270089
H39   H     H_    0.670422 0.594790 0.708923 0.264624
H40   H     H_    0.660250 0.474455 0.626723 0.244135
H41   H     H_    0.770453 0.518282 0.786114 0.210542
H42   H     H_    0.654359 0.393620 0.733975 0.213357
H43   H     H_    0.573470 0.486212 0.812413 0.201355
H44   H     H_    0.682853 0.611254 0.866081 0.231133
O1    O     O_3   0.666754 0.654018 0.107437 -0.635249
C64   C     C_3   0.624734 0.616899 0.161924 -0.345388
H45   H     H_    0.683974 0.606145 0.209568 0.189734
H46   H     H_    0.554766 0.538426 0.120552 0.151359
H47   H     H_    0.608137 0.677558 0.205236 0.163852
O2    O     O_3   0.638112 0.704925 0.987309 -0.674627
C65   C     C_3   0.695364 0.812756 0.054094 -0.234778
H48   H     H_    0.767515 0.824827 0.107174 0.192214
H49   H     H_    0.649068 0.841341 0.087205 0.128289
H50   H     H_    0.718464 0.862105 0.019485 0.161916

loop_
_geom_bond_atom_site_label_1
_geom_bond_atom_site_label_2
_ccdc_geom_bond_type
N4    N5    A    
C57   H32   S    
C9    H4    S    
C26   H12   S    
N8    Ni3   S    
C3    C23   A    
C19   C20   A    
N3    Ni3   S    
C58   H35   S    
C2    C12   A    
O1    C64   S    
C65   H50   S    
C39   C41   A    
C62   H41   S    
C52   C53   A    
C56   H34   S    
C18   C24   A    
C36   C37   A    
C25   O1    S    
N16   Ni1   S    
N2    Ni2   S    
C46   H19   S    
C11   C14   A    
C45   N12   A    
N1    Ni1   S    
C49   C54   A    
C29   C33   A    
C49   C57   S    
C18   C19   A    
N4    Ni4   S    
C55   H28   S    
C61   C62   S    
N5    Ni2   S    
C14   C39   S    
C34   H31   S    
C30   H17   S    
C15   C22   S    
C35   H13   S    
C31   C32   A    
C3    C38   S    
C44   C46   A    
C9    N5    A    
C18   C26   S    
C11   N7    A    
C23   H20   S    
C25   O2    S    
C43   C48   A    
N13   Ni1   S    
C63   H40   S    
C64   H47   S    
C16   C27   S    
C6    C15   A    
C45   H33   S    
C59   C60   A    
C21   C22   A    
C4    C56   A    
C26   H11   S    
C4    C19   S    
C51   H26   S    
C56   N13   A    
C63   H39   S    
C59   N15   A    
C39   C42   A    
N9    N14   A    
C52   H27   S    
N2    N8    A    
C4    C34   A    
N1    N15   A    
C7    N3    A    
C51   C52   A    
C40   H22   S    
N6    Ni1   S    
C24   C25   S    
C13   N8    A    
C57   H30   S    
C1    C60   A    
C65   H49   S    
C27   C35   A    
C25   C26   S    
C53   C54   A    
C41   H24   S    
C3    C45   A    
N3    N6    A    
C58   N14   A    
C21   H9    S    
C43   C44   A    
C7    H2    S    
C29   C30   A    
C47   C48   A    
C23   N10   A    
C50   C51   A    
C5    C14   A    
C42   H25   S    
C32   C37   A    
C38   C47   A    
C36   H14   S    
C62   H42   S    
C9    C17   A    
C40   C41   A    
C37   H16   S    
C5    H37   S    
C55   C57   S    
O2    C65   S    
C22   C24   A    
C42   C43   A    
N15   Ni3   S    
C63   H38   S    
C31   H18   S    
N7    Ni4   S    
C13   H7    S    
C10   H5    S    
C12   H10   S    
C54   C55   S    
C10   N6    A    
C5    N16   A    
N11   Ni4   S    
C20   H8    S    
C28   C31   A    
C7    C16   A    
C1    H1    S    
C1    N1    A    
C62   C63   S    
C2    C58   A    
C65   H48   S    
C29   H15   S    
C8    N4    A    
C27   C36   A    
C8    C17   A    
C48   H23   S    
N9    Ni2   S    
N14   Ni4   S    
C50   C60   S    
C32   C33   A    
C13   C15   A    
C64   H45   S    
C34   N11   A    
C55   H29   S    
C10   C16   A    
C6    N2    A    
C12   N9    A    
N10   N12   A    
C28   C30   A    
C33   C35   A    
N11   N13   A    
C59   H36   S    
C47   H21   S    
N10   Ni3   S    
C38   C46   A    
N12   Ni2   S    
C8    H3    S    
N7    N16   A    
C40   C44   A    
C20   C21   A    
C49   C50   A    
C61   H44   S    
C2    C28   S    
C61   H43   S    
C6    C61   S    
C64   H46   S    
C11   H6    S    
