data_mof_unit_47366.cif
_audit_creation_date              2012-12-11T19:54:04-0500
_audit_creation_method            fapswitch 2.2
_symmetry_space_group_name_H-M    P1
_symmetry_Int_Tables_number       1
_space_group_crystal_system       triclinic
_cell_length_a                    8.239615
_cell_length_b                    16.322939
_cell_length_c                    17.206108
_cell_angle_alpha                 111.757601
_cell_angle_beta                  82.667306
_cell_angle_gamma                 95.443066
_cell_volume                      2128.85438514

loop_
_atom_site_label
_atom_site_type_symbol
_atom_type_description
_atom_site_fract_x
_atom_site_fract_y
_atom_site_fract_z
_atom_type_partial_charge
Ba1   Ba    Ba6+2 0.325860 0.460280 0.530510 1.635542
Ba2   Ba    Ba6+2 0.863950 0.539650 0.469460 1.674563
C1    C     C_3   0.768224 0.227806 0.762799 -0.357636
C2    C     C_3   0.849142 0.287028 0.716710 0.292089
C3    C     C_3   0.005383 0.702361 0.743309 0.308520
C4    C     C_3   0.985474 0.741775 0.839717 -0.049280
C5    C     C_3   0.715232 0.695912 0.276199 0.385234
C6    C     C_3   0.759759 0.705337 0.191096 -0.296482
C7    C     C_3   0.232791 0.759038 0.296528 0.564247
C8    C     C_3   0.160500 0.850586 0.337266 0.268935
C9    C     C_2   0.768155 0.505704 0.728746 -0.274638
C10   C     C_3   0.894898 0.512564 0.786906 -0.027757
C11   C     C_2   0.814585 0.505279 0.869038 -0.095122
C12   C     C_3   0.293429 0.219923 0.678821 0.522103
C13   C     C_2   0.653566 0.520546 0.892782 -0.002715
C14   C     C_2   0.556747 0.542420 0.835937 -0.136122
C15   C     C_1   0.625172 0.539197 0.760977 0.077689
C16   C     C_R   0.397176 0.527797 0.140850 -0.158460
C17   C     C_R   0.343747 0.544869 0.225202 0.004910
C18   C     C_R   0.566378 0.464261 0.237473 0.048653
C19   C     C_R   0.620641 0.444886 0.150859 0.119347
C20   C     C_R   0.538621 0.480395 0.102720 -0.003423
C21   C     C_2   0.576608 0.526477 0.977574 -0.099060
C22   C     C_2   0.597601 0.467350 0.012925 -0.093272
C23   C     C_3   0.204393 0.129209 0.643063 -0.323477
C24   C     C_R   0.431339 0.515938 0.273632 -0.304437
C25   C     C_2   0.387633 0.755852 0.499022 -0.338654
C26   C     C_R   0.810385 0.247675 0.477494 -0.261416
C27   C     C_2   0.201285 0.875889 0.570739 0.321655
C28   C     C_2   0.235556 0.791332 0.553014 0.018568
C29   C     C_2   0.508730 0.810050 0.481186 0.006334
C30   C     C_3   0.484266 0.908904 0.516338 -0.073270
C31   C     C_3   0.304024 0.928938 0.526190 -0.053092
C32   C     C_2   0.585947 0.964722 0.474006 0.184674
C33   C     C_2   0.638302 0.045780 0.523857 -0.052087
C34   C     C_3   0.610117 0.258983 0.319003 0.360172
C35   C     C_R   0.899175 0.078318 0.451921 0.078916
C36   C     C_R   0.744331 0.106177 0.491854 -0.059340
C37   C     C_R   0.007126 0.133608 0.422610 -0.117771
C38   C     C_R   0.961996 0.218351 0.435544 0.008199
C39   C     C_R   0.697443 0.191140 0.502329 0.016652
C40   C     C_3   0.513865 0.172071 0.279153 -0.325093
C41   C     C_3   0.526294 0.731467 0.671620 0.296286
C42   C     C_3   0.517548 0.831442 0.709128 -0.365244
C43   C     C_3   0.043322 0.238638 0.236190 0.393460
C44   C     C_3   0.004545 0.139705 0.220390 0.236251
H1    H     H_    0.887639 0.245797 0.650411 0.014602
H2    H     H_    0.595691 0.122269 0.233619 0.162296
H3    H     H_    0.457687 0.146714 0.328400 0.075107
H4    H     H_    0.415576 0.181457 0.245371 0.144262
H5    H     H_    0.416278 0.701866 0.638801 -0.000172
H6    H     H_    0.636070 0.715086 0.625597 0.087308
H7    H     H_    0.404450 0.849873 0.752946 0.138821
H8    H     H_    0.516612 0.858155 0.658693 0.066718
H9    H     H_    0.625945 0.861456 0.743961 0.135525
H10   H     H_    0.934043 0.277162 0.262762 0.056870
H11   H     H_    0.664028 0.187683 0.730161 0.134662
H12   H     H_    0.120217 0.105821 0.210805 0.090157
H13   H     H_    0.927839 0.131441 0.274729 -0.019830
H14   H     H_    0.756770 0.333042 0.718066 -0.006104
H15   H     H_    0.723103 0.269004 0.828044 0.105608
H16   H     H_    0.882181 0.685813 0.719943 0.003835
H17   H     H_    0.072889 0.640943 0.723393 0.005575
H18   H     H_    0.946891 0.688229 0.864211 0.028310
H19   H     H_    0.105168 0.770499 0.863872 0.112543
H20   H     H_    0.856974 0.182492 0.766019 0.127111
H21   H     H_    0.259578 0.081776 0.663173 0.155282
H22   H     H_    0.761247 0.632700 0.272356 0.076696
H23   H     H_    0.579873 0.693350 0.289408 -0.072982
H24   H     H_    0.686560 0.655952 0.143536 0.048097
H25   H     H_    0.734750 0.772423 0.194955 0.159934
H26   H     H_    0.891338 0.694097 0.170019 0.163783
H27   H     H_    0.285240 0.748263 0.348249 -0.133002
H28   H     H_    0.258904 0.901475 0.360363 -0.006801
H29   H     H_    0.074077 0.852007 0.392617 0.089975
H30   H     H_    0.233330 0.269164 0.663444 0.101636
H31   H     H_    0.665655 0.409889 0.975229 0.086013
H32   H     H_    0.432047 0.562712 0.857169 0.092283
H33   H     H_    0.323907 0.548950 0.104561 0.067311
H34   H     H_    0.503588 0.582969 0.011692 0.076403
H35   H     H_    0.890545 0.494724 0.911326 0.067206
H36   H     H_    0.793967 0.472156 0.661269 0.071435
H37   H     H_    0.387377 0.528764 0.338825 0.089329
H38   H     H_    0.124632 0.110337 0.389916 0.110612
H39   H     H_    0.405523 0.685870 0.480158 0.074878
H40   H     H_    0.777600 0.313845 0.487782 0.063932
H41   H     H_    0.604467 0.067608 0.591237 0.087031
H42   H     H_    0.073013 0.132822 0.666752 0.096088
H43   H     H_    0.211344 0.103515 0.573705 0.131784
H44   H     H_    0.722509 0.244159 0.338311 -0.120656
H45   H     H_    0.538160 0.299724 0.376366 0.095353
O1    O     O_2   0.351410 0.559500 0.703710 -0.462738
O2    O     O_3   0.165974 0.272754 0.291353 -0.646823
O3    O     O_3   0.459137 0.213979 0.646460 -0.642836
O4    O     O_2   0.838300 0.440470 0.296230 -0.439489
O5    O     O_3   0.567380 0.446810 0.395500 -0.510665
O6    O     O_3   0.111820 0.604620 0.376600 -0.464371
O7    O     O_3   0.652041 0.298812 0.258875 -0.627889
O8    O     O_3   0.149150 0.609060 0.561440 -0.485707
O9    O     O_3   0.701290 0.652490 0.425560 -0.497697
O10   O     O_2   0.845745 0.809028 0.495906 -0.433874
O11   O     O_3   0.787458 0.767350 0.338887 -0.562910
O12   O     O_3   0.622300 0.553110 0.604480 -0.500524
O13   O     O_3   0.040530 0.390860 0.438530 -0.461960
O14   O     O_2   0.927940 0.718960 0.581060 -0.437450
O15   O     O_3   0.095538 0.763307 0.712638 -0.627269
O16   O     O_2   0.007304 0.531604 0.227591 -0.497601
O17   O     O_3   0.108071 0.694708 0.263932 -0.575643
O18   O     O_3   0.077860 0.395310 0.623380 -0.480112
O19   O     O_2   0.211515 0.453919 0.767172 -0.493786
O20   O     O_3   0.535775 0.700608 0.736675 -0.646909
O21   O     O_3   0.987586 0.331001 0.756800 -0.620011
O22   O     O_2   0.261760 0.281010 0.418880 -0.461115
O23   O     O_3   0.488390 0.347430 0.574410 -0.473571
O24   O     O_2   0.356857 0.185286 0.496478 -0.537145
P1    P     P_3+3 0.533580 0.585010 0.696460 0.973686
P2    P     P_3+3 0.097450 0.292710 0.397510 0.964950
P3    P     P_3+3 0.495780 0.233813 0.551931 0.898703
P4    P     P_3+3 0.656110 0.414920 0.303520 1.004717
P5    P     P_3+3 0.711179 0.762955 0.436949 0.989788
P6    P     P_3+3 0.042823 0.425611 0.732746 0.939076
P7    P     P_3+3 0.107886 0.721592 0.602710 1.010168
P8    P     P_3+3 0.146475 0.594406 0.271676 0.962888
N1    N     N_2   0.100249 0.248412 0.156071 -0.393930
H46   H     H_    0.006724 0.244142 0.119948 0.226653
C45   C     C_3   0.219560 0.319671 0.156960 -0.162537
H47   H     H_    0.336439 0.308892 0.176654 0.122726
H48   H     H_    0.245980 0.321647 0.092738 0.070666
H49   H     H_    0.171221 0.383436 0.200556 0.107557
Cl1   Cl    Cl    0.893842 0.084121 0.130802 -0.697885
N2    N     N_2   0.862294 0.807413 0.871838 -0.420723
H50   H     H_    0.745832 0.783824 0.855870 0.210133
C46   C     C_3   0.908252 0.893544 0.867626 -0.100358
H51   H     H_    0.910851 0.890745 0.802075 0.158482
H52   H     H_    0.029970 0.917749 0.891051 0.138853
H53   H     H_    0.816469 0.941128 0.907732 0.129842
N3    N     N_2   0.365792 0.756960 0.231560 -0.460036
H54   H     H_    0.463378 0.800044 0.253389 0.172591
C47   C     C_3   0.329439 0.750625 0.149281 -0.176378
H55   H     H_    0.303676 0.816368 0.150103 0.173446
H56   H     H_    0.225165 0.702632 0.127159 0.136085
H57   H     H_    0.438518 0.727818 0.103689 0.078677
Cl2   Cl    Cl    0.053091 0.880766 0.268952 -0.724715
N4    N     N_2   0.744648 0.382919 0.111956 -0.411365
H58   H     H_    0.700433 0.319333 0.080811 0.196736
C48   C     C_3   0.892684 0.410114 0.070489 -0.166575
H59   H     H_    0.902308 0.371229 0.001870 0.071014
H60   H     H_    0.000350 0.396228 0.094962 0.127546
H61   H     H_    0.897299 0.481714 0.081000 0.116207
Cl3   Cl    Cl    0.034422 0.926476 0.641983 -0.724213
N5    N     N_2   0.283962 0.244922 0.769758 -0.420969
H62   H     H_    0.171467 0.234195 0.799418 0.200350
C49   C     C_3   0.373929 0.324359 0.818044 -0.135437
H63   H     H_    0.441136 0.309598 0.862773 0.081660
H64   H     H_    0.287674 0.376143 0.855732 0.122147
H65   H     H_    0.463035 0.350020 0.777350 0.122885
N6    N     N_2   0.611329 0.935420 0.384299 -0.440663
H66   H     H_    0.730249 0.919681 0.361120 0.273092
C50   C     C_3   0.548723 0.989676 0.345616 -0.236000
H67   H     H_    0.514022 0.947854 0.282267 0.134944
H68   H     H_    0.644783 0.039053 0.337326 0.117825
H69   H     H_    0.439351 0.024250 0.383895 0.135812

loop_
_geom_bond_atom_site_label_1
_geom_bond_atom_site_label_2
_ccdc_geom_bond_type
C45   H47   S    
C11   H35   S    
C44   H13   S    
C47   H56   S    
O5    P4    S    
C34   C40   S    
C23   H21   S    
O16   P8    D    
C43   O2    S    
Ba1   O8    S    
O7    P4    S    
C43   C44   S    
C7    O17   S    
N3    C47   S    
C17   P8    S    
N6    H66   S    
O2    P2    S    
C24   H37   S    
Ba2   O4    S    
C35   C36   A    
C37   H38   S    
Ba1   Ba2   S    
O19   P6    D    
C3    C4    S    
C47   H57   S    
C41   H6    S    
C26   C38   A    
C33   H41   S    
C13   C14   S    
C27   C31   S    
C26   C39   A    
C27   Cl3   S    
C3    H17   S    
C8    H28   S    
C32   C33   D    
C4    H18   S    
C25   H39   S    
C17   C24   A    
Ba1   O18   S    
C5    H22   S    
C7    N3    S    
C42   H7    S    
C4    H19   S    
C10   P6    S    
C28   P7    S    
Ba2   O6    S    
C16   H33   S    
C5    O11   S    
C12   N5    S    
C3    H16   S    
C46   H53   S    
C21   C22   D    
C50   H68   S    
O20   P1    S    
O9    P5    S    
Ba1   P1    S    
C21   H34   S    
C49   H64   S    
C7    C8    S    
Ba1   O12   S    
C13   C21   S    
C38   P2    S    
C2    O21   S    
Ba2   O9    S    
N6    C50   S    
C19   C20   A    
C44   H12   S    
C25   C28   S    
C50   H67   S    
O15   P7    S    
Ba1   O22   S    
C48   H60   S    
C3    O15   S    
C1    H15   S    
C9    H36   S    
C47   H55   S    
C6    H26   S    
C25   C29   D    
O18   P6    S    
C5    C6    S    
C33   C36   S    
C43   H10   S    
C36   C39   A    
N4    C48   S    
C37   C38   A    
C16   C17   A    
Ba1   P2    S    
C45   H49   S    
O4    P4    D    
C23   H42   S    
C12   H30   S    
C41   C42   S    
C5    H23   S    
C27   C28   D    
C48   H61   S    
C8    H29   S    
C29   C30   S    
Ba2   O13   S    
N5    H62   S    
O24   P3    D    
C2    H14   S    
C50   H69   S    
C40   H2    S    
C10   C11   S    
C49   H65   S    
O1    P1    D    
Ba1   O13   S    
O23   P3    S    
C40   H4    S    
O8    P7    S    
O22   P2    D    
C1    H11   S    
C34   H45   S    
Ba2   O8    S    
Ba1   O1    S    
C11   C13   D    
C26   H40   S    
C46   H51   S    
C39   P3    S    
C20   C22   S    
C1    H20   S    
Ba1   O23   S    
O17   P8    S    
N2    H50   S    
O11   P5    S    
N1    C45   S    
C48   H59   S    
C34   H44   S    
C9    C15   D    
C6    H25   S    
C45   H48   S    
C16   C20   A    
O10   P5    D    
C23   H43   S    
C7    H27   S    
C19   N4    S    
C4    N2    S    
N2    C46   S    
C44   Cl1   S    
C9    C10   S    
N3    H54   S    
O13   P2    S    
Ba2   O14   S    
C6    H24   S    
N4    H58   S    
C30   C31   S    
Ba2   O5    S    
O12   P1    S    
O21   P6    S    
C35   C37   A    
O3    P3    S    
C42   H9    S    
C41   H5    S    
C43   N1    S    
C14   C15   D    
C18   C24   A    
Ba2   O12   S    
Ba1   O5    S    
Ba2   P4    S    
O14   P7    D    
C14   H32   S    
C8    Cl2   S    
N5    C49   S    
C12   C23   S    
C29   P5    S    
C40   H3    S    
C41   O20   S    
C32   N6    S    
C42   H8    S    
C22   H31   S    
C18   C19   A    
O6    P8    S    
C46   H52   S    
C34   O7    S    
C49   H63   S    
C12   O3    S    
C18   P4    S    
C1    C2    S    
C15   P1    S    
C30   C32   S    
N1    H46   S    
C2    H1    S    
