data_mof_unit_34714.cif
_audit_creation_date              2012-12-11T16:06:32-0500
_audit_creation_method            fapswitch 2.2
_symmetry_space_group_name_H-M    P1
_symmetry_Int_Tables_number       1
_space_group_crystal_system       monoclinic
_cell_length_a                    7.285209
_cell_length_b                    14.409039
_cell_length_c                    15.887752
_cell_angle_alpha                 90.0
_cell_angle_beta                  90.000011
_cell_angle_gamma                 90.0
_cell_volume                      1667.78277601

loop_
_atom_site_label
_atom_site_type_symbol
_atom_type_description
_atom_site_fract_x
_atom_site_fract_y
_atom_site_fract_z
_atom_type_partial_charge
O1    O     O_R   0.388780 0.834790 0.412340 -0.528593
O2    O     O_R   0.111220 0.165210 0.912340 -0.528594
O3    O     O_R   0.888780 0.665210 0.587660 -0.528593
O4    O     O_R   0.611220 0.334790 0.087660 -0.528594
O5    O     O_R   0.059040 0.845930 0.587040 -0.538547
O6    O     O_R   0.440960 0.154070 0.087040 -0.538548
O7    O     O_R   0.559040 0.654070 0.412960 -0.538552
O8    O     O_R   0.940960 0.345930 0.912960 -0.538548
C1    C     C_R   0.228148 0.868062 0.614696 0.672025
C2    C     C_R   0.271852 0.131938 0.114696 0.672023
C3    C     C_R   0.728148 0.631938 0.385304 0.672021
C4    C     C_R   0.771852 0.368062 0.885304 0.672023
O9    O     O_R   0.059070 0.845930 0.412970 -0.496225
O10   O     O_R   0.440930 0.154070 0.912970 -0.496227
O11   O     O_R   0.559070 0.654070 0.587030 -0.496230
O12   O     O_R   0.940930 0.345930 0.087030 -0.496227
O13   O     O_R   0.888760 0.665210 0.412340 -0.547616
O14   O     O_R   0.611240 0.334790 0.912340 -0.547616
O15   O     O_R   0.388760 0.834790 0.587660 -0.547615
O16   O     O_R   0.111240 0.165210 0.087660 -0.547616
C5    C     C_R   0.227088 0.869778 0.386261 0.690098
C6    C     C_R   0.272912 0.130222 0.886261 0.690097
C7    C     C_R   0.727088 0.630222 0.613739 0.690095
C8    C     C_R   0.772912 0.369778 0.113739 0.690096
O17   O     O_3   0.222280 0.690700 0.500000 -0.352880
O18   O     O_3   0.277720 0.309300 0.000000 -0.352875
O19   O     O_3   0.722280 0.809300 0.500000 -0.352873
O20   O     O_3   0.777720 0.190700 0.000000 -0.352876
V1    V     V_3+5 0.947430 0.761000 0.500000 1.545432
V2    V     V_3+5 0.552570 0.239000 0.000000 1.545429
V3    V     V_3+5 0.447430 0.739000 0.500000 1.545419
V4    V     V_3+5 0.052570 0.261000 0.000000 1.545430
C9    C     C_3   0.846035 0.598589 0.759832 -0.398721
C10   C     C_3   0.653965 0.401411 0.259832 -0.398720
C11   C     C_3   0.346035 0.901411 0.240168 -0.398722
C12   C     C_3   0.153965 0.098589 0.740168 -0.398722
H1    H     H_    0.985823 0.618817 0.738852 0.216482
H2    H     H_    0.514177 0.381183 0.238852 0.216482
H3    H     H_    0.485823 0.881183 0.261148 0.216482
H4    H     H_    0.014177 0.118816 0.761148 0.216482
H5    H     H_    0.778714 0.662990 0.783156 0.147210
H6    H     H_    0.721286 0.337010 0.283156 0.147211
H7    H     H_    0.278714 0.837010 0.216844 0.147210
H8    H     H_    0.221286 0.162990 0.716844 0.147211
C13   C     C_3   0.863652 0.528246 0.833381 -0.312285
C14   C     C_3   0.636347 0.471754 0.333381 -0.312285
C15   C     C_3   0.363652 0.971754 0.166619 -0.312285
C16   C     C_3   0.136348 0.028246 0.666619 -0.312284
H9    H     H_    0.808642 0.559721 0.892157 0.160742
H10   H     H_    0.691357 0.440279 0.392157 0.160744
H11   H     H_    0.308643 0.940279 0.107843 0.160742
H12   H     H_    0.191358 0.059721 0.607843 0.160742
H13   H     H_    0.011342 0.512657 0.844412 0.173658
H14   H     H_    0.488658 0.487343 0.344412 0.173656
H15   H     H_    0.511342 0.987343 0.155588 0.173657
H16   H     H_    0.988658 0.012657 0.655587 0.173658
C17   C     C_3   0.827203 0.465569 0.657111 -0.263870
C18   C     C_3   0.672797 0.534431 0.157111 -0.263870
C19   C     C_3   0.327203 0.034431 0.342889 -0.263870
C20   C     C_3   0.172797 0.965569 0.842889 -0.263871
C21   C     C_3   0.538334 0.532495 0.719834 0.382115
C22   C     C_3   0.961666 0.467505 0.219834 0.382117
C23   C     C_3   0.038334 0.967505 0.280166 0.382117
C24   C     C_3   0.461666 0.032495 0.780166 0.382117
C25   C     C_3   0.733507 0.557839 0.684767 -0.026431
C26   C     C_3   0.766493 0.442160 0.184767 -0.026432
C27   C     C_3   0.233507 0.942160 0.315233 -0.026431
C28   C     C_3   0.266493 0.057839 0.815233 -0.026430
H17   H     H_    0.478044 0.597704 0.745426 0.052286
H18   H     H_    0.021955 0.402295 0.245426 0.052285
H19   H     H_    0.978044 0.902296 0.254574 0.052285
H20   H     H_    0.521956 0.097704 0.754574 0.052285
C29   C     C_3   0.758513 0.437646 0.813156 0.017478
C30   C     C_3   0.741486 0.562354 0.313156 0.017478
C31   C     C_3   0.258514 0.062354 0.186844 0.017478
C32   C     C_3   0.241486 0.937646 0.686844 0.017477
C33   C     C_3   0.839414 0.395621 0.731434 -0.317341
C34   C     C_3   0.660587 0.604379 0.231434 -0.317341
C35   C     C_3   0.339414 0.104379 0.268566 -0.317342
C36   C     C_3   0.160586 0.895621 0.768566 -0.317341
C37   C     C_3   0.555049 0.463993 0.795060 -0.360330
C38   C     C_3   0.944951 0.536007 0.295060 -0.360331
C39   C     C_3   0.055049 0.036007 0.204940 -0.360331
C40   C     C_3   0.444951 0.963993 0.704940 -0.360331
H21   H     H_    0.493621 0.496510 0.852085 0.114746
H22   H     H_    0.006379 0.503490 0.352085 0.114746
H23   H     H_    0.993621 0.003490 0.147915 0.114746
H24   H     H_    0.506379 0.996510 0.647915 0.114747
H25   H     H_    0.476812 0.399333 0.783660 0.204061
H26   H     H_    0.023188 0.600666 0.283660 0.204061
H27   H     H_    0.976812 0.100666 0.216340 0.204061
H28   H     H_    0.523188 0.899334 0.716340 0.204061
H29   H     H_    0.753496 0.432230 0.604432 0.191807
H30   H     H_    0.746504 0.567770 0.104432 0.191805
H31   H     H_    0.253496 0.067770 0.395568 0.191805
H32   H     H_    0.246504 0.932230 0.895568 0.191805
H33   H     H_    0.763446 0.331140 0.714823 0.143313
H34   H     H_    0.736555 0.668859 0.214823 0.143313
H35   H     H_    0.263446 0.168859 0.285177 0.143314
H36   H     H_    0.236553 0.831140 0.785177 0.143313
H37   H     H_    0.964970 0.479105 0.632121 0.238054
H38   H     H_    0.535030 0.520895 0.132121 0.238054
H39   H     H_    0.464970 0.020895 0.367879 0.238054
H40   H     H_    0.035030 0.979105 0.867879 0.238054
H41   H     H_    0.984556 0.375456 0.742178 0.200769
H42   H     H_    0.515445 0.624544 0.242177 0.200768
H43   H     H_    0.484555 0.124543 0.257822 0.200769
H44   H     H_    0.015444 0.875457 0.757822 0.200769
S1    S     S_3+6 0.375273 0.491529 0.641195 -0.070706
O21   O     O_2   0.283655 0.402541 0.666832 -0.386255
O22   O     O_2   0.233225 0.566350 0.633508 -0.369324
O23   O     O_3   0.469904 0.475543 0.545651 -0.529965
H45   H     H_    0.364821 0.471623 0.506242 0.348827
S2    S     S_3+6 0.124727 0.508471 0.141195 -0.070708
O24   O     O_2   0.216345 0.597459 0.166833 -0.386261
O25   O     O_2   0.266775 0.433650 0.133508 -0.369319
O26   O     O_3   0.030096 0.524457 0.045651 -0.529965
H46   H     H_    0.135181 0.528394 0.006244 0.348826
S3    S     S_3+6 0.875273 0.008471 0.358805 -0.070708
O27   O     O_2   0.783655 0.097459 0.333167 -0.386263
O28   O     O_2   0.733224 0.933650 0.366492 -0.369318
O29   O     O_3   0.969904 0.024457 0.454349 -0.529965
H47   H     H_    0.864819 0.028399 0.493755 0.348826
S4    S     S_3+6 0.624727 0.991529 0.858805 -0.070708
O30   O     O_2   0.716345 0.902541 0.833168 -0.386261
O31   O     O_2   0.766776 0.066350 0.866493 -0.369320
O32   O     O_3   0.530096 0.975543 0.954349 -0.529965
H48   H     H_    0.635180 0.971608 0.993756 0.348826

loop_
_geom_bond_atom_site_label_1
_geom_bond_atom_site_label_2
_ccdc_geom_bond_type
O17   V3    S    
C39   H23   S    
O1    C5    A    
O19   V1    S    
O13   V1    S    
C16   C32   S    
O3    C7    A    
C10   H6    S    
O4    V2    S    
O15   V3    S    
C10   C26   S    
S2    O24   D    
C9    C25   S    
C20   H40   S    
O7    C3    A    
O5    C1    A    
C24   C28   S    
C13   C29   S    
O10   V2    S    
C22   S2    S    
S1    O22   D    
O4    C8    A    
C21   H17   S    
O1    V3    S    
C9    C13   S    
C22   H18   S    
O2    V4    S    
O3    V1    S    
C24   C40   S    
C19   C27   S    
C1    O15   A    
C20   C36   S    
C2    O16   A    
C34   H34   S    
C33   H33   S    
C18   H38   S    
C1    C32   S    
C13   H9    S    
C11   H7    S    
C8    C26   S    
C37   H25   S    
O11   C7    A    
C22   C38   S    
C15   H15   S    
C21   S1    S    
O12   C8    A    
C17   H29   S    
C4    C29   S    
C36   H36   S    
C32   C40   S    
C19   H31   S    
C30   C38   S    
C29   C37   S    
O23   H45   S    
C18   C26   S    
O5    V1    S    
S3    O28   D    
C23   C27   S    
O7    V3    S    
C22   C26   S    
O9    C5    A    
O8    V4    S    
C31   C39   S    
C17   C33   S    
C12   H4    S    
S1    O23   S    
C19   C35   S    
O18   V4    S    
C15   H11   S    
C24   S4    S    
C13   H13   S    
C9    H1    S    
C23   C39   S    
C11   H3    S    
O2    C6    A    
C23   S3    S    
C2    C31   S    
C11   C27   S    
O8    C4    A    
C14   H14   S    
C35   H43   S    
C6    C28   S    
S4    O32   S    
C10   C14   S    
C20   H32   S    
O6    V2    S    
C23   H19   S    
O14   V2    S    
C12   H8    S    
C32   C36   S    
O9    V1    S    
O32   H48   S    
C14   C30   S    
C17   H37   S    
S4    O31   D    
O16   V4    S    
S3    O29   S    
C35   H35   S    
C16   H16   S    
C36   H44   S    
C3    O13   A    
C10   H2    S    
C40   H24   S    
C17   C25   S    
C3    C30   S    
O6    C2    A    
S2    O25   D    
S3    O27   D    
C12   C28   S    
O11   V3    S    
O12   V4    S    
C39   H27   S    
C14   H10   S    
C38   H26   S    
C34   H42   S    
C19   H39   S    
C7    C25   S    
C33   H41   S    
C18   H30   S    
C9    H5    S    
C38   H22   S    
O26   H46   S    
O10   C6    A    
O20   V2    S    
C12   C16   S    
C24   H20   S    
C37   H21   S    
S2    O26   S    
C18   C34   S    
C15   C31   S    
C21   C25   S    
C16   H12   S    
C20   C28   S    
C30   C34   S    
C4    O14   A    
O29   H47   S    
C29   C33   S    
C21   C37   S    
C40   H28   S    
C11   C15   S    
S1    O21   D    
C31   C35   S    
C5    C27   S    
S4    O30   D    
