data_mof_unit_21273.cif
_audit_creation_date              2013-03-05T16:33:10-0500
_audit_creation_method            fapswitch 2.2
_symmetry_space_group_name_H-M    P1
_symmetry_Int_Tables_number       1
_space_group_crystal_system       triclinic
_cell_length_a                    27.818446
_cell_length_b                    10.818666
_cell_length_c                    9.531757
_cell_angle_alpha                 89.914449
_cell_angle_beta                  90.033305
_cell_angle_gamma                 90.141625
_cell_volume                      2868.65061954

loop_
_atom_site_label
_atom_site_type_symbol
_atom_site_description
_atom_site_fract_x
_atom_site_fract_y
_atom_site_fract_z
_atom_type_partial_charge
O1    O     O_R   0.500000 0.319640 0.618810 -0.583432
O2    O     O_R   0.500010 0.319680 0.381230 -0.590899
C1    C     C_R   0.500858 0.262262 0.500034 0.805845
O3    O     O_R   0.430260 0.500000 0.618780 -0.582499
O4    O     O_R   0.430270 0.500040 0.381190 -0.579414
C2    C     C_R   0.407443 0.499856 0.499961 0.827304
Cu1   Cu    Cu3+1 0.500000 0.499980 0.640670 0.949304
Cu2   Cu    Cu3+1 0.500000 0.500020 0.359330 0.948561
O5    O     O_R   0.499990 0.680320 0.618770 -0.579420
O6    O     O_R   0.500000 0.680360 0.381190 -0.583949
O7    O     O_R   0.569730 0.499960 0.618810 -0.583120
O8    O     O_R   0.569740 0.500000 0.381220 -0.584241
C3    C     C_R   0.500888 0.737715 0.499862 0.807290
C4    C     C_R   0.592579 0.499406 0.499989 0.800440
C5    C     C_R   0.178053 0.390394 0.475313 0.585689
O9    O     O_2   0.202946 0.285115 0.454253 -0.513331
N1    N     N_R   0.202092 0.498762 0.498546 -0.453650
C6    C     C_R   0.178074 0.607156 0.519938 0.601710
C7    C     C_R   0.278798 0.501767 0.373157 -0.153182
C8    C     C_R   0.328898 0.502111 0.372877 -0.196655
C9    C     C_R   0.329010 0.496157 0.627338 -0.250753
C10   C     C_R   0.278824 0.495692 0.627749 0.433807
C11   C     C_R   0.253600 0.498778 0.500136 0.276793
C12   C     C_R   0.101949 0.498515 0.496503 -0.041114
C13   C     C_R   0.127588 0.388217 0.473955 -0.025630
C14   C     C_R   0.102481 0.278435 0.450243 -0.130932
C15   C     C_R   0.127615 0.609030 0.519537 -0.028276
C16   C     C_R   0.354480 0.499464 0.500016 -0.109568
H1    H     H_    0.347959 0.493623 0.726606 0.188188
H2    H     H_    0.121358 0.192609 0.431095 0.190060
C17   C     C_R   0.645579 0.497941 0.499554 -0.039471
C18   C     C_R   0.974423 0.384536 0.479575 0.044148
C19   C     C_R   0.974459 0.611244 0.512197 0.044090
C20   C     C_R   0.949198 0.497737 0.495997 0.068301
C21   C     C_R   0.947354 0.273861 0.468761 -0.201215
C22   C     C_R   0.897449 0.274766 0.469991 -0.143631
C23   C     C_R   0.872372 0.385680 0.482855 -0.021613
C24   C     C_R   0.898047 0.497423 0.496313 -0.043469
C25   C     C_R   0.872412 0.608848 0.510167 -0.021498
C26   C     C_R   0.821948 0.606456 0.510578 0.535822
N2    N     N_R   0.797895 0.496789 0.497372 -0.470884
C27   C     C_R   0.821902 0.387434 0.483517 0.535953
C28   C     C_R   0.721543 0.504240 0.625286 -0.102257
C29   C     C_R   0.671420 0.504479 0.626162 -0.210251
C30   C     C_R   0.670922 0.489597 0.372261 -0.211744
C31   C     C_R   0.721044 0.488796 0.371724 -0.102713
C32   C     C_R   0.746429 0.496530 0.498132 0.362549
O10   O     O_2   0.796976 0.280814 0.470983 -0.529382
C33   C     C_R   0.025538 0.385357 0.475409 0.043526
C34   C     C_R   0.050798 0.498294 0.496064 0.072701
C35   C     C_R   0.025573 0.610995 0.516393 0.043195
C36   C     C_R   0.052576 0.276788 0.450540 -0.198326
H3    H     H_    0.653044 0.509806 0.725842 0.148311
H4    H     H_    0.741104 0.509767 0.723354 0.136694
H5    H     H_    0.878549 0.187412 0.461106 0.187762
H6    H     H_    0.963453 0.183815 0.461083 0.136538
H7    H     H_    0.036451 0.188360 0.428921 0.137744
O11   O     O_2   0.202995 0.712659 0.541414 -0.507645
C37   C     C_R   0.102541 0.718669 0.542365 -0.130924
H8    H     H_    0.347535 0.504583 0.273189 0.179530
H9    H     H_    0.259439 0.504036 0.274588 0.177907
H10   H     H_    0.121439 0.804679 0.561723 0.190856
C38   C     C_R   0.947422 0.721609 0.523073 -0.201489
C39   C     C_R   0.897518 0.720090 0.522478 -0.143546
O12   O     O_2   0.797066 0.712778 0.523593 -0.529737
C40   C     C_R   0.052641 0.719882 0.541231 -0.198466
H11   H     H_    0.963537 0.811860 0.530473 0.136490
H12   H     H_    0.652124 0.483207 0.273116 0.150423
H13   H     H_    0.878643 0.807220 0.531547 0.187800
H14   H     H_    0.740211 0.482570 0.273140 0.136860
H15   H     H_    0.036547 0.808223 0.562354 0.138144
C41   C     C_R   0.507053 0.063347 0.625682 0.136195
C42   C     C_R   0.505689 0.129201 0.499717 -0.094329
C43   C     C_R   0.511237 0.064662 0.372794 -0.205787
H16   H     H_    0.513167 0.112946 0.273311 0.162675
C44   C     C_R   0.511220 0.935846 0.372677 -0.206253
H17   H     H_    0.513061 0.887981 0.273142 0.158739
C45   C     C_R   0.505702 0.870787 0.499480 -0.094571
C46   C     C_R   0.507035 0.936143 0.625537 0.117002
C47   C     C_3   0.474509 0.929034 0.749959 -0.449280
C48   C     C_3   0.474592 0.069378 0.750279 -0.473651
H18   H     H_    0.438836 0.888181 0.724456 0.210444
H19   H     H_    0.492679 0.888453 0.843075 0.191938
H20   H     H_    0.438952 0.110262 0.725244 0.204350
H21   H     H_    0.492945 0.109344 0.843446 0.193693
C49   C     C_R   0.517043 0.599853 0.073536 0.257786
N3    N     N_R   0.500300 0.500930 0.147930 -0.186015
C50   C     C_R   0.478267 0.407959 0.074564 -0.075736
H22   H     H_    0.461388 0.332356 0.130336 0.143652
C51   C     C_R   0.478207 0.408062 0.925608 -0.073916
H23   H     H_    0.461146 0.332828 0.869980 0.141318
N4    N     N_R   0.500310 0.500890 0.852020 -0.184958
C52   C     C_R   0.517065 0.599798 0.926146 0.257248
C53   C     C_3   0.566566 0.652478 0.920252 -0.499018
C54   C     C_3   0.566530 0.652690 0.079551 -0.498923
H24   H     H_    0.593033 0.587079 0.875307 0.212353
H25   H     H_    0.567163 0.746777 0.873852 0.196424
H26   H     H_    0.593079 0.587681 0.125416 0.214061
H27   H     H_    0.567025 0.747188 0.125055 0.192473
Cl1   Cl    Cl    0.248178 0.489944 0.788995 -0.579923

loop_
_geom_bond_atom_site_label_1
_geom_bond_atom_site_label_2
_geom_bond_distance
_ccdc_geom_bond_type
N3    C50   1.369283 A    
C52   C53   1.490093 S    
N2    C27   1.366595 A    
C7    C8    1.393715 A    
C12   C15   1.408501 A    
C4    C17   1.474527 S    
C54   H26   1.110173 S    
Cu1   Cu2   2.681663 S    
C30   C31   1.394369 A    
Cu1   O7    1.951060 S    
C25   C39   1.395039 A    
N1    C11   1.432930 S    
C43   C44   1.393623 A    
C22   C23   1.395074 A    
C44   C45   1.406046 A    
C41   C46   1.376183 A    
C47   H19   1.111491 S    
C37   C40   1.388273 A    
C24   C25   1.408545 A    
O7    C4    1.299090 A    
C54   H27   1.111197 S    
C5    C13   1.404036 A    
C5    O9    1.349767 S    
C5    N1    1.366571 A    
C42   C43   1.406486 A    
C23   C27   1.404185 A    
O5    C3    1.291756 A    
C3    C45   1.445549 S    
C29   H3    1.080856 S    
C6    O11   1.349795 S    
C2    C16   1.473358 S    
C21   C22   1.388400 A    
C8    H8    1.082968 S    
C41   C48   1.493964 S    
Cu2   O8    1.951123 S    
O1    Cu1   1.962442 S    
C9    C10   1.396098 A    
O3    Cu1   1.951129 S    
C19   C20   1.421897 A    
C12   C34   1.422952 A    
C38   H11   1.075779 S    
C10   Cl1   1.758941 S    
C17   C29   1.406091 A    
C18   C21   1.416726 A    
C44   H17   1.082836 S    
O3    C2    1.297967 A    
C43   H16   1.083219 S    
C25   C26   1.404015 A    
C45   C46   1.395487 A    
C41   C42   1.395764 A    
C8    C16   1.405288 A    
C53   H25   1.111415 S    
C34   C35   1.421868 A    
C13   C14   1.394997 A    
C9    H1    1.083205 S    
C38   C39   1.388297 A    
O1    C1    1.292229 A    
C35   C40   1.416684 A    
C18   C20   1.421872 A    
C7    C11   1.399305 A    
C28   C29   1.394399 A    
C23   C24   1.408600 A    
C49   C52   1.404883 A    
C14   C36   1.388365 A    
C28   H4    1.082982 S    
C51   N4    1.368929 A    
C40   H15   1.075723 S    
C19   C38   1.416684 A    
C33   C36   1.416671 A    
C30   H12   1.082021 S    
N1    C6    1.366717 A    
N2    C32   1.431739 S    
C27   O10   1.349798 S    
C39   H13   1.083730 S    
C12   C13   1.408537 A    
C53   H24   1.109079 S    
C47   H18   1.112240 S    
C26   N2    1.366605 A    
C9    C16   1.406014 A    
C50   C51   1.419805 A    
C14   H2    1.083632 S    
C26   O12   1.349845 S    
C48   H20   1.112271 S    
C49   N3    1.364101 A    
Cu1   O5    1.961863 S    
C31   C32   1.398739 A    
C37   H10   1.083643 S    
C21   H6    1.075803 S    
C20   C24   1.422936 A    
O2    Cu2   1.961865 S    
C6    C15   1.403902 A    
O8    C4    1.297870 A    
C47   C48   1.518336 S    
O6    C3    1.291179 A    
O4    Cu2   1.951063 S    
C19   C35   1.422458 A    
Cu2   N3    2.015046 S    
O2    C1    1.291014 A    
C22   H5    1.083723 S    
C15   C37   1.394938 A    
C51   H23   1.080740 S    
O4    C2    1.298348 A    
C49   C54   1.490428 S    
C7    H9    1.082941 S    
Cu1   N4    2.014590 S    
N4    C52   1.364140 A    
C53   C54   1.518407 S    
C1    C42   1.446144 S    
C18   C33   1.422520 A    
C31   H14   1.082965 S    
C36   H7    1.075758 S    
C46   C47   1.493897 S    
C50   H22   1.081277 S    
Cu2   O6    1.962441 S    
C33   C34   1.421865 A    
C17   C30   1.406752 A    
C10   C11   1.404296 A    
C28   C32   1.398819 A    
C48   H21   1.111648 S    
