data_mof_unit_44846.cif
_audit_creation_date              2013-03-05T15:40:19-0500
_audit_creation_method            fapswitch 2.2
_symmetry_space_group_name_H-M    P1
_symmetry_Int_Tables_number       1
_space_group_crystal_system       triclinic
_cell_length_a                    10.913509
_cell_length_b                    10.830551
_cell_length_c                    17.871464
_cell_angle_alpha                 98.022777
_cell_angle_beta                  72.96008
_cell_angle_gamma                 98.744308
_cell_volume                      1986.07063583

loop_
_atom_site_label
_atom_site_type_symbol
_atom_site_description
_atom_site_fract_x
_atom_site_fract_y
_atom_site_fract_z
_atom_type_partial_charge
Zn1   Zn    Zn3+2 0.577310 0.422690 0.565550 0.973420
Zn2   Zn    Zn3+2 0.403760 0.371330 0.445150 1.005240
Zn3   Zn    Zn3+2 0.634990 0.589920 0.423760 1.032653
Zn4   Zn    Zn3+2 0.383940 0.616050 0.565540 1.058602
O1    O     O_3   0.500000 0.500000 0.500000 -0.514213
O2    O     O_R   0.209690 0.568800 0.556400 -0.620700
O3    O     O_R   0.763190 0.458310 0.535350 -0.651663
O4    O     O_R   0.414000 0.207090 0.472140 -0.633745
O5    O     O_R   0.613120 0.765800 0.436110 -0.642865
O6    O     O_R   0.470800 0.371790 0.332500 -0.625858
O7    O     O_R   0.380610 0.619380 0.674980 -0.597646
O8    O     O_R   0.632640 0.524780 0.317540 -0.630381
O9    O     O_R   0.515950 0.484050 0.674980 -0.648655
O10   O     O_R   0.535460 0.243030 0.556410 -0.636236
O11   O     O_R   0.437420 0.784080 0.535340 -0.603584
O12   O     O_R   0.223560 0.397520 0.472140 -0.645336
O13   O     O_R   0.803560 0.575360 0.436110 -0.587364
C1    C     C_R   0.158504 0.480033 0.517439 0.927277
C2    C     C_R   0.843185 0.519665 0.482121 0.786795
C3    C     C_R   0.465878 0.168866 0.518981 0.857055
C4    C     C_R   0.530806 0.833039 0.482148 0.871899
C5    C     C_R   0.565092 0.435004 0.288246 0.833855
C6    C     C_R   0.440141 0.566769 0.711739 0.837952
C7    C     C_R   0.431807 0.608851 0.795053 -0.146936
C8    C     C_R   0.591385 0.405434 0.203692 -0.051499
C9    C     C_R   0.404905 0.766290 0.907493 -0.239415
C10   C     C_R   0.401204 0.729837 0.830023 0.319550
C11   C     C_R   0.465314 0.528021 0.838558 -0.297989
C12   C     C_R   0.474799 0.565499 0.915593 0.093558
C13   C     C_R   0.444356 0.687175 0.949389 0.089212
C14   C     C_R   0.516494 0.487241 0.959190 0.090698
C15   C     C_R   0.528305 0.533260 0.035834 0.085367
C16   C     C_R   0.500874 0.657132 0.065720 -0.177487
C17   C     C_R   0.457904 0.731345 0.023751 -0.143733
C18   C     C_R   0.546642 0.364605 0.928758 -0.242415
C19   C     C_R   0.589514 0.290254 0.970565 -0.159807
C20   C     C_R   0.600713 0.332382 0.045995 0.033110
C21   C     C_R   0.566351 0.453700 0.080340 0.063503
C22   C     C_R   0.637286 0.252102 0.089961 0.321912
C23   C     C_R   0.628463 0.288544 0.169219 -0.258008
C24   C     C_R   0.564039 0.488271 0.159747 -0.228962
H1    H     H_    0.437507 0.825471 0.049266 0.181596
H2    H     H_    0.531762 0.574883 0.191396 0.143192
H3    H     H_    0.650267 0.225443 0.204358 0.169147
H4    H     H_    0.608140 0.196477 0.944007 0.196807
H5    H     H_    0.383485 0.859896 0.933652 0.179998
H6    H     H_    0.486871 0.437045 0.809325 0.176907
H7    H     H_    0.513590 0.701385 0.121139 0.162881
H8    H     H_    0.536916 0.321065 0.872672 0.149301
C25   C     C_2   0.981345 0.526577 0.474793 0.085233
C26   C     C_2   0.023189 0.473516 0.526133 -0.284662
C27   C     C_2   0.545256 0.967212 0.474739 -0.186389
C28   C     C_2   0.457128 0.036388 0.523724 -0.294689
H9    H     H_    0.376314 0.995399 0.568434 0.180858
N1    N     N_R   0.680539 0.132609 0.055834 0.192332
O14   O     O_R   0.643548 0.035778 0.096148 -0.426948
O15   O     O_R   0.773114 0.125302 0.990626 -0.382824
N2    N     N_R   0.071692 0.588557 0.410685 0.207515
O16   O     O_R   0.052198 0.572474 0.341366 -0.362136
O17   O     O_R   0.166441 0.669897 0.422874 -0.402122
C29   C     C_R   0.939714 0.409777 0.594707 0.103608
C30   C     C_R   0.919901 0.278156 0.589929 -0.156583
C31   C     C_R   0.841357 0.217576 0.654397 -0.106916
C32   C     C_R   0.783373 0.287963 0.724120 -0.081089
C33   C     C_R   0.803754 0.419153 0.729529 -0.122611
C34   C     C_R   0.882141 0.480157 0.665114 -0.066479
H10   H     H_    0.964665 0.222793 0.536222 0.133517
H11   H     H_    0.825616 0.116053 0.650346 0.148679
H12   H     H_    0.723206 0.240649 0.773968 0.139247
H13   H     H_    0.759007 0.473522 0.783617 0.144488
H14   H     H_    0.897439 0.581778 0.669757 0.133426
C35   C     C_R   0.655569 0.022923 0.412976 0.120511
C36   C     C_R   0.662444 0.990257 0.333130 -0.092460
C37   C     C_R   0.764394 0.044617 0.275060 -0.141009
C38   C     C_R   0.859937 0.131775 0.296289 -0.099223
C39   C     C_R   0.854473 0.163781 0.375626 -0.142446
C40   C     C_R   0.753172 0.108995 0.433821 -0.140269
H15   H     H_    0.588315 0.923702 0.315988 0.143427
H16   H     H_    0.769087 0.019528 0.213596 0.190619
H17   H     H_    0.938386 0.174204 0.251254 0.161489
H18   H     H_    0.928761 0.230951 0.392039 0.145069
H19   H     H_    0.750536 0.133682 0.495032 0.156621
N3    N     N_R   0.375823 0.820283 0.786636 0.217000
O18   O     O_R   0.462990 0.855562 0.723838 -0.400315
O19   O     O_R   0.280192 0.886474 0.818612 -0.371457

loop_
_geom_bond_atom_site_label_1
_geom_bond_atom_site_label_2
_geom_bond_distance
_ccdc_geom_bond_type
N1    O14   1.301383 A    
C11   H6    1.074208 S    
C36   C37   1.398660 A    
C18   C19   1.383110 A    
C26   C29   1.482897 S    
C7    C10   1.414662 A    
C28   H9    1.086440 S    
O6    C5    1.270090 A    
C9    C10   1.396314 A    
C12   C13   1.416041 A    
C30   H10   1.083078 S    
Zn3   O5    1.929832 S    
C11   C12   1.409114 A    
C20   C21   1.426051 A    
C8    C23   1.392105 A    
N2    O17   1.301643 A    
C33   H13   1.082365 S    
O8    C5    1.276358 A    
O9    C6    1.288886 A    
Zn3   O8    1.936789 S    
C29   C34   1.404851 A    
C22   N1    1.437489 S    
C14   C15   1.426396 A    
C5    C8    1.451586 S    
C17   H1    1.084661 S    
C18   H8    1.074025 S    
C36   H15   1.083626 S    
C15   C21   1.428688 A    
Zn2   O12   1.938082 S    
C38   H17   1.082466 S    
C35   C36   1.404078 A    
C12   C14   1.428951 A    
C24   H2    1.076816 S    
C1    C26   1.430682 S    
C16   C17   1.384769 A    
O2    C1    1.264497 A    
C37   C38   1.398163 A    
C13   C17   1.390331 A    
C25   N2    1.444570 S    
O10   C3    1.277322 A    
C39   C40   1.398181 A    
C21   C24   1.410082 A    
Zn4   O2    1.941076 S    
C8    C24   1.387882 A    
C22   C23   1.395336 A    
Zn4   O1    1.938979 S    
N2    O16   1.301268 A    
C38   C39   1.397708 A    
C34   H14   1.082998 S    
C35   C40   1.405747 A    
C27   C35   1.489306 S    
N3    O18   1.301530 A    
O11   C4    1.277549 A    
C6    C7    1.475376 S    
C30   C31   1.397807 A    
C25   C26   1.361317 D    
C19   H4    1.081587 S    
O4    C3    1.280035 A    
C32   H12   1.081515 S    
Zn4   O7    1.940886 S    
N3    O19   1.301274 A    
C9    C13   1.400136 A    
O3    C2    1.273573 A    
C37   H16   1.082135 S    
N1    O15   1.301390 A    
Zn1   O1    1.962952 S    
Zn2   O1    1.945033 S    
Zn1   O9    1.928662 S    
Zn2   O6    1.930493 S    
C27   C28   1.339882 D    
C31   H11   1.082315 S    
C19   C20   1.395804 A    
Zn1   O3    1.932315 S    
Zn2   O4    1.934127 S    
C7    C11   1.399500 A    
C3    C28   1.436146 S    
Zn3   O1    1.932100 S    
C39   H18   1.083080 S    
C15   C16   1.415334 A    
Zn4   O11   1.926245 S    
C10   N3    1.434556 S    
C20   C22   1.418694 A    
C32   C33   1.398507 A    
C2    C25   1.465929 S    
O5    C4    1.269939 A    
C40   H19   1.082237 S    
O7    C6    1.282784 A    
O13   C2    1.285772 A    
Zn3   O13   1.947804 S    
C14   C18   1.412283 A    
C29   C30   1.403322 A    
C9    H5    1.084765 S    
C31   C32   1.397732 A    
C23   H3    1.083912 S    
O12   C1    1.269730 A    
C33   C34   1.398885 A    
C16   H7    1.075978 S    
Zn1   O10   1.925170 S    
C4    C27   1.458042 S    
