data_mof_unit_58154.cif
_audit_creation_date              2012-10-26T19:41:54-0400
_audit_creation_method            fapswitch 2.2
_symmetry_space_group_name_H-M    P1
_symmetry_Int_Tables_number       1
_space_group_crystal_system       triclinic
_cell_length_a                    10.749755
_cell_length_b                    10.901124
_cell_length_c                    9.61824
_cell_angle_alpha                 88.992432
_cell_angle_beta                  91.196551
_cell_angle_gamma                 97.098078
_cell_volume                      1118.09796628

loop_
_atom_site_label
_atom_site_type_symbol
_atom_type_description
_atom_site_fract_x
_atom_site_fract_y
_atom_site_fract_z
_atom_type_partial_charge
C1    C     C_R   0.492177 0.261426 0.500642 0.524011
C2    C     C_R   0.407689 0.051516 0.605308 0.004306
C3    C     C_R   0.472964 0.125058 0.499537 -0.006954
C4    C     C_R   0.258937 0.495333 0.498650 0.546597
C5    C     C_R   0.519197 0.067068 0.386308 -0.175905
C6    C     C_R   0.513302 0.939905 0.383110 -0.179282
C7    C     C_R   0.472035 0.867577 0.498316 -0.015402
C8    C     C_R   0.662664 0.698035 0.134821 0.277366
C9    C     C_R   0.713560 0.795447 0.043779 -0.180161
C10   C     C_R   0.713605 0.782185 0.903401 -0.204180
C11   C     C_R   0.657863 0.675464 0.846459 -0.060160
C12   C     C_3   0.957801 0.549393 0.386238 -0.158747
C13   C     C_R   0.580355 0.587395 0.923130 0.097474
C14   C     C_R   0.580773 0.592608 0.073712 0.142652
C15   C     C_R   0.420804 0.419620 0.073724 -0.021650
C16   C     C_R   0.489526 0.735834 0.499167 0.542098
C17   C     C_R   0.421477 0.419437 0.926407 -0.015667
C18   C     C_R   0.739307 0.493395 0.501621 0.570615
C19   C     C_3   0.037578 0.427557 0.612854 -0.191681
C20   C     C_3   0.941097 0.370783 0.501586 -0.176450
C21   C     C_3   0.875352 0.488978 0.504301 -0.028786
C22   C     C_3   0.969609 0.544582 0.614813 0.288589
C23   C     C_3   0.026134 0.433012 0.386657 0.236302
C24   C     C_3   0.052253 0.605037 0.498373 0.250907
C25   C     C_3   0.236805 0.818661 0.938193 -0.298445
C26   C     C_3   0.330272 0.747513 0.016451 -0.436573
C27   C     C_3   0.785815 0.805876 0.317031 -0.029939
C28   C     C_3   0.807248 0.811537 0.474097 -0.332639
C29   C     C_3   0.978718 0.551650 0.855137 -0.002517
C30   C     C_3   0.950519 0.622428 0.983076 -0.387024
C31   C     C_3   0.159017 0.767489 0.373188 -0.012867
C32   C     C_3   0.158960 0.906019 0.353548 -0.386963
C33   C     C_3   0.955096 0.325443 0.191088 -0.003784
C34   C     C_3   0.121346 0.490158 0.496337 0.026409
C35   C     C_3   0.994939 0.256300 0.067364 -0.398467
C36   C     C_3   0.233690 0.184261 0.637164 -0.260726
C37   C     C_3   0.097907 0.120704 0.635358 -0.460847
C38   C     C_3   0.238948 0.096713 0.942505 -0.273034
C39   C     C_3   0.330676 0.104137 0.066568 -0.446746
C40   C     C_R   0.323781 0.098786 0.696861 0.030066
C41   C     C_R   0.291221 0.032959 0.822105 0.068610
C42   C     C_R   0.298718 0.904610 0.827106 0.034902
C43   C     C_R   0.350001 0.850562 0.714804 -0.076374
C44   C     C_R   0.413865 0.922385 0.608900 -0.008461
Cu1   Cu    Cu3+1 0.499990 0.499990 0.640660 0.914706
Cu2   Cu    Cu3+1 0.500010 0.500010 0.359340 0.976667
H1    H     H_    0.889153 0.276313 0.502639 0.099963
H2    H     H_    0.921318 0.594449 0.292579 0.121466
H3    H     H_    0.561775 0.120403 0.299723 0.132601
H4    H     H_    0.364574 0.681057 0.945553 0.166775
H5    H     H_    0.410626 0.811085 0.057801 0.155283
H6    H     H_    0.283418 0.694285 0.104285 0.145749
H7    H     H_    0.185073 0.864906 0.015476 0.134437
H8    H     H_    0.166801 0.751917 0.885202 0.169543
H9    H     H_    0.751498 0.895260 0.290511 0.105109
H10   H     H_    0.877322 0.800874 0.267091 0.116569
H11   H     H_    0.834296 0.724827 0.516670 0.196921
H12   H     H_    0.333442 0.751287 0.710398 0.181073
H13   H     H_    0.883650 0.886377 0.499091 0.110621
H14   H     H_    0.722820 0.832942 0.527441 0.131313
H15   H     H_    0.082082 0.550043 0.852787 0.130474
H16   H     H_    0.930989 0.455454 0.866270 0.133929
H17   H     H_    0.854240 0.590397 0.017577 0.145194
H18   H     H_    0.017033 0.604305 0.068593 0.102803
H19   H     H_    0.960199 0.723386 0.961231 0.166138
H20   H     H_    0.107519 0.723565 0.282024 0.109224
H21   H     H_    0.256630 0.745277 0.370533 0.159172
H22   H     H_    0.200394 0.935371 0.252451 0.098797
H23   H     H_    0.545811 0.898502 0.291628 0.144604
H24   H     H_    0.062037 0.930588 0.354462 0.134595
H25   H     H_    0.214617 0.956447 0.436829 0.177555
H26   H     H_    0.901925 0.400632 0.152172 0.134461
H27   H     H_    0.892287 0.258763 0.254680 0.125630
H28   H     H_    0.039164 0.175156 0.105590 0.146708
H29   H     H_    0.911894 0.223744 0.001252 0.092095
H30   H     H_    0.063019 0.317656 0.004364 0.140423
H31   H     H_    0.050509 0.138719 0.733048 0.134695
H32   H     H_    0.045423 0.155965 0.546245 0.146797
H33   H     H_    0.093643 0.019173 0.622945 0.179379
H34   H     H_    0.353971 0.355573 0.128797 0.137237
H35   H     H_    0.240954 0.270702 0.695989 0.146568
H36   H     H_    0.255214 0.210785 0.527678 0.152206
H37   H     H_    0.419154 0.162221 0.039096 0.150418
H38   H     H_    0.288241 0.144580 0.156593 0.145586
H39   H     H_    0.354960 0.011917 0.098338 0.158110
H40   H     H_    0.221500 0.191709 0.914760 0.121612
H41   H     H_    0.146006 0.048742 0.971346 0.123716
H42   H     H_    0.765848 0.880824 0.077134 0.094190
H43   H     H_    0.764072 0.852980 0.838297 0.131093
H44   H     H_    0.675240 0.668913 0.739285 0.216895
H45   H     H_    0.357099 0.354065 0.871242 0.106553
H46   H     H_    0.070192 0.376355 0.704286 0.089356
N1    N     N_R   0.501210 0.501210 0.147910 -0.239701
N2    N     N_R   0.501250 0.501290 0.852040 -0.252313
O1    O     O_R   0.499990 0.319640 0.618810 -0.498427
O2    O     O_3   0.935851 0.608294 0.732888 -0.549923
O3    O     O_3   0.106260 0.729823 0.502940 -0.560624
O4    O     O_3   0.062861 0.373808 0.267804 -0.553464
O5    O     O_R   0.500000 0.319660 0.381240 -0.518738
O6    O     O_R   0.316850 0.499960 0.618770 -0.533422
O7    O     O_R   0.316860 0.499980 0.381190 -0.490207
O8    O     O_R   0.500000 0.680340 0.618760 -0.548011
O9    O     O_R   0.500010 0.680360 0.381190 -0.450600
O10   O     O_R   0.683140 0.500020 0.618810 -0.500505
O11   O     O_R   0.683150 0.500040 0.381230 -0.448412
O12   O     O_3   0.697732 0.702762 0.276361 -0.501138

loop_
_geom_bond_atom_site_label_1
_geom_bond_atom_site_label_2
_ccdc_geom_bond_type
C31   H20   S    
Cu2   O5    S    
C35   H28   S    
C30   H18   S    
C6    H23   S    
C18   C21   S    
C41   C42   A    
C19   C20   S    
C17   H45   S    
C12   H2    S    
C1    O5    A    
C28   H11   S    
C31   H21   S    
C37   H33   S    
C12   C23   S    
C35   H29   S    
C38   H40   S    
C21   C22   S    
C36   C37   S    
C25   H7    S    
C39   H38   S    
C26   H4    S    
C9    H42   S    
C38   C39   S    
C27   H9    S    
Cu2   O11   S    
C33   O4    S    
C19   H46   S    
C33   H26   S    
C15   H34   S    
C10   H43   S    
C2    C44   A    
C8    C9    A    
C9    C10   A    
C14   N1    A    
C43   H12   S    
C32   H22   S    
C13   C14   A    
C5    H3    S    
Cu1   N2    S    
C32   H25   S    
C4    C34   S    
C28   H14   S    
Cu2   O7    S    
C29   H15   S    
C35   H30   S    
C24   O3    S    
C20   H1    S    
C36   C40   S    
C19   C22   S    
C25   H8    S    
C38   C41   S    
Cu1   O8    S    
C36   H36   S    
C27   H10   S    
C32   H24   S    
C27   O12   S    
C25   C26   S    
Cu1   Cu2   S    
C37   H31   S    
C12   C21   S    
Cu1   O6    S    
C24   C34   S    
C1    C3    S    
C43   C44   A    
C29   C30   S    
Cu1   O10   S    
C26   H6    S    
C16   O9    A    
C31   C32   S    
C20   C23   S    
C36   H35   S    
C1    O1    A    
C23   C34   S    
C4    O7    A    
C13   N2    A    
C18   O10   A    
C7    C44   A    
C16   O8    A    
C40   C41   A    
C4    O6    A    
C22   C24   S    
C42   C43   A    
C39   H39   S    
Cu1   O1    S    
C37   H32   S    
C28   H13   S    
C33   H27   S    
C15   C17   A    
C29   H16   S    
C7    C16   S    
C8    C14   A    
C22   O2    S    
C3    C5    A    
C19   C34   S    
C8    O12   S    
C25   C42   S    
C15   N1    A    
C29   O2    S    
C6    C7    A    
Cu2   O9    S    
C12   C24   S    
C38   H41   S    
C2    C3    A    
C18   O11   A    
C39   H37   S    
C26   H5    S    
C11   C13   A    
C11   H44   S    
C5    C6    A    
Cu2   N1    S    
C33   C35   S    
C31   O3    S    
C30   H19   S    
C10   C11   A    
C2    C40   A    
C23   O4    S    
C20   C21   S    
C27   C28   S    
C17   N2    A    
C30   H17   S    
