data_mof_unit_28377.cif
_audit_creation_date              2013-03-05T15:57:47-0500
_audit_creation_method            fapswitch 2.2
_symmetry_space_group_name_H-M    P1
_symmetry_Int_Tables_number       1
_space_group_crystal_system       triclinic
_cell_length_a                    15.549189
_cell_length_b                    15.153926
_cell_length_c                    14.954535
_cell_angle_alpha                 109.706061
_cell_angle_beta                  121.088272
_cell_angle_gamma                 58.716917
_cell_volume                      2567.4098033

loop_
_atom_site_label
_atom_site_type_symbol
_atom_site_description
_atom_site_fract_x
_atom_site_fract_y
_atom_site_fract_z
_atom_type_partial_charge
C1    C     C_R   0.797004 0.947515 0.778229 0.709101
C2    C     C_R   0.209256 0.042096 0.216881 0.679724
N1    N     N_R   0.705410 0.966550 0.689210 -0.106274
N2    N     N_R   0.294590 0.033450 0.310790 -0.107093
C3    C     C_R   0.241432 0.289141 0.489859 -0.136566
C4    C     C_R   0.799946 0.725489 0.558126 -0.138285
H1    H     H_    0.226543 0.350329 0.455009 0.144919
H2    H     H_    0.826476 0.674588 0.612237 0.116091
N3    N     N_R   0.294590 0.188320 0.465660 -0.037021
N4    N     N_R   0.705410 0.811680 0.534340 -0.037690
C5    C     C_R   0.594628 0.221698 0.505043 -0.135678
C6    C     C_R   0.406787 0.771571 0.443439 -0.153327
H3    H     H_    0.681165 0.203553 0.534578 0.105474
H4    H     H_    0.322059 0.785034 0.395909 0.114387
N5    N     N_R   0.556610 0.157790 0.497330 -0.046826
N6    N     N_R   0.443390 0.842210 0.502670 -0.048944
C7    C     C_R   0.408303 0.979055 0.710898 -0.123041
C8    C     C_R   0.592473 0.960138 0.266889 -0.115492
H5    H     H_    0.323084 0.992453 0.680631 0.090239
H6    H     H_    0.678595 0.921797 0.280015 0.093443
N7    N     N_R   0.443390 0.997080 0.657540 -0.048411
N8    N     N_R   0.556610 0.002920 0.342460 -0.044251
C9    C     C_R   0.409119 0.293003 0.422260 -0.038089
C10   C     C_R   0.591387 0.694285 0.527320 -0.082870
H7    H     H_    0.324821 0.339526 0.370867 0.131020
H8    H     H_    0.676176 0.637005 0.561539 0.141259
N9    N     N_R   0.443390 0.203250 0.451380 -0.058346
N10   N     N_R   0.556610 0.796750 0.548620 -0.059960
C11   C     C_R   0.591611 0.908831 0.787679 -0.089761
C12   C     C_R   0.407330 0.029829 0.193673 -0.148702
H9    H     H_    0.677322 0.860233 0.831616 0.183138
H10   H     H_    0.322437 0.050791 0.139962 0.184258
N11   N     N_R   0.556610 0.951620 0.703500 -0.045976
N12   N     N_R   0.443390 0.048380 0.296500 -0.047393
C13   C     C_R   0.241443 0.198979 0.582467 -0.043377
C14   C     C_R   0.801388 0.814786 0.467156 -0.054369
H11   H     H_    0.228496 0.178164 0.635526 0.126775
H12   H     H_    0.832039 0.845116 0.439442 0.113916
N13   N     N_R   0.294590 0.131500 0.522480 -0.052887
N14   N     N_R   0.705410 0.868500 0.477520 -0.049966
C15   C     C_R   0.798917 0.037161 0.687872 -0.261301
C16   C     C_R   0.208819 0.950752 0.305346 -0.268597
H13   H     H_    0.828466 0.067037 0.658398 0.136877
H14   H     H_    0.178054 0.916774 0.328686 0.136935
N15   N     N_R   0.705410 0.023370 0.632390 -0.071045
N16   N     N_R   0.294590 0.976630 0.367610 -0.066915
C17   C     C_R   0.858755 0.988924 0.779175 -0.035734
C18   C     C_R   0.160622 0.983628 0.208112 -0.007080
C19   C     C_R   0.209178 0.298555 0.565028 -0.075210
C20   C     C_R   0.862492 0.725245 0.517545 -0.070143
C21   C     C_R   0.502417 0.307252 0.458108 0.153135
C22   C     C_R   0.496463 0.677908 0.461442 0.196718
C23   C     C_R   0.499921 0.920647 0.792332 0.022977
C24   C     C_R   0.498493 0.975854 0.171392 0.039719
H15   H     H_    0.172859 0.944302 0.028878 0.153533
H16   H     H_    0.013121 0.842622 0.913514 0.202852
Ni1   Ni    Ni4+2 0.629830 0.882720 0.617850 0.245882
Ni2   Ni    Ni4+2 0.370170 0.117280 0.382150 0.263063
Ni3   Ni    Ni4+2 0.629830 0.013030 0.487540 0.202693
Ni4   Ni    Ni4+2 0.370170 0.986970 0.512460 0.207458
H17   H     H_    0.033671 0.923871 0.105269 0.148474
H18   H     H_    0.992937 0.038283 0.868892 0.143761
H19   H     H_    0.980733 0.562794 0.931461 0.104374
H20   H     H_    0.042760 0.346746 0.971100 0.094800
C25   C     C_R   0.804588 0.604660 0.864255 0.087165
C26   C     C_R   0.221572 0.269445 0.024409 0.096324
C27   C     C_R   0.704452 0.675628 0.872521 -0.179630
C28   C     C_R   0.312651 0.173883 0.025339 -0.163147
H21   H     H_    0.629741 0.665402 0.818116 0.118413
H22   H     H_    0.395198 0.170449 0.063243 0.127182
C29   C     C_R   0.700887 0.758660 0.951369 0.073285
C30   C     C_R   0.297800 0.082555 0.977340 0.075809
C31   C     C_R   0.799938 0.768751 0.023855 -0.130299
C32   C     C_R   0.189917 0.088246 0.925208 -0.168562
H23   H     H_    0.799357 0.832385 0.085145 0.106746
H24   H     H_    0.176669 0.018948 0.886190 0.107358
C33   C     C_R   0.900024 0.698119 0.016166 -0.055176
C34   C     C_R   0.098797 0.183502 0.923396 -0.032875
H25   H     H_    0.975716 0.706950 0.071748 0.103605
H26   H     H_    0.015773 0.187778 0.883042 0.098103
C35   C     C_R   0.902551 0.616586 0.936535 -0.115440
C36   C     C_R   0.114328 0.273689 0.973191 -0.065497
C37   C     C_R   0.589587 0.860496 0.054434 -0.228040
C38   C     C_R   0.395209 0.941310 0.878878 -0.211004
H27   H     H_    0.663122 0.821877 0.121515 0.135121
H28   H     H_    0.318273 0.974056 0.811800 0.114420
C39   C     C_R   0.493872 0.940308 0.066150 0.062053
C40   C     C_R   0.496520 0.886954 0.871266 0.063595
C41   C     C_R   0.394782 0.982464 0.976041 0.027421
C42   C     C_R   0.593918 0.835274 0.957707 0.040096
H29   H     H_    0.006113 0.586882 0.659187 0.154288
H30   H     H_    0.177268 0.488573 0.563883 0.189341
C43   C     C_2   0.145463 0.396085 0.611417 0.702130
C44   C     C_2   0.977116 0.650612 0.535083 0.716356
C45   C     C_2   0.131538 0.486612 0.598142 -0.234192
C46   C     C_2   0.036846 0.581940 0.606215 -0.256536
C47   C     C_2   0.969759 0.977503 0.856981 -0.156935
C48   C     C_2   0.094588 0.942283 0.109331 -0.132595
H31   H     H_    0.054415 0.912777 0.516431 0.105667
H32   H     H_    0.881327 0.038725 0.332523 0.111230
C49   C     C_R   0.230489 0.819475 0.592336 -0.131758
C50   C     C_R   0.707370 0.143558 0.277036 -0.116325
H33   H     H_    0.238410 0.863807 0.667757 0.111914
H34   H     H_    0.684141 0.095133 0.204800 0.121227
C51   C     C_R   0.324013 0.734640 0.580938 0.078529
C52   C     C_R   0.625937 0.237627 0.297715 0.043650
C53   C     C_R   0.312836 0.677178 0.482051 0.206475
C54   C     C_R   0.656972 0.299915 0.392754 0.204888
C55   C     C_R   0.206876 0.704274 0.397402 -0.119474
C56   C     C_R   0.769773 0.267975 0.463329 -0.097600
H35   H     H_    0.196350 0.659868 0.321568 0.109988
H36   H     H_    0.795053 0.314985 0.536183 0.129623
C57   C     C_R   0.114380 0.789331 0.409698 -0.071366
C58   C     C_R   0.850145 0.174046 0.441642 -0.130383
H37   H     H_    0.033375 0.810294 0.343825 0.108138
H38   H     H_    0.936702 0.149367 0.497016 0.123272
C59   C     C_R   0.126236 0.847060 0.506966 -0.114126
C60   C     C_R   0.818915 0.111634 0.348961 -0.134605
C61   C     C_R   0.418448 0.491131 0.471911 0.717337
C62   C     C_R   0.567995 0.491667 0.420829 0.726415
C63   C     C_R   0.499256 0.399094 0.449278 -0.251712
C64   C     C_R   0.487846 0.584011 0.445230 -0.250271
C65   C     C_R   0.573098 0.397619 0.420520 -0.263035
C66   C     C_R   0.408332 0.584080 0.465896 -0.265206
C67   C     C_2   0.033458 0.904611 0.923390 -0.112309
C68   C     C_2   0.112103 0.925911 0.025195 -0.122628
F1    F     F_    0.828636 0.884116 0.845677 -0.761189
F2    F     F_    0.161562 0.115880 0.153016 -0.728702
N17   N     N_3   0.804958 0.521792 0.781546 -0.221179
H39   H     H_    0.884855 0.477152 0.784485 0.123824
H40   H     H_    0.784881 0.473057 0.795284 0.101702
N18   N     N_3   0.239501 0.361069 0.075977 -0.223388
H41   H     H_    0.164319 0.425143 0.070768 0.098211
H42   H     H_    0.268178 0.375567 0.035159 0.112546
F3    F     F_    0.016950 0.644670 0.469716 -0.686036
F4    F     F_    0.088702 0.393922 0.655359 -0.707024
N19   N     N_3   0.428830 0.707790 0.670486 -0.221595
H43   H     H_    0.459294 0.630854 0.682199 0.136289
H44   H     H_    0.483578 0.712707 0.653820 0.099645
N20   N     N_3   0.513266 0.269454 0.220140 -0.225336
H45   H     H_    0.484898 0.343185 0.201401 0.126470
H46   H     H_    0.464603 0.274338 0.251750 0.112372
F5    F     F_    0.351370 0.490956 0.504769 -0.709470
F6    F     F_    0.640352 0.493626 0.396930 -0.693949

loop_
_geom_bond_atom_site_label_1
_geom_bond_atom_site_label_2
_geom_bond_distance
_ccdc_geom_bond_type
C10   C22   1.387277 A    
C26   C28   1.402250 A    
N6    N10   1.362523 A    
C53   C55   1.407011 A    
C2    N2    1.330100 A    
C45   C46   1.458198 S    
C62   F6    1.360718 S    
C43   F4    1.362114 S    
N2    N16   1.398868 A    
C61   C66   1.362920 A    
N17   H40   1.045505 S    
C51   C53   1.413729 A    
C32   H24   1.083046 S    
H19   C35   1.082812 S    
C13   H11   1.081357 S    
N20   H46   1.043599 S    
C1    N1    1.325938 A    
C55   H35   1.083398 S    
C16   N16   1.346815 A    
C24   C39   1.457393 S    
C34   H26   1.081609 S    
N7    N11   1.362525 A    
C11   N11   1.333352 A    
N3    N13   1.398866 A    
C61   F5    1.364689 S    
N4    N14   1.398869 A    
N3    Ni2   1.842493 S    
N6    Ni4   1.868600 S    
H29   C46   1.084101 S    
N5    N9    1.362523 A    
C9    C21   1.372100 A    
C6    N6    1.314170 A    
N18   H41   1.045755 S    
C25   C27   1.402253 A    
C13   C19   1.393106 A    
C9    N9    1.315523 A    
C56   C58   1.397462 A    
C8    H6    1.080179 S    
C50   C60   1.397194 A    
C62   C65   1.384206 A    
C55   C57   1.397060 A    
C44   C46   1.341493 D    
C12   C24   1.374497 A    
C33   H25   1.082727 S    
C43   C45   1.341273 D    
N14   Ni3   1.867603 S    
C31   H23   1.083284 S    
C3    C19   1.391145 A    
C16   H14   1.079452 S    
C53   C66   1.489508 S    
C6    C22   1.358678 A    
C62   C64   1.399520 A    
C11   C23   1.377843 A    
C26   N18   1.434618 S    
C61   C63   1.392637 A    
C49   C51   1.401147 A    
N8    N12   1.362524 A    
C12   N12   1.319000 A    
C1    F1    1.353805 S    
C14   N14   1.343876 A    
N4    Ni1   1.842490 S    
N20   H45   1.045544 S    
N7    Ni4   1.852814 S    
C47   C67   1.332362 D    
N8    Ni3   1.852814 S    
C29   C31   1.406842 A    
C20   C44   1.465742 S    
C4    H2    1.079699 S    
C2    C18   1.374471 A    
N10   Ni1   1.865161 S    
N1    N15   1.398867 A    
H30   C45   1.085086 S    
C7    N7    1.326764 A    
C27   H21   1.077663 S    
C38   C40   1.395494 A    
C13   N13   1.342637 A    
C3    N3    1.331526 A    
C22   C64   1.425916 S    
C25   N17   1.435011 S    
H31   C59   1.082649 S    
H18   C47   1.085246 S    
N19   H44   1.043961 S    
C34   C36   1.396927 A    
C52   N20   1.431304 S    
H15   C68   1.087433 S    
C33   C35   1.397101 A    
C28   C30   1.405255 A    
C44   F3    1.362111 S    
C15   C17   1.385308 A    
C16   C18   1.378266 A    
H16   C67   1.082100 S    
C4    C20   1.385078 A    
C50   H34   1.083345 S    
H20   C36   1.083028 S    
C58   C60   1.396138 A    
C57   C59   1.395541 A    
N1    Ni1   1.864077 S    
C30   C32   1.404888 A    
C37   H27   1.082885 S    
C40   C42   1.416742 A    
C5    N5    1.322685 A    
C39   C41   1.418480 A    
C67   C68   1.439902 S    
C21   C63   1.415298 S    
H32   C60   1.082859 S    
C38   C41   1.376511 A    
C54   C65   1.484831 S    
C64   C66   1.420264 A    
C7    C23   1.386256 A    
C14   C20   1.386717 A    
C3    H1    1.078579 S    
N17   H39   1.045857 S    
C49   H33   1.081695 S    
C37   C42   1.394283 A    
N15   Ni3   1.852375 S    
N11   Ni1   1.842962 S    
N16   Ni4   1.852376 S    
C8    N8    1.337811 A    
N5    Ni3   1.868598 S    
C1    C17   1.386232 A    
C15   H13   1.081718 S    
C10   N10   1.333127 A    
C10   H8    1.080660 S    
N9    Ni2   1.865160 S    
C37   C39   1.401965 A    
C4    N4    1.331418 A    
C58   H38   1.082656 S    
C18   C48   1.451397 S    
N19   H43   1.045379 S    
C17   C47   1.454140 S    
C49   C59   1.396896 A    
C14   H12   1.081718 S    
C6    H4    1.064949 S    
C11   H9    1.073757 S    
C15   N15   1.341220 A    
C12   H10   1.063091 S    
C30   C41   1.486600 S    
C5    H3    1.079435 S    
H17   C48   1.087358 S    
C29   C42   1.485438 S    
C52   C54   1.415575 A    
N13   Ni4   1.867603 S    
C7    H5    1.079418 S    
C54   C56   1.405593 A    
C50   C52   1.401271 A    
C23   C40   1.468279 S    
C27   C29   1.403963 A    
C9    H7    1.082203 S    
C56   H36   1.083568 S    
C63   C65   1.407327 A    
C5    C21   1.368638 A    
C8    C24   1.394419 A    
C51   N19   1.428275 S    
C48   C68   1.338659 D    
N18   H42   1.045456 S    
C32   C34   1.398066 A    
N2    Ni2   1.864078 S    
N12   Ni2   1.842962 S    
C28   H22   1.081963 S    
C31   C33   1.397379 A    
C25   C35   1.405378 A    
C38   H28   1.078661 S    
C19   C43   1.464521 S    
C26   C36   1.405114 A    
C57   H37   1.082566 S    
C2    F2    1.356432 S    
