data_mof_unit_12851.cif
_audit_creation_date              2012-12-10T17:01:12-0500
_audit_creation_method            fapswitch 2.2
_symmetry_space_group_name_H-M    P1
_symmetry_Int_Tables_number       1
_space_group_crystal_system       triclinic
_cell_length_a                    15.560973
_cell_length_b                    15.561599
_cell_length_c                    9.937582
_cell_angle_alpha                 89.987042
_cell_angle_beta                  60.308984
_cell_angle_gamma                 90.011784
_cell_volume                      2090.48026071

loop_
_atom_site_label
_atom_site_type_symbol
_atom_type_description
_atom_site_fract_x
_atom_site_fract_y
_atom_site_fract_z
_atom_type_partial_charge
C1    C     C_R   0.367860 0.112977 0.562537 0.855927
C2    C     C_R   0.624074 0.878340 0.441618 0.944712
C3    C     C_R   0.631892 0.113360 0.437518 0.960465
C4    C     C_R   0.375943 0.878314 0.558413 0.950430
C5    C     C_R   0.868031 0.613164 0.562462 0.823956
C6    C     C_R   0.123496 0.377994 0.441722 0.958063
C7    C     C_R   0.131967 0.613182 0.437504 0.826754
C8    C     C_R   0.876404 0.378044 0.558380 0.957672
C9    C     C_2   0.511815 0.990905 0.916533 0.117513
C10   C     C_2   0.488162 0.990949 0.083502 0.116010
C11   C     C_2   0.011838 0.490993 0.916508 0.112831
C12   C     C_2   0.988197 0.490857 0.083440 0.138747
C13   C     C_2   0.307433 0.807024 0.580982 -0.114618
C14   C     C_2   0.725840 0.152191 0.401087 -0.160730
C15   C     C_2   0.692635 0.807133 0.419136 -0.112724
C16   C     C_2   0.273725 0.151364 0.598644 -0.217356
C17   C     C_2   0.808916 0.305927 0.581644 -0.163934
C18   C     C_2   0.226002 0.651727 0.401328 -0.216480
C19   C     C_2   0.190711 0.305710 0.418671 -0.118763
C20   C     C_2   0.773990 0.651639 0.598528 -0.189422
C21   C     C_2   0.316756 0.765178 0.453282 -0.073516
C22   C     C_2   0.728374 0.232129 0.453877 -0.198808
C23   C     C_2   0.683253 0.765227 0.546870 -0.072424
C24   C     C_2   0.272066 0.230887 0.544454 -0.221586
C25   C     C_2   0.818000 0.263698 0.454578 -0.163950
C26   C     C_2   0.227793 0.732275 0.451542 -0.212210
C27   C     C_2   0.182288 0.264054 0.545872 -0.071421
C28   C     C_2   0.772164 0.732305 0.548725 -0.215499
Cu1   Cu    Cu3+1 0.522650 0.000000 0.349410 1.057740
Cu2   Cu    Cu3+1 0.477350 0.000000 0.650590 1.069395
Cu3   Cu    Cu3+1 0.022650 0.500000 0.349410 1.050041
Cu4   Cu    Cu3+1 0.977350 0.500000 0.650590 1.054630
N1    N     N_2   0.443290 0.000000 0.876860 -0.067682
N2    N     N_2   0.556710 0.000000 0.123140 -0.067313
N3    N     N_2   0.943290 0.500000 0.876860 -0.065073
N4    N     N_2   0.056710 0.500000 0.123140 -0.067496
O1    O     O_R   0.422430 0.089640 0.419570 -0.548426
O2    O     O_R   0.577570 0.910360 0.580430 -0.593319
O3    O     O_R   0.577570 0.089640 0.580430 -0.528905
O4    O     O_R   0.422430 0.910360 0.419570 -0.588955
O5    O     O_R   0.922430 0.589640 0.419570 -0.540367
O6    O     O_R   0.077570 0.410360 0.580430 -0.586920
O7    O     O_R   0.077570 0.589640 0.580430 -0.541421
O8    O     O_R   0.922430 0.410360 0.419570 -0.592681
O9    O     O_R   0.384170 0.089650 0.673910 -0.552016
O10   O     O_R   0.615830 0.910350 0.326090 -0.572803
O11   O     O_R   0.615830 0.089650 0.326090 -0.575934
O12   O     O_R   0.384170 0.910350 0.673910 -0.571997
O13   O     O_R   0.884170 0.589650 0.673910 -0.566188
O14   O     O_R   0.115830 0.410350 0.326090 -0.567933
O15   O     O_R   0.115830 0.589650 0.326090 -0.566005
O16   O     O_R   0.884170 0.410350 0.673910 -0.562031
O17   O     O_3   0.634489 0.048858 0.025164 -0.497040
C29   C     C_3   0.721242 0.006732 0.000654 0.222484
H1    H     H_    0.724863 0.940275 0.956755 0.132961
H2    H     H_    0.725676 0.003409 0.107966 0.231022
C30   C     C_3   0.811040 0.056620 0.881573 -0.713607
H3    H     H_    0.809898 0.122864 0.924093 0.255392
H4    H     H_    0.879853 0.024073 0.861791 0.232937
H5    H     H_    0.811011 0.060138 0.770026 0.268369
O18   O     O_3   0.365657 0.048992 0.974654 -0.495461
C31   C     C_3   0.278776 0.006938 0.999482 0.224054
H6    H     H_    0.274865 0.940626 0.044166 0.131763
H7    H     H_    0.274427 0.003244 0.892133 0.231735
C32   C     C_3   0.189141 0.057199 0.117877 -0.716851
H8    H     H_    0.190557 0.123291 0.074522 0.254846
H9    H     H_    0.120222 0.024686 0.137984 0.233929
H10   H     H_    0.189136 0.061116 0.229418 0.266435
O19   O     O_3   0.134567 0.548785 0.025158 -0.501236
C33   C     C_3   0.221260 0.506650 0.000969 0.226205
H11   H     H_    0.224722 0.440059 0.957692 0.137427
H12   H     H_    0.225805 0.503682 0.108248 0.230895
C34   C     C_3   0.311145 0.556225 0.881341 -0.724463
H13   H     H_    0.310150 0.622617 0.923172 0.253993
H14   H     H_    0.379900 0.523692 0.861853 0.230250
H15   H     H_    0.311105 0.559346 0.769778 0.268162
O20   O     O_3   0.865279 0.548522 0.975023 -0.497423
C35   C     C_3   0.778721 0.506223 0.998907 0.228969
H16   H     H_    0.775510 0.439504 0.041579 0.133310
H17   H     H_    0.774130 0.503591 0.891643 0.232507
C36   C     C_3   0.688678 0.555357 0.119027 -0.736029
H18   H     H_    0.689419 0.621866 0.077806 0.257388
H19   H     H_    0.620027 0.522689 0.138280 0.234812
H20   H     H_    0.688748 0.558166 0.230584 0.261246
C37   C     C_2   0.644934 0.295100 0.506978 0.395702
H21   H     H_    0.655224 0.360350 0.535096 0.122864
O21   O     O_2   0.565278 0.276287 0.519466 -0.571468
C38   C     C_2   0.413051 0.757794 0.305170 0.333313
H22   H     H_    0.413383 0.750744 0.196238 0.062632
O22   O     O_2   0.491519 0.754068 0.305036 -0.551681
C39   C     C_2   0.359891 0.289005 0.485375 0.435256
H23   H     H_    0.432736 0.263633 0.449604 0.128108
O23   O     O_2   0.351078 0.366494 0.476780 -0.492392
C40   C     C_2   0.586932 0.757739 0.694927 0.336341
H24   H     H_    0.586565 0.750585 0.803874 0.063879
O24   O     O_2   0.508482 0.754032 0.694997 -0.552950
C41   C     C_2   0.141961 0.791840 0.499534 0.427444
H25   H     H_    0.072117 0.768841 0.514262 0.043365
O25   O     O_2   0.149341 0.868225 0.520188 -0.497598
C42   C     C_2   0.913910 0.257023 0.305727 0.369412
H26   H     H_    0.913721 0.250171 0.197169 0.057743
O26   O     O_2   0.992733 0.253833 0.304526 -0.546946
C43   C     C_2   0.857904 0.791957 0.501239 0.424690
H27   H     H_    0.927670 0.769013 0.486854 0.043225
O27   O     O_2   0.850534 0.868351 0.480605 -0.496295
C44   C     C_2   0.086989 0.257997 0.695809 0.336979
H28   H     H_    0.088093 0.251338 0.803679 0.063313
O28   O     O_2   0.007629 0.254908 0.698728 -0.548394
C45   C     C_2   0.809181 0.089817 0.349787 0.382497
H29   H     H_    0.867646 0.099227 0.377494 0.130210
O29   O     O_2   0.811677 0.024870 0.279048 -0.522824
C46   C     C_2   0.221684 0.789776 0.737833 0.454375
H30   H     H_    0.173268 0.735464 0.756178 0.109506
O30   O     O_2   0.204567 0.835413 0.848237 -0.519286
C47   C     C_2   0.189596 0.089627 0.652842 0.428963
H31   H     H_    0.130018 0.099631 0.627899 0.117123
O31   O     O_2   0.187686 0.024484 0.722739 -0.520662
C48   C     C_2   0.778501 0.790065 0.262359 0.455247
H32   H     H_    0.826964 0.735820 0.244040 0.109446
O32   O     O_2   0.795670 0.835787 0.151983 -0.519081
C49   C     C_2   0.309138 0.589484 0.353017 0.437622
H33   H     H_    0.367649 0.600102 0.380208 0.114498
O33   O     O_2   0.311424 0.523355 0.285220 -0.518801
C50   C     C_2   0.724096 0.287921 0.739137 0.399414
H34   H     H_    0.676956 0.232534 0.758159 0.131170
O34   O     O_2   0.706295 0.334135 0.849171 -0.515785
C51   C     C_2   0.690967 0.589286 0.646110 0.390757
H35   H     H_    0.632302 0.600193 0.619390 0.110906
O35   O     O_2   0.688961 0.522729 0.712699 -0.552323
C52   C     C_2   0.274316 0.286520 0.260660 0.445420
H36   H     H_    0.320631 0.230552 0.241603 0.110040
O36   O     O_2   0.292019 0.332403 0.150233 -0.515789
C53   C     C_2   0.387464 0.962733 0.197393 0.495805
H37   H     H_    0.361479 0.900424 0.184109 -0.010511
O37   O     O_2   0.330001 0.011131 0.298303 -0.512314
C54   C     C_2   0.612459 0.962593 0.802744 0.493486
H38   H     H_    0.638371 0.900322 0.816335 -0.009753
O38   O     O_2   0.669970 0.010891 0.701571 -0.514210
C55   C     C_2   0.887625 0.462242 0.197132 0.473595
H39   H     H_    0.861891 0.399905 0.183381 -0.028469
O39   O     O_2   0.830009 0.510324 0.298525 -0.541321
C56   C     C_2   0.112539 0.462828 0.802655 0.494947
H40   H     H_    0.138613 0.400637 0.816225 -0.006838
O40   O     O_2   0.169953 0.511198 0.701547 -0.510559

loop_
_geom_bond_atom_site_label_1
_geom_bond_atom_site_label_2
_ccdc_geom_bond_type
C14   C45   S    
C21   C26   S    
C24   C39   S    
C34   H13   S    
Cu2   O9    S    
C18   C26   D    
C24   C27   S    
C46   O30   D    
C41   H25   S    
C5    C20   S    
O20   C35   S    
C2    O10   A    
C6    C19   S    
C31   H6    S    
Cu1   O11   S    
Cu2   O12   S    
C13   C46   S    
C45   O29   D    
C35   H17   S    
C30   H4    S    
C44   H28   S    
C47   H31   S    
C35   C36   S    
Cu2   O2    S    
C22   C37   S    
C4    C13   S    
C48   H32   S    
Cu4   O16   S    
C31   H7    S    
C17   C50   S    
C41   O25   D    
C4    O4    A    
C47   O31   D    
C22   C25   S    
C10   C53   S    
C33   H11   S    
C7    O7    A    
C12   N4    D    
C19   C27   D    
C9    C10   S    
C8    O16   A    
O18   C31   S    
C31   C32   S    
C1    O1    A    
C32   H10   S    
C19   C52   S    
C15   C23   D    
C21   C38   S    
C3    O3    A    
C16   C24   D    
C9    N1    D    
C34   H14   S    
C5    O13   A    
O19   C33   S    
C46   H30   S    
C36   H19   S    
C36   H18   S    
C37   O21   D    
C29   H2    S    
Cu3   O8    S    
C10   N2    D    
Cu4   N3    S    
C20   C51   S    
C54   O38   D    
C39   H23   S    
C35   H16   S    
C30   H5    S    
C20   C28   D    
C27   C44   S    
C32   H9    S    
C37   H21   S    
Cu1   N2    S    
N3    O20   S    
C52   O36   D    
C51   O35   D    
Cu1   Cu2   S    
C39   O23   D    
C2    O2    A    
C25   C42   S    
Cu3   Cu4   S    
C11   C12   S    
C7    C18   S    
C33   C34   S    
C42   O26   D    
C12   C55   S    
C13   C21   D    
C43   O27   D    
C1    C16   S    
C23   C28   S    
C6    O14   A    
C40   O24   D    
C2    C15   S    
C49   H33   S    
C3    C14   S    
C38   O22   D    
C26   C41   S    
C53   H37   S    
C34   H15   S    
C56   O40   D    
Cu3   O14   S    
C51   H35   S    
C16   C47   S    
C36   H20   S    
N4    O19   S    
C50   O34   D    
C4    O12   A    
C5    O5    A    
C29   H1    S    
Cu3   O5    S    
Cu2   N1    S    
Cu3   N4    S    
C8    O8    A    
Cu3   O15   S    
C54   H38   S    
C55   H39   S    
C15   C48   S    
O17   C29   S    
C8    C17   S    
C23   C40   S    
Cu1   O10   S    
C17   C25   D    
C14   C22   D    
C11   N3    D    
C52   H36   S    
C7    O15   A    
C45   H29   S    
C55   O39   D    
C28   C43   S    
C1    O9    A    
C30   H3    S    
C44   O28   D    
Cu1   O4    S    
C3    O11   A    
C42   H26   S    
Cu4   O7    S    
Cu2   O3    S    
C40   H24   S    
C11   C56   S    
C48   O32   D    
Cu4   O13   S    
C49   O33   D    
C18   C49   S    
C9    C54   S    
C38   H22   S    
N2    O17   S    
N1    O18   S    
C32   H8    S    
C6    O6    A    
Cu1   O1    S    
C43   H27   S    
C53   O37   D    
Cu4   O6    S    
C56   H40   S    
C33   H12   S    
C50   H34   S    
C29   C30   S    
