data_mof_unit_37477.cif
_audit_creation_date              2013-03-05T16:49:47-0500
_audit_creation_method            fapswitch 2.2
_symmetry_space_group_name_H-M    P1
_symmetry_Int_Tables_number       1
_space_group_crystal_system       triclinic
_cell_length_a                    10.357747
_cell_length_b                    15.723523
_cell_length_c                    15.043219
_cell_angle_alpha                 89.59288
_cell_angle_beta                  102.355834
_cell_angle_gamma                 90.049394
_cell_volume                      2393.13503526

loop_
_atom_site_label
_atom_site_type_symbol
_atom_site_description
_atom_site_fract_x
_atom_site_fract_y
_atom_site_fract_z
_atom_type_partial_charge
O1    O     O_R   0.500000 0.378020 0.573650 -0.603666
O2    O     O_R   0.500000 0.621980 0.426350 -0.591695
O3    O     O_R   0.500060 0.378020 0.426320 -0.609087
O4    O     O_R   0.499940 0.621980 0.573680 -0.612296
C1    C     C_R   0.500177 0.338494 0.500313 0.881246
C2    C     C_R   0.499084 0.661534 0.499567 1.052792
O5    O     O_R   0.317790 0.500010 0.546150 -0.597253
O6    O     O_R   0.682210 0.499990 0.453850 -0.597007
O7    O     O_R   0.317850 0.500010 0.398830 -0.614032
O8    O     O_R   0.682150 0.499990 0.601170 -0.618473
C3    C     C_R   0.254894 0.500545 0.463436 0.834558
C4    C     C_R   0.745253 0.500525 0.536516 0.846039
Zn1   Zn    Zn3+2 0.499960 0.500000 0.598370 0.982787
Zn2   Zn    Zn3+2 0.500040 0.500000 0.401630 0.989784
C5    C     C_2   0.110408 0.512888 0.446051 0.348134
C6    C     C_2   0.889369 0.514173 0.553283 0.351747
C7    C     C_2   0.066577 0.579020 0.489214 -0.099835
C8    C     C_2   0.932387 0.579124 0.507133 -0.067978
C9    C     C_R   0.559519 0.954434 0.592528 0.351685
C10   C     C_R   0.574743 0.045111 0.432699 0.331491
C11   C     C_R   0.562373 0.912291 0.510849 -0.263054
C12   C     C_R   0.560407 0.087332 0.511754 -0.237692
C13   C     C_R   0.582751 0.956595 0.433652 0.346049
C14   C     C_R   0.559291 0.043055 0.593062 0.351286
C15   C     C_1   0.534957 0.824285 0.504608 0.125077
C16   C     C_1   0.537290 0.175876 0.507469 0.108360
C17   C     C_1   0.517739 0.250215 0.503714 -0.201092
C18   C     C_1   0.514422 0.750072 0.501174 -0.080176
H1    H     H_    0.452297 0.366986 0.078074 0.168029
H2    H     H_    0.551769 0.631023 0.923334 0.168636
C19   C     C_R   0.469164 0.424025 0.949352 0.509772
C20   C     C_R   0.534294 0.573622 0.051278 0.537479
C21   C     C_R   0.500126 0.498449 0.905123 -0.077822
C22   C     C_R   0.501318 0.499718 0.095222 -0.081755
C23   C     C_R   0.530438 0.572939 0.956560 -0.375909
C24   C     C_R   0.472013 0.425032 0.044099 -0.373336
C25   C     C_1   0.500089 0.499232 0.807223 0.129228
C26   C     C_1   0.500275 0.499709 0.192879 0.129814
N1    N     N_1   0.499960 0.500020 0.270540 -0.090784
N2    N     N_1   0.500040 0.499980 0.729460 -0.090050
C27   C     C_2   0.852974 0.657097 0.479916 0.260821
H3    H     H_    0.862508 0.692068 0.419218 0.097179
O9    O     O_2   0.785089 0.686290 0.529234 -0.645554
C28   C     C_2   0.146784 0.656566 0.516638 0.297462
H4    H     H_    0.135697 0.691353 0.576612 0.101463
O10   O     O_2   0.217736 0.685390 0.468739 -0.611362
O11   O     O_3   0.979615 0.451991 0.593711 -0.641301
C29   C     C_3   0.946989 0.415518 0.672322 0.063996
H5    H     H_    0.014941 0.361006 0.693063 0.166526
H6    H     H_    0.846103 0.387645 0.658319 0.139102
C30   C     C_3   0.968607 0.478663 0.751769 -0.362181
H7    H     H_    0.074039 0.498482 0.768321 0.222056
H8    H     H_    0.906928 0.536389 0.732490 0.229985
C31   C     C_3   0.932694 0.439177 0.836202 -0.958346
H9    H     H_    0.826349 0.421661 0.821750 0.280019
H10   H     H_    0.951269 0.485888 0.892518 0.266934
H11   H     H_    0.993647 0.381702 0.858306 0.259567
O12   O     O_3   0.018885 0.451567 0.405157 -0.641229
C32   C     C_3   0.068743 0.393735 0.349033 0.094171
H12   H     H_    0.001401 0.337970 0.338626 0.169675
H13   H     H_    0.167050 0.367286 0.381894 0.119675
C33   C     C_3   0.067649 0.433119 0.255147 -0.354406
H14   H     H_    0.963864 0.446119 0.219695 0.224791
H15   H     H_    0.121807 0.494457 0.262350 0.238303
C34   C     C_3   0.131249 0.373761 0.197016 -0.948110
H16   H     H_    0.236243 0.361694 0.230262 0.273991
H17   H     H_    0.127892 0.403581 0.129413 0.263983
H18   H     H_    0.077151 0.312363 0.186924 0.258631
O13   O     O_3   0.541074 0.085560 0.669732 -0.592692
C35   C     C_3   0.663358 0.119577 0.715781 0.075684
H19   H     H_    0.716162 0.153423 0.668672 0.128926
H20   H     H_    0.727866 0.067596 0.750909 0.131509
C36   C     C_3   0.638272 0.183257 0.786511 -0.277275
H21   H     H_    0.570479 0.233964 0.752049 0.241159
H22   H     H_    0.590320 0.150267 0.836513 0.226172
C37   C     C_3   0.766712 0.224141 0.836748 -0.965846
H23   H     H_    0.835190 0.174922 0.873439 0.264424
H24   H     H_    0.744953 0.270468 0.886978 0.287388
H25   H     H_    0.815334 0.258327 0.787938 0.257371
O14   O     O_3   0.595159 0.914347 0.355340 -0.614112
C38   C     C_3   0.723360 0.878646 0.367326 0.106530
H26   H     H_    0.718155 0.825888 0.317914 0.167474
H27   H     H_    0.759106 0.849911 0.436170 0.146402
C39   C     C_3   0.822859 0.944787 0.347860 -0.358511
H28   H     H_    0.787661 0.971655 0.278352 0.245803
H29   H     H_    0.831354 0.997424 0.397646 0.232072
C40   C     C_3   0.959368 0.905473 0.355004 -0.937447
H30   H     H_    0.996222 0.877979 0.424014 0.276176
H31   H     H_    0.029712 0.955189 0.342492 0.269549
H32   H     H_    0.955141 0.854826 0.303515 0.263340
O15   O     O_3   0.540895 0.909978 0.668660 -0.590554
C41   C     C_3   0.660004 0.868879 0.711218 0.084250
H33   H     H_    0.720892 0.913351 0.760117 0.133834
H34   H     H_    0.720507 0.847579 0.662299 0.142503
C42   C     C_3   0.626965 0.790637 0.763154 -0.299262
H35   H     H_    0.576894 0.811030 0.817876 0.223113
H36   H     H_    0.558336 0.748743 0.715779 0.240437
C43   C     C_3   0.751053 0.740074 0.805285 -0.959850
H37   H     H_    0.800353 0.716870 0.751293 0.284595
H38   H     H_    0.723838 0.684170 0.842887 0.256439
H39   H     H_    0.821031 0.780359 0.853577 0.260168
O16   O     O_3   0.586358 0.090855 0.355815 -0.620363
C44   C     C_3   0.460652 0.097269 0.296910 0.133227
H40   H     H_    0.384844 0.120957 0.333454 0.122361
H41   H     H_    0.429345 0.034116 0.266747 0.179407
C45   C     C_3   0.468941 0.160125 0.220327 -0.326626
H42   H     H_    0.499951 0.223413 0.249970 0.230752
H43   H     H_    0.544277 0.137793 0.183107 0.232060
C46   C     C_3   0.336206 0.169231 0.153422 -0.989578
H44   H     H_    0.304793 0.107138 0.121114 0.273247
H45   H     H_    0.345466 0.215793 0.099312 0.266886
H46   H     H_    0.259607 0.192312 0.189032 0.266367
O17   O     O_3   0.447800 0.348615 0.901508 -0.649344
C47   C     C_3   0.314200 0.324098 0.891486 0.053113
H47   H     H_    0.248468 0.371366 0.848351 0.146654
H48   H     H_    0.285568 0.318369 0.958548 0.138938
C48   C     C_3   0.294891 0.237388 0.845232 -0.293041
H49   H     H_    0.314050 0.242947 0.775471 0.231015
H50   H     H_    0.366759 0.191318 0.884623 0.229812
C49   C     C_3   0.155261 0.203423 0.839570 -0.976904
H51   H     H_    0.135127 0.195801 0.908827 0.267687
H52   H     H_    0.145076 0.140441 0.805878 0.274537
H53   H     H_    0.081208 0.247349 0.799242 0.254551
O18   O     O_3   0.561808 0.648303 0.099904 -0.636861
C50   C     C_3   0.698515 0.666989 0.114196 0.070416
H54   H     H_    0.709546 0.737128 0.120343 0.173345
H55   H     H_    0.743952 0.648285 0.056295 0.126241
C51   C     C_3   0.773736 0.625889 0.202996 -0.361522
H56   H     H_    0.729292 0.646773 0.260256 0.233008
H57   H     H_    0.765892 0.555572 0.197933 0.216332
C52   C     C_3   0.919647 0.650150 0.222952 -0.949149
H58   H     H_    0.967291 0.626180 0.168513 0.266142
H59   H     H_    0.970308 0.621540 0.288811 0.278105
H60   H     H_    0.930977 0.720233 0.227440 0.262571

loop_
_geom_bond_atom_site_label_1
_geom_bond_atom_site_label_2
_geom_bond_distance
_ccdc_geom_bond_type
C40   H30   1.111146 S    
C27   O9    1.218264 D    
C27   H3    1.084996 S    
C20   O18   1.384755 S    
C42   H35   1.111837 S    
C39   C40   1.525909 S    
C52   H60   1.109082 S    
C51   H56   1.111619 S    
C38   H26   1.111345 S    
C42   C43   1.526976 S    
C49   H51   1.111069 S    
C15   C18   1.185431 T    
O5    C3    1.275019 A    
H1    C24   1.083340 S    
C16   C17   1.185350 T    
H2    C23   1.083110 S    
O1    C1    1.270410 A    
C9    C11   1.406014 A    
C37   H24   1.110556 S    
C25   N2    1.169676 T    
C46   H45   1.110224 S    
C26   N1    1.169017 T    
C10   O16   1.384579 S    
C45   H42   1.112082 S    
C36   H21   1.112112 S    
O4    Zn1   1.950985 S    
C45   C46   1.526350 S    
Zn1   N2    1.971837 S    
C33   H15   1.109553 S    
O16   C44   1.412745 S    
Zn2   N1    1.971836 S    
C1    C17   1.399236 S    
C3    C5    1.475797 S    
C29   C30   1.538260 S    
C2    C18   1.400821 S    
C4    C6    1.475454 S    
C28   O10   1.219054 D    
C34   H17   1.110582 S    
C50   C51   1.533716 S    
C19   C21   1.412267 A    
C35   H19   1.115605 S    
C13   O14   1.386253 S    
C49   H53   1.108703 S    
C29   H6    1.111167 S    
C32   H12   1.110865 S    
C48   C49   1.526669 S    
C36   H22   1.111498 S    
O2    C2    1.270524 A    
C6    O11   1.396199 S    
C38   H27   1.115042 S    
C49   H52   1.110299 S    
C14   O13   1.384494 S    
C47   H47   1.114417 S    
C31   H10   1.110391 S    
C32   H13   1.111999 S    
C30   H7    1.111675 S    
C20   C23   1.416985 A    
C37   H23   1.110854 S    
O4    C2    1.271141 A    
C8    C27   1.482500 S    
O15   C41   1.416670 S    
C52   H59   1.109436 S    
O12   C32   1.415857 S    
C41   C42   1.530051 S    
C21   C25   1.472612 S    
C30   H8    1.110882 S    
C20   C22   1.410318 A    
O7    Zn2   1.878515 S    
C33   H14   1.111426 S    
C5    O12   1.401446 S    
O11   C29   1.415132 S    
C10   C13   1.394115 A    
O6    C4    1.274961 A    
C34   H18   1.110736 S    
C35   C36   1.528417 S    
C41   H34   1.116986 S    
C7    C8    1.471344 S    
C44   H41   1.113526 S    
C39   H28   1.111557 S    
O7    C3    1.281088 A    
O3    Zn2   1.950986 S    
O8    C4    1.282640 A    
C29   H5    1.109344 S    
C10   C12   1.401425 A    
C43   H37   1.111584 S    
C43   H38   1.110325 S    
C11   C13   1.404126 A    
C50   H54   1.111102 S    
C36   C37   1.526220 S    
C12   C14   1.405272 A    
C46   H46   1.110535 S    
O1    Zn1   1.956284 S    
C52   H58   1.110803 S    
C51   C52   1.525177 S    
C38   C39   1.533752 S    
C28   H4    1.085270 S    
O17   C47   1.413098 S    
C5    C7    1.358498 D    
C11   C15   1.412108 S    
C31   H9    1.110962 S    
C32   C33   1.535928 S    
O6    Zn2   1.882294 S    
C33   C34   1.526085 S    
C22   C26   1.471422 S    
C39   H29   1.110908 S    
O14   C38   1.417122 S    
O3    C1    1.270756 A    
O8    Zn1   1.878517 S    
C51   H57   1.110507 S    
C47   H48   1.113783 S    
C42   H36   1.111828 S    
C43   H39   1.111174 S    
C30   C31   1.525680 S    
C48   H50   1.111782 S    
C9    C14   1.393523 A    
C7    C28   1.485172 S    
C46   H44   1.110773 S    
C45   H43   1.111717 S    
C41   H33   1.111679 S    
C21   C23   1.406207 A    
C44   C45   1.528854 S    
C22   C24   1.405332 A    
O13   C35   1.413789 S    
O2    Zn2   1.956281 S    
C47   C48   1.528528 S    
C9    O15   1.385782 S    
O5    Zn1   1.882293 S    
C37   H25   1.110804 S    
C6    C8    1.358296 D    
C34   H16   1.111320 S    
C12   C16   1.411550 S    
C40   H32   1.109154 S    
C44   H40   1.116074 S    
C50   H55   1.116234 S    
C40   H31   1.110397 S    
C19   C24   1.419478 A    
C35   H20   1.112379 S    
C48   H49   1.111804 S    
C19   O17   1.384342 S    
O18   C50   1.416839 S    
C31   H11   1.110283 S    
