data_mof_unit_61216.cif
_audit_creation_date              2012-12-10T19:59:59-0500
_audit_creation_method            fapswitch 2.2
_symmetry_space_group_name_H-M    P1
_symmetry_Int_Tables_number       1
_space_group_crystal_system       monoclinic
_cell_length_a                    18.42118
_cell_length_b                    18.42118
_cell_length_c                    36.212768
_cell_angle_alpha                 90.0
_cell_angle_beta                  90.0
_cell_angle_gamma                 89.999981
_cell_volume                      12288.4360793

loop_
_atom_site_label
_atom_site_type_symbol
_atom_type_description
_atom_site_fract_x
_atom_site_fract_y
_atom_site_fract_z
_atom_type_partial_charge
C1    C     C_R   0.500000 0.000000 0.901146 0.828812
C2    C     C_R   0.434225 0.000034 0.730558 -0.205117
C3    C     C_R   0.240667 0.813304 0.521883 -0.189834
C4    C     C_3   0.144375 0.796081 0.951507 0.213378
C5    C     C_3   0.203915 0.144372 0.951509 0.213372
C6    C     C_3   0.855625 0.203918 0.951507 0.213380
C7    C     C_3   0.796081 0.855625 0.951507 0.213375
C8    C     C_3   0.144372 0.203915 0.951509 0.213372
C9    C     C_3   0.203918 0.855625 0.951507 0.213380
C10   C     C_3   0.855625 0.796081 0.951507 0.213375
C11   C     C_3   0.796081 0.144375 0.951507 0.213378
C12   C     C_3   0.644375 0.296082 0.451507 0.213378
C13   C     C_R   0.000034 0.434225 0.730558 -0.205117
C14   C     C_3   0.703916 0.644372 0.451509 0.213373
C15   C     C_3   0.355625 0.703918 0.451507 0.213380
C16   C     C_3   0.296081 0.355624 0.451506 0.213375
C17   C     C_3   0.644372 0.703916 0.451509 0.213373
C18   C     C_3   0.703918 0.355625 0.451507 0.213380
C19   C     C_3   0.355624 0.296081 0.451506 0.213375
C20   C     C_3   0.296082 0.644375 0.451507 0.213378
C21   C     C_R   0.000034 0.433884 0.769169 0.371292
C22   C     C_R   0.566116 0.999966 0.769169 0.371292
C23   C     C_R   0.999966 0.566116 0.769169 0.371292
C24   C     C_R   0.565774 0.999966 0.730558 -0.205117
C25   C     C_R   0.433884 0.000034 0.769169 0.371292
C26   C     C_R   0.500039 0.933884 0.269169 0.371292
C27   C     C_R   0.066116 0.499961 0.269169 0.371292
C28   C     C_R   0.499961 0.066116 0.269169 0.371292
C29   C     C_R   0.933884 0.500039 0.269169 0.371292
C30   C     C_R   1.000000 0.500000 0.788668 -0.083564
C31   C     C_R   0.500000 1.000000 0.788668 -0.083564
C32   C     C_R   0.500000 0.000000 0.288668 -0.083564
C33   C     C_R   0.000000 0.500000 0.288668 -0.083564
C34   C     C_R   0.500000 0.000000 0.211269 0.014124
C35   C     C_R   0.000000 0.500000 0.211269 0.014124
C36   C     C_R   1.000000 0.500000 0.711269 0.014124
C37   C     C_R   0.500000 1.000000 0.711269 0.014124
C38   C     C_1   1.000000 0.500000 0.828430 0.145130
C39   C     C_1   0.500000 1.000000 0.828430 0.145130
C40   C     C_1   0.500000 0.000000 0.328430 0.145130
C41   C     C_R   0.000000 0.500000 0.901146 0.828812
C42   C     C_1   0.000000 0.500000 0.328430 0.145130
C43   C     C_1   0.500000 0.000000 0.171614 0.009402
C44   C     C_1   0.000000 0.500000 0.171614 0.009402
C45   C     C_1   1.000000 0.500000 0.671614 0.009402
C46   C     C_1   0.500000 1.000000 0.671614 0.009402
C47   C     C_1   0.500000 0.000000 0.138378 -0.122252
C48   C     C_1   0.000000 0.500000 0.138378 -0.122252
C49   C     C_1   1.000000 0.500000 0.638378 -0.122252
C50   C     C_1   0.500000 1.000000 0.638378 -0.122252
C51   C     C_1   1.000000 0.500000 0.861655 -0.005243
C52   C     C_R   0.000000 0.500000 0.401146 0.828812
C53   C     C_1   0.500000 1.000000 0.861655 -0.005243
C54   C     C_1   0.500000 0.000000 0.361655 -0.005243
C55   C     C_1   0.000000 0.500000 0.361655 -0.005243
C56   C     C_R   0.500000 0.000000 0.098862 0.811997
C57   C     C_R   0.000000 0.500000 0.098862 0.811997
C58   C     C_R   1.000000 0.500000 0.598862 0.811997
C59   C     C_R   0.500000 1.000000 0.598862 0.811997
C60   C     C_R   0.639896 0.859868 0.999947 0.816160
C61   C     C_R   0.140132 0.639896 0.999947 0.816159
C62   C     C_R   0.360103 0.140132 0.999947 0.816158
C63   C     C_R   0.500000 0.000000 0.401146 0.828812
C64   C     C_R   0.859868 0.360104 0.999947 0.816159
C65   C     C_R   0.639896 0.140132 0.999947 0.816159
C66   C     C_R   0.140132 0.360104 0.999947 0.816158
C67   C     C_R   0.360103 0.859868 0.999947 0.816159
C68   C     C_R   0.859868 0.639896 0.999947 0.816160
C69   C     C_R   0.139896 0.359868 0.499947 0.816160
C70   C     C_R   0.640132 0.139896 0.499947 0.816159
C71   C     C_R   0.860104 0.640132 0.499947 0.816158
C72   C     C_R   0.359868 0.860103 0.499947 0.816159
C73   C     C_R   0.139896 0.640132 0.499947 0.816159
C74   C     C_R   0.499961 0.065774 0.230558 -0.205117
C75   C     C_R   0.640132 0.860103 0.499947 0.816158
C76   C     C_R   0.860103 0.359868 0.499947 0.816159
C77   C     C_R   0.359868 0.139896 0.499947 0.816160
C78   C     C_R   0.244553 0.807314 0.977271 -0.020471
C79   C     C_R   0.192685 0.244552 0.977272 -0.020469
C80   C     C_R   0.755446 0.192686 0.977271 -0.020470
C81   C     C_R   0.807314 0.755447 0.977272 -0.020473
C82   C     C_R   0.244552 0.192685 0.977272 -0.020469
C83   C     C_R   0.192686 0.755447 0.977271 -0.020470
C84   C     C_R   0.755447 0.807314 0.977272 -0.020473
C85   C     C_R   0.934226 0.500039 0.230558 -0.205117
C86   C     C_R   0.807313 0.244553 0.977271 -0.020471
C87   C     C_R   0.744553 0.307314 0.477271 -0.020471
C88   C     C_R   0.692685 0.744552 0.477272 -0.020470
C89   C     C_R   0.255446 0.692686 0.477271 -0.020470
C90   C     C_R   0.307314 0.255447 0.477272 -0.020473
C91   C     C_R   0.744552 0.692685 0.477272 -0.020470
C92   C     C_R   0.692686 0.255447 0.477271 -0.020470
C93   C     C_R   0.255447 0.307314 0.477272 -0.020473
C94   C     C_R   0.307314 0.744553 0.477271 -0.020471
C95   C     C_R   0.305823 0.803061 0.999523 -0.050819
C96   C     C_R   0.500039 0.934225 0.230558 -0.205117
C97   C     C_R   0.196938 0.305823 0.999523 -0.050820
C98   C     C_R   0.694177 0.196938 0.999523 -0.050819
C99   C     C_R   0.803062 0.694178 0.999524 -0.050816
C100  C     C_R   0.305823 0.196938 0.999523 -0.050820
C101  C     C_R   0.196938 0.694177 0.999523 -0.050819
C102  C     C_R   0.694178 0.803062 0.999524 -0.050816
C103  C     C_R   0.803061 0.305823 0.999523 -0.050819
C104  C     C_R   0.805823 0.303061 0.499523 -0.050819
C105  C     C_R   0.696938 0.805823 0.499523 -0.050819
C106  C     C_R   0.194177 0.696938 0.499523 -0.050819
C107  C     C_R   0.065774 0.499961 0.230558 -0.205117
C108  C     C_R   0.303062 0.194178 0.499524 -0.050817
C109  C     C_R   0.805823 0.696938 0.499523 -0.050819
C110  C     C_R   0.696938 0.194177 0.499523 -0.050819
C111  C     C_R   0.194178 0.303062 0.499524 -0.050817
C112  C     C_R   0.303061 0.805823 0.499523 -0.050819
C113  C     C_R   0.313304 0.740667 0.021883 -0.189834
C114  C     C_R   0.259334 0.313305 0.021882 -0.189832
C115  C     C_R   0.686696 0.259333 0.021883 -0.189834
C116  C     C_R   0.740668 0.686697 0.021883 -0.189834
C117  C     C_R   0.313305 0.259334 0.021882 -0.189832
C118  C     C_R   0.999966 0.565774 0.730558 -0.205117
C119  C     C_R   0.259333 0.686696 0.021883 -0.189834
C120  C     C_R   0.686697 0.740668 0.021883 -0.189834
C121  C     C_R   0.740667 0.313304 0.021883 -0.189834
C122  C     C_R   0.813304 0.240667 0.521883 -0.189834
C123  C     C_R   0.759334 0.813305 0.521882 -0.189832
C124  C     C_R   0.186696 0.759333 0.521883 -0.189834
C125  C     C_R   0.240668 0.186697 0.521883 -0.189833
C126  C     C_R   0.813305 0.759334 0.521882 -0.189832
C127  C     C_R   0.759333 0.186696 0.521883 -0.189834
C128  C     C_R   0.186697 0.240668 0.521883 -0.189833
Cl1   Cl    Cl    0.131471 0.747990 0.909065 -0.379014
Cl2   Cl    Cl    0.752004 0.631466 0.409067 -0.378969
Cl3   Cl    Cl    0.368529 0.752009 0.409066 -0.379013
Cl4   Cl    Cl    0.247989 0.368528 0.409066 -0.378974
Cl5   Cl    Cl    0.631466 0.752004 0.409067 -0.378969
Cl6   Cl    Cl    0.752009 0.368529 0.409066 -0.379013
Cl7   Cl    Cl    0.368528 0.247989 0.409066 -0.378974
Cl8   Cl    Cl    0.247991 0.631471 0.409066 -0.379016
Cl9   Cl    Cl    0.000077 0.349765 0.792317 -0.460377
Cl10  Cl    Cl    0.650235 0.999923 0.792317 -0.460376
Cl11  Cl    Cl    0.999923 0.650235 0.792317 -0.460376
Cl12  Cl    Cl    0.252004 0.131465 0.909067 -0.378972
Cl13  Cl    Cl    0.349765 0.000077 0.792317 -0.460377
Cl14  Cl    Cl    0.500088 0.849765 0.292317 -0.460377
Cl15  Cl    Cl    0.150235 0.499911 0.292317 -0.460376
Cl16  Cl    Cl    0.499912 0.150235 0.292317 -0.460376
Cl17  Cl    Cl    0.849765 0.500088 0.292317 -0.460377
Cl18  Cl    Cl    0.868529 0.252010 0.909065 -0.379011
Cl19  Cl    Cl    0.747989 0.868528 0.909066 -0.378977
Cl20  Cl    Cl    0.131465 0.252004 0.909067 -0.378972
Cl21  Cl    Cl    0.252010 0.868529 0.909065 -0.379011
Cl22  Cl    Cl    0.868528 0.747989 0.909066 -0.378977
Cl23  Cl    Cl    0.747990 0.131471 0.909065 -0.379014
Cl24  Cl    Cl    0.631471 0.247991 0.409066 -0.379016
H1    H     H_    0.360163 0.733690 0.039590 0.178946
H2    H     H_    0.766312 0.860164 0.539588 0.178946
H3    H     H_    0.139837 0.766310 0.539589 0.178946
H4    H     H_    0.233691 0.139838 0.539590 0.178946
H5    H     H_    0.860164 0.766312 0.539588 0.178946
H6    H     H_    0.766310 0.139837 0.539589 0.178946
H7    H     H_    0.139838 0.233691 0.539590 0.178946
H8    H     H_    0.233690 0.860163 0.539589 0.178946
H9    H     H_    0.092994 0.813407 0.964971 0.068609
H10   H     H_    0.186591 0.092991 0.964975 0.068603
H11   H     H_    0.907006 0.186593 0.964971 0.068610
H12   H     H_    0.266312 0.360165 0.039588 0.178946
H13   H     H_    0.813406 0.907006 0.964971 0.068608
H14   H     H_    0.092991 0.186591 0.964975 0.068603
H15   H     H_    0.186593 0.907006 0.964971 0.068610
H16   H     H_    0.907006 0.813406 0.964971 0.068608
H17   H     H_    0.813407 0.092994 0.964971 0.068609
H18   H     H_    0.592993 0.313407 0.464971 0.068609
H19   H     H_    0.686591 0.592992 0.464974 0.068603
H20   H     H_    0.407006 0.686593 0.464971 0.068610
H21   H     H_    0.313406 0.407006 0.464970 0.068609
H22   H     H_    0.592992 0.686591 0.464974 0.068603
H23   H     H_    0.639837 0.266310 0.039590 0.178946
H24   H     H_    0.686593 0.407006 0.464971 0.068610
H25   H     H_    0.407006 0.313406 0.464970 0.068609
H26   H     H_    0.313407 0.592993 0.464971 0.068609
H27   H     H_    0.500069 0.883241 0.215621 0.192822
H28   H     H_    0.116759 0.499931 0.215621 0.192822
H29   H     H_    0.499931 0.116759 0.215621 0.192822
H30   H     H_    0.883241 0.500069 0.215621 0.192822
H31   H     H_    0.000060 0.383241 0.715621 0.192822
H32   H     H_    0.616759 0.999940 0.715621 0.192822
H33   H     H_    0.999940 0.616759 0.715621 0.192822
H34   H     H_    0.733691 0.639838 0.039590 0.178946
H35   H     H_    0.383241 0.000060 0.715621 0.192822
H36   H     H_    0.360165 0.266312 0.039588 0.178946
H37   H     H_    0.266310 0.639837 0.039590 0.178946
H38   H     H_    0.639838 0.733691 0.039590 0.178946
H39   H     H_    0.733690 0.360163 0.039590 0.178946
H40   H     H_    0.860163 0.233690 0.539589 0.178946
O1    O     O_3   0.500000 0.000000 0.000000 -0.512290
O2    O     O_R   0.500000 0.939300 0.418540 -0.587776
O3    O     O_R   0.060700 0.500000 0.418540 -0.587776
O4    O     O_R   0.500000 0.060700 0.418540 -0.587776
O5    O     O_R   0.500000 0.939270 0.081460 -0.635861
O6    O     O_R   0.060730 0.500000 0.081460 -0.635861
O7    O     O_R   0.500000 0.060730 0.081460 -0.635861
O8    O     O_R   0.939270 0.500000 0.081460 -0.635861
O9    O     O_R   0.000000 0.439270 0.581460 -0.635861
O10   O     O_R   0.560730 0.000000 0.581460 -0.635861
O11   O     O_R   0.000000 0.560730 0.581460 -0.635861
O12   O     O_3   0.000000 0.500000 0.000000 -0.512290
O13   O     O_R   0.439270 0.000000 0.581460 -0.635861
O14   O     O_R   0.646180 0.914510 0.978640 -0.611954
O15   O     O_R   0.085490 0.646180 0.978640 -0.611954
O16   O     O_R   0.353820 0.085490 0.978640 -0.611952
O17   O     O_R   0.914510 0.353820 0.978640 -0.611953
O18   O     O_R   0.646180 0.085490 0.978640 -0.611954
O19   O     O_R   0.085490 0.353820 0.978640 -0.611952
O20   O     O_R   0.353820 0.914510 0.978640 -0.611953
O21   O     O_R   0.914510 0.646180 0.978640 -0.611954
O22   O     O_R   0.146180 0.414510 0.478640 -0.611954
O23   O     O_3   0.000000 0.500000 0.500000 -0.512290
O24   O     O_R   0.585490 0.146180 0.478640 -0.611953
O25   O     O_R   0.853820 0.585490 0.478640 -0.611952
O26   O     O_R   0.414510 0.853820 0.478640 -0.611953
O27   O     O_R   0.146180 0.585490 0.478640 -0.611953
O28   O     O_R   0.585490 0.853820 0.478640 -0.611952
O29   O     O_R   0.853820 0.414510 0.478640 -0.611953
O30   O     O_R   0.414510 0.146180 0.478640 -0.611954
O31   O     O_R   0.414550 0.146120 0.021350 -0.653374
O32   O     O_R   0.853880 0.414550 0.021350 -0.653374
O33   O     O_R   0.585450 0.853880 0.021350 -0.653374
O34   O     O_3   0.500000 0.000000 0.500000 -0.512290
O35   O     O_R   0.146120 0.585450 0.021350 -0.653374
O36   O     O_R   0.414550 0.853880 0.021350 -0.653374
O37   O     O_R   0.853880 0.585450 0.021350 -0.653374
O38   O     O_R   0.585450 0.146120 0.021350 -0.653374
O39   O     O_R   0.146120 0.414550 0.021350 -0.653374
O40   O     O_R   0.914550 0.646120 0.521350 -0.653374
O41   O     O_R   0.353880 0.914550 0.521350 -0.653374
O42   O     O_R   0.085450 0.353880 0.521350 -0.653374
O43   O     O_R   0.646120 0.085450 0.521350 -0.653374
O44   O     O_R   0.914550 0.353880 0.521350 -0.653374
O45   O     O_R   0.439300 1.000000 0.918540 -0.587776
O46   O     O_R   0.353880 0.085450 0.521350 -0.653374
O47   O     O_R   0.085450 0.646120 0.521350 -0.653374
O48   O     O_R   0.646120 0.914550 0.521350 -0.653374
O49   O     O_R   0.000000 0.439300 0.918540 -0.587776
O50   O     O_R   0.560700 1.000000 0.918540 -0.587776
O51   O     O_R   0.000000 0.560700 0.918540 -0.587776
O52   O     O_R   0.939300 0.500000 0.418540 -0.587776
Zn1   Zn    Zn3+2 0.500000 0.913220 0.030510 0.974233
Zn2   Zn    Zn3+2 0.000000 0.586770 0.969480 1.064433
Zn3   Zn    Zn3+2 0.413230 0.000000 0.969480 1.064434
Zn4   Zn    Zn3+2 0.000000 0.413230 0.969480 1.064434
Zn5   Zn    Zn3+2 0.086770 0.500000 0.469480 1.064433
Zn6   Zn    Zn3+2 0.500000 0.086770 0.469480 1.064433
Zn7   Zn    Zn3+2 0.913230 0.500000 0.469480 1.064434
Zn8   Zn    Zn3+2 0.500000 0.913230 0.469480 1.064434
Zn9   Zn    Zn3+2 0.086780 0.500000 0.030510 0.974233
Zn10  Zn    Zn3+2 0.500000 0.086780 0.030510 0.974233
Zn11  Zn    Zn3+2 0.913220 0.500000 0.030510 0.974233
Zn12  Zn    Zn3+2 0.000000 0.413220 0.530510 0.974233
Zn13  Zn    Zn3+2 0.586780 0.000000 0.530510 0.974233
Zn14  Zn    Zn3+2 1.000000 0.586780 0.530510 0.974233
Zn15  Zn    Zn3+2 0.413220 0.000000 0.530510 0.974233
Zn16  Zn    Zn3+2 0.586770 0.000000 0.969480 1.064433

loop_
_geom_bond_atom_site_label_1
_geom_bond_atom_site_label_2
_ccdc_geom_bond_type
C16   H21   S    
C25   C31   A    
C7    C10   S    
O23   Zn7   S    
C72   C112  S    
C76   C104  S    
C85   H30   S    
C115  C121  A    
O52   Zn7   S    
C107  H28   S    
C64   C103  S    
C17   C88   S    
C84   C102  A    
C60   O14   A    
C12   Cl24  S    
O47   Zn14  S    
C66   O19   A    
C2    C37   A    
C21   Cl9   S    
C28   C74   A    
C111  C128  A    
C15   C94   S    
C98   C115  A    
C48   C57   S    
O41   Zn15  S    
C74   H29   S    
C39   C53   T    
C3    C124  A    
O34   Zn8   S    
C26   C96   A    
C9    Cl21  S    
C16   C93   S    
C61   O35   A    
C65   O38   A    
C41   O51   A    
C33   C42   S    
C75   C105  S    
O23   Zn14  S    
C23   Cl11  S    
C34   C96   A    
C65   C98   S    
C73   O47   A    
C52   O52   A    
O13   Zn15  S    
C6    Cl18  S    
C104  C122  A    
C54   C63   S    
C19   Cl7   S    
O49   Zn4   S    
C29   C33   A    
C89   C94   A    
O1    Zn16  S    
C72   O41   A    
C64   O32   A    
C57   O6    A    
C60   O33   A    
O5    Zn1   S    
C122  C127  A    
C1    C53   S    
C2    H35   S    
C69   C111  S    
C80   C86   A    
C70   C110  S    
C113  C119  A    
C78   C83   A    
O29   Zn7   S    
C58   O9    A    
C13   H31   S    
C89   C106  A    
C15   H20   S    
C8    C79   S    
C27   Cl15  S    
C71   O40   A    
C28   Cl16  S    
C27   C107  A    
C108  C125  A    
C36   C118  A    
C4    C9    S    
C19   H25   S    
C21   C30   A    
C29   C85   A    
C90   C93   A    
O11   Zn14  S    
C110  C127  A    
C9    C78   S    
C56   O7    A    
C59   O13   A    
C7    C84   S    
C7    H13   S    
O40   Zn14  S    
C87   C92   A    
C67   C95   S    
C14   C17   S    
C75   O48   A    
C8    Cl20  S    
C52   O3    A    
O26   Zn8   S    
C115  H23   S    
C23   C118  A    
O20   Zn3   S    
C60   C102  S    
C86   C103  A    
O34   Zn13  S    
C62   O16   A    
O37   Zn11  S    
C118  H33   S    
C12   C92   S    
C46   C50   T    
C123  H2    S    
C7    Cl19  S    
O33   Zn1   S    
C15   C20   S    
C75   O28   A    
C30   C38   S    
C22   C31   A    
C34   C43   S    
C101  C119  A    
C23   C30   A    
C28   C32   A    
C13   C36   A    
O35   Zn9   S    
C11   C80   S    
O10   Zn13  S    
C6    C11   S    
C61   O15   A    
O12   Zn11  S    
C26   C32   A    
C123  C126  A    
C12   H18   S    
C38   C51   T    
C81   C99   A    
C1    O45   A    
C116  H34   S    
C66   O39   A    
C20   Cl8   S    
C49   C58   S    
C116  C120  A    
C5    C82   S    
C78   C95   A    
O19   Zn4   S    
C16   Cl4   S    
C61   C101  S    
C69   O42   A    
C68   O21   A    
C120  H38   S    
C42   C55   T    
C125  C128  A    
C109  C126  A    
C114  H12   S    
C127  H6    S    
C88   C91   A    
C45   C49   T    
C3    C112  A    
O43   Zn13  S    
O51   Zn2   S    
O22   Zn5   S    
C24   C37   A    
O1    Zn3   S    
C63   O2    A    
C13   C21   A    
C36   C45   S    
C76   O44   A    
C67   O20   A    
C62   O31   A    
O44   Zn12  S    
O17   Zn4   S    
C35   C44   S    
C73   O27   A    
C65   O18   A    
O12   Zn4   S    
C8    H14   S    
C34   C74   A    
C62   C100  S    
O24   Zn6   S    
O30   Zn6   S    
O6    Zn9   S    
C11   Cl23  S    
C125  H4    S    
C93   C111  A    
C58   O11   A    
C11   H17   S    
C40   C54   T    
O28   Zn8   S    
C57   O8    A    
C17   Cl5   S    
C77   O46   A    
O48   Zn13  S    
C22   C24   A    
C64   O17   A    
C5    C8    S    
C50   C59   S    
C12   C18   S    
C103  C121  A    
O15   Zn2   S    
O42   Zn12  S    
C99   C116  A    
C81   C84   A    
C102  C120  A    
C68   O37   A    
C66   C97   S    
C5    Cl12  S    
O3    Zn5   S    
C56   O5    A    
C14   Cl2   S    
C126  H5    S    
O34   Zn6   S    
O14   Zn16  S    
C83   C101  A    
C80   C98   A    
C63   O4    A    
O50   Zn16  S    
C79   C97   A    
C77   C108  S    
C25   Cl13  S    
C69   O22   A    
C119  H37   S    
C17   H22   S    
C113  H1    S    
C14   H19   S    
O38   Zn10  S    
C117  H36   S    
C71   O25   A    
O34   Zn15  S    
C121  H39   S    
C79   C82   A    
C20   H26   S    
C52   C55   S    
O7    Zn10  S    
C122  H40   S    
C4    Cl1   S    
O36   Zn1   S    
C76   O29   A    
C24   H32   S    
O9    Zn12  S    
C72   O26   A    
C20   C89   S    
C22   Cl10  S    
C10   C81   S    
C18   C87   S    
C6    C86   S    
C82   C100  A    
C70   O24   A    
C5    H10   S    
C91   C109  A    
C97   C114  A    
C68   C99   S    
C90   C108  A    
C19   C90   S    
C10   Cl22  S    
C29   Cl17  S    
O12   Zn9   S    
C35   C85   A    
O31   Zn10  S    
C92   C110  A    
C73   C106  S    
C3    H8    S    
C4    C83   S    
C43   C47   T    
C67   O36   A    
C95   C113  A    
C16   C19   S    
C71   C109  S    
O1    Zn10  S    
C94   C112  A    
O23   Zn12  S    
C31   C39   S    
C88   C105  A    
C18   Cl6   S    
C2    C25   A    
O2    Zn8   S    
C70   O43   A    
C32   C40   S    
C96   H27   S    
C59   O10   A    
O21   Zn2   S    
O39   Zn9   S    
C41   O49   A    
C14   C91   S    
O16   Zn3   S    
C114  C117  A    
C35   C107  A    
C1    O50   A    
O8    Zn11  S    
C87   C104  A    
O46   Zn15  S    
C77   O30   A    
C15   Cl3   S    
C6    H11   S    
C128  H7    S    
C10   H16   S    
O27   Zn5   S    
C124  H3    S    
C106  C124  A    
C27   C33   A    
O23   Zn5   S    
O1    Zn1   S    
C4    H9    S    
C9    H15   S    
C100  C117  A    
O25   Zn7   S    
C105  C123  A    
O4    Zn6   S    
C37   C46   S    
C26   Cl14  S    
O18   Zn16  S    
C41   C51   S    
O12   Zn2   S    
C44   C48   T    
O32   Zn11  S    
C47   C56   S    
O45   Zn3   S    
C18   H24   S    
