data_mof_unit_18080.cif
_audit_creation_date              2012-12-10T17:25:16-0500
_audit_creation_method            fapswitch 2.2
_symmetry_space_group_name_H-M    P1
_symmetry_Int_Tables_number       1
_space_group_crystal_system       triclinic
_cell_length_a                    27.794432
_cell_length_b                    10.851368
_cell_length_c                    9.581172
_cell_angle_alpha                 88.584434
_cell_angle_beta                  89.694737
_cell_angle_gamma                 93.150154
_cell_volume                      2884.44255154

loop_
_atom_site_label
_atom_site_type_symbol
_atom_type_description
_atom_site_fract_x
_atom_site_fract_y
_atom_site_fract_z
_atom_type_partial_charge
C1    C     C_R   0.496128 0.262236 0.501854 0.820903
C2    C     C_R   0.279112 0.426870 0.606552 -0.091960
C3    C     C_R   0.253692 0.494956 0.508817 0.353334
C4    C     C_R   0.101870 0.491142 0.514351 -0.046806
C5    C     C_R   0.125312 0.383317 0.483203 -0.025380
C6    C     C_R   0.097841 0.275690 0.452254 -0.128614
C7    C     C_R   0.129421 0.598344 0.550060 -0.027359
C8    C     C_R   0.354861 0.505696 0.501915 -0.048535
C9    C     C_R   0.645555 0.494953 0.498912 -0.104612
C10   C     C_R   0.972319 0.379700 0.498786 0.052972
C11   C     C_R   0.977497 0.607224 0.511846 -0.019824
C12   C     C_R   0.407690 0.502916 0.500243 0.823161
C13   C     C_R   0.949620 0.493581 0.506844 0.040056
C14   C     C_R   0.943177 0.268730 0.503139 -0.185766
C15   C     C_R   0.893242 0.269908 0.509575 -0.122834
C16   C     C_R   0.870504 0.381644 0.510262 -0.018597
C17   C     C_R   0.898590 0.493748 0.508054 -0.046790
C18   C     C_R   0.875550 0.605955 0.505801 -0.077847
C19   C     C_R   0.824972 0.604166 0.506564 0.566113
C20   C     C_R   0.820058 0.383975 0.512575 0.551210
C21   C     C_R   0.721716 0.448811 0.390898 -0.121210
C22   C     C_R   0.671494 0.447913 0.385970 0.231924
C23   C     C_R   0.495356 0.736743 0.498192 0.831814
C24   C     C_R   0.671145 0.539882 0.615106 -0.252051
C25   C     C_R   0.721243 0.539795 0.618854 -0.081851
C26   C     C_R   0.746718 0.494464 0.506707 0.288804
C27   C     C_R   0.023261 0.380487 0.487688 0.038330
C28   C     C_R   0.050870 0.491691 0.510706 0.072312
C29   C     C_R   0.027958 0.603276 0.532287 0.057110
C30   C     C_R   0.047740 0.273785 0.455514 -0.190373
C31   C     C_R   0.105994 0.703301 0.588504 -0.138227
C32   C     C_R   0.953438 0.719109 0.493074 0.231203
C33   C     C_R   0.903256 0.717231 0.495148 -0.145261
C34   C     C_R   0.592488 0.497652 0.499490 0.825624
C35   C     C_R   0.056040 0.704682 0.582424 -0.140426
C36   C     C_R   0.440566 0.113005 0.722349 -0.154892
C37   C     C_R   0.417552 0.042200 0.828645 -0.118103
C38   C     C_R   0.416623 0.914404 0.825417 -0.083662
C39   C     C_R   0.438569 0.856723 0.715629 -0.121361
C40   C     C_R   0.464519 0.926246 0.609717 0.060061
C41   C     C_R   0.465578 0.057274 0.613661 0.102525
C42   C     C_R   0.489097 0.127562 0.503700 -0.170061
C43   C     C_R   0.502950 0.068987 0.383537 -0.211699
C44   C     C_R   0.498814 0.942760 0.374487 0.267582
C45   C     C_R   0.175897 0.386251 0.482576 0.539135
C46   C     C_R   0.486077 0.869281 0.494172 -0.143660
C47   C     C_R   0.568353 0.653284 0.139125 -0.051794
C48   C     C_R   0.602612 0.726335 0.064609 -0.125804
C49   C     C_R   0.601834 0.729131 0.920797 -0.193281
C50   C     C_R   0.567231 0.657638 0.850866 -0.140578
C51   C     C_R   0.533422 0.576278 0.922629 0.222188
C52   C     C_R   0.533696 0.575197 0.072263 0.240230
C53   C     C_R   0.467806 0.428618 0.076555 -0.025400
C54   C     C_R   0.467768 0.428869 0.928628 -0.050658
C55   C     C_R   0.179862 0.596840 0.549851 0.544876
C56   C     C_R   0.278730 0.568840 0.407704 -0.189379
C57   C     C_R   0.329205 0.577340 0.404297 -0.047825
C58   C     C_R   0.329263 0.432036 0.602992 -0.256705
Cu1   Cu    Cu3+1 0.500000 0.499990 0.640660 0.941695
Cu2   Cu    Cu3+1 0.500000 0.500010 0.359340 1.004954
H1    H     H_    0.348183 0.376959 0.678525 0.148242
H2    H     H_    0.258504 0.622583 0.333944 0.140263
H3    H     H_    0.126124 0.784663 0.624392 0.193798
H4    H     H_    0.652454 0.576069 0.703198 0.173462
H5    H     H_    0.885918 0.803785 0.482346 0.215378
H6    H     H_    0.740313 0.574763 0.709164 0.160799
H7    H     H_    0.039692 0.784131 0.623534 0.191049
H8    H     H_    0.516506 0.122055 0.292927 0.213595
H9    H     H_    0.435995 0.210667 0.723562 0.138613
H10   H     H_    0.398804 0.086749 0.911152 0.137786
H11   H     H_    0.259944 0.370098 0.685531 0.149017
H12   H     H_    0.397137 0.859591 0.905428 0.153583
H13   H     H_    0.432210 0.757939 0.711992 0.168898
H14   H     H_    0.441420 0.370116 0.133908 0.132397
H15   H     H_    0.568697 0.667814 0.248323 0.193415
H16   H     H_    0.628619 0.785176 0.119123 0.169894
H17   H     H_    0.627539 0.789302 0.862723 0.165246
H18   H     H_    0.568406 0.671472 0.740847 0.194683
H19   H     H_    0.441019 0.371609 0.875751 0.116791
H20   H     H_    0.114961 0.191855 0.426229 0.197388
H21   H     H_    0.741561 0.413062 0.304577 0.176513
H22   H     H_    0.872483 0.182394 0.513041 0.199749
H23   H     H_    0.958077 0.179038 0.505837 0.175084
H24   H     H_    0.029043 0.188097 0.428335 0.178005
N1    N     N_R   0.202034 0.492347 0.514384 -0.464617
N2    N     N_R   0.798353 0.494210 0.510122 -0.461001
N3    N     N_R   0.500460 0.501210 0.147910 -0.191477
N4    N     N_R   0.500480 0.501290 0.852040 -0.201086
O1    O     O_R   0.500000 0.319640 0.618810 -0.577892
O2    O     O_2   0.792881 0.276961 0.517494 -0.515766
O3    O     O_2   0.206584 0.698898 0.584934 -0.530718
O4    O     O_2   0.802558 0.711408 0.501874 -0.525325
O5    O     O_R   0.500000 0.319660 0.381240 -0.572597
O6    O     O_R   0.430260 0.500010 0.618770 -0.610298
O7    O     O_R   0.430270 0.500030 0.381200 -0.553708
O8    O     O_R   0.500000 0.680340 0.618760 -0.627314
O9    O     O_R   0.500000 0.680360 0.381190 -0.536636
O10   O     O_R   0.569730 0.499970 0.618800 -0.595044
O11   O     O_R   0.569740 0.499990 0.381230 -0.569017
O12   O     O_2   0.198784 0.284425 0.449083 -0.532955
Br1   Br    Br    0.984211 0.874321 0.429470 -0.567086
Br2   Br    Br    0.505754 0.885012 0.188280 -0.508363
Br3   Br    Br    0.641507 0.374219 0.225487 -0.481653
C59   C     C_2   0.352665 0.666723 0.302055 0.382548
H25   H     H_    0.333442 0.693055 0.208566 0.065822
O13   O     O_2   0.392157 0.717038 0.323816 -0.518398

loop_
_geom_bond_atom_site_label_1
_geom_bond_atom_site_label_2
_ccdc_geom_bond_type
C10   C27   A    
C21   C26   A    
C3    N1    S    
C41   C42   A    
C48   H16   S    
C53   H14   S    
C7    C55   A    
Cu2   O11   S    
C59   O13   D    
C33   H5    S    
C53   C54   A    
C56   C57   A    
C40   C46   A    
C28   C29   A    
C36   C37   A    
C5    C6    A    
C9    C22   A    
C15   C16   A    
C23   O8    A    
C18   C19   A    
Cu1   O1    S    
Cu1   N4    S    
C55   O3    S    
C19   O4    S    
C8    C58   A    
C16   C17   A    
C20   N2    A    
C12   O7    A    
Cu1   O6    S    
C8    C12   S    
C16   C20   A    
Cu2   O5    S    
C19   N2    A    
C58   H1    S    
Cu1   Cu2   S    
C24   H4    S    
C23   C46   S    
C21   C22   A    
C27   C30   A    
C12   O6    A    
C36   C41   A    
C14   H23   S    
C4    C7    A    
C50   H18   S    
C59   H25   S    
C4    C28   A    
Cu2   N3    S    
C44   C46   A    
C17   C18   A    
C15   H22   S    
C38   H12   S    
C7    C31   A    
C51   C52   A    
C31   H3    S    
C24   C25   A    
Cu2   O9    S    
C10   C14   A    
C39   C40   A    
C44   Br2   S    
C43   H8    S    
C50   C51   A    
C25   C26   A    
C20   O2    S    
C45   O12   S    
C22   Br3   S    
C55   N1    A    
C45   N1    A    
C43   C44   A    
C37   C38   A    
C8    C57   A    
C3    C56   A    
C6    H20   S    
C47   C48   A    
C35   H7    S    
C26   N2    S    
C34   O11   A    
C53   N3    A    
C48   C49   A    
C6    C30   A    
C21   H21   S    
C11   C32   A    
C9    C34   S    
C31   C35   A    
C42   C43   A    
C2    H11   S    
C36   H9    S    
C54   H19   S    
C57   C59   S    
C40   C41   A    
C1    O1    A    
C23   O9    A    
C14   C15   A    
C52   N3    A    
C25   H6    S    
C4    C5    A    
C10   C13   A    
C51   N4    A    
C2    C58   A    
C9    C24   A    
C47   C52   A    
C29   C35   A    
C13   C17   A    
C32   C33   A    
C2    C3    A    
C47   H15   S    
C54   N4    A    
C11   C13   A    
C38   C39   A    
C5    C45   A    
C34   O10   A    
C49   H17   S    
C56   H2    S    
C39   H13   S    
C30   H24   S    
C18   C33   A    
Cu2   O7    S    
C1    C42   S    
C11   C29   A    
C1    O5    A    
C49   C50   A    
Cu1   O8    S    
C27   C28   A    
Cu1   O10   S    
C32   Br1   S    
C37   H10   S    
