data_mof_unit_12937.cif
_audit_creation_date              2012-12-10T19:01:18-0500
_audit_creation_method            fapswitch 2.2
_symmetry_space_group_name_H-M    P1
_symmetry_Int_Tables_number       1
_space_group_crystal_system       triclinic
_cell_length_a                    9.557776
_cell_length_b                    10.849664
_cell_length_c                    15.528903
_cell_angle_alpha                 88.508618
_cell_angle_beta                  74.42116
_cell_angle_gamma                 90.527673
_cell_volume                      1550.42104387

loop_
_atom_site_label
_atom_site_type_symbol
_atom_type_description
_atom_site_fract_x
_atom_site_fract_y
_atom_site_fract_z
_atom_type_partial_charge
C1    C     C_R   0.997971 0.262443 0.502778 0.802577
C2    C     C_R   0.679285 0.537059 0.912925 0.097360
C3    C     C_R   0.783049 0.522181 0.961625 0.073215
C4    C     C_R   0.533609 0.562501 0.959911 0.063431
C5    C     C_R   0.485711 0.536155 0.053037 0.069260
C6    C     C_R   0.591653 0.516441 0.099958 -0.169198
C7    C     C_R   0.738571 0.513794 0.054955 -0.226041
C8    C     C_R   0.439254 0.624907 0.918345 -0.102548
C9    C     C_R   0.297546 0.650023 0.965501 -0.172484
C10   C     C_R   0.243257 0.607048 0.053703 0.102704
C11   C     C_R   0.335013 0.542974 0.097144 0.094451
C12   C     C_R   0.917789 0.504549 0.672826 0.784796
C13   C     C_R   0.098545 0.628754 0.099205 -0.219932
C14   C     C_R   0.044001 0.588766 0.187738 -0.230688
C15   C     C_R   0.272370 0.487615 0.182374 0.094199
C16   C     C_R   0.103532 0.064781 0.533433 0.099442
C17   C     C_R   0.990249 0.129410 0.513663 -0.096880
C18   C     C_R   0.866479 0.063186 0.507411 -0.208942
C19   C     C_R   0.868171 0.934678 0.506513 -0.210883
C20   C     C_R   0.993666 0.871005 0.511632 -0.138423
C21   C     C_R   0.105659 0.937707 0.532549 0.201197
C22   C     C_3   0.267014 0.938904 0.492439 -0.221890
C23   C     C_R   0.999513 0.737864 0.501938 0.811928
C24   C     C_3   0.263520 0.078762 0.494943 -0.549193
C25   C     C_R   0.605676 0.541819 0.426705 0.256872
C26   C     C_R   0.547662 0.438058 0.564435 -0.050118
C27   C     C_R   0.398544 0.435215 0.564712 0.050024
C28   C     C_R   0.459206 0.539951 0.426087 0.230862
C29   C     C_3   0.473260 0.661560 0.378553 -0.498876
C30   C     C_3   0.630945 0.665993 0.381601 -0.497534
C31   C     C_R   0.082317 0.500341 0.327979 0.796749
C32   C     C_R   0.872471 0.516870 0.772588 -0.185034
C33   C     C_R   0.130419 0.520116 0.230524 -0.088342
C34   C     C_R   0.930156 0.518439 0.916698 -0.182971
C35   C     C_R   0.976702 0.526118 0.823103 -0.034839
C36   C     C_R   0.721784 0.518233 0.820004 0.073573
Cu1   Cu    Cu3+1 0.140670 0.499980 0.500000 0.940799
Cu2   Cu    Cu3+1 0.859330 0.500020 0.500000 0.939198
H1    H     H_    0.817296 0.503050 0.093332 0.154169
H2    H     H_    0.028906 0.680528 0.067232 0.142999
H3    H     H_    0.772029 0.110086 0.497767 0.165844
H4    H     H_    0.774280 0.886377 0.496842 0.157572
H5    H     H_    0.298413 0.906243 0.422848 0.123918
H6    H     H_    0.317050 0.119633 0.543110 0.203374
H7    H     H_    0.293060 0.124155 0.427283 0.199992
H8    H     H_    0.584070 0.387213 0.614739 0.177141
H9    H     H_    0.460325 0.654337 0.309818 0.188756
H10   H     H_    0.405100 0.730222 0.419856 0.213655
H11   H     H_    0.708361 0.664013 0.314184 0.184427
H12   H     H_    0.653462 0.738271 0.425637 0.203428
H13   H     H_    0.935157 0.614033 0.223336 0.151562
H14   H     H_    0.229322 0.701329 0.932200 0.155710
H15   H     H_    0.009581 0.515370 0.955050 0.180442
H16   H     H_    0.564266 0.513170 0.172030 0.153100
H17   H     H_    0.476794 0.662557 0.850862 0.166386
N1    N     N_R   0.648210 0.500930 0.499430 -0.209694
N2    N     N_R   0.352300 0.500890 0.499430 -0.221630
O1    O     O_R   0.118810 0.319640 0.500000 -0.612446
O2    O     O_R   0.881230 0.319680 0.499990 -0.583903
O3    O     O_R   0.055580 0.499970 0.629840 -0.616590
O4    O     O_R   0.818000 0.500010 0.629830 -0.588449
O5    O     O_R   0.118770 0.680320 0.500010 -0.557510
O6    O     O_R   0.881190 0.680360 0.500000 -0.581841
O7    O     O_R   0.182000 0.499990 0.370170 -0.589206
O8    O     O_R   0.944420 0.500030 0.370160 -0.577146
C37   C     C_2   0.351349 0.883521 0.552819 0.413338
H18   H     H_    0.467417 0.901381 0.537796 0.054894
O9    O     O_2   0.291945 0.817639 0.617522 -0.548504
C38   C     C_2   0.300459 0.352915 0.633149 0.364335
H19   H     H_    0.194065 0.326479 0.629374 0.138195
O10   O     O_2   0.340663 0.308137 0.695277 -0.534284
N3    N     N_3   0.343671 0.385792 0.213037 -0.598711
H20   H     H_    0.270637 0.311116 0.230431 0.220805
H21   H     H_    0.377320 0.409641 0.269052 0.230290
C39   C     C_2   0.134182 0.547636 0.782047 0.382798
H22   H     H_    0.172153 0.605909 0.722445 0.138576
O11   O     O_2   0.223891 0.503139 0.816278 -0.508546
N4    N     N_3   0.610068 0.483055 0.778979 -0.538027
H23   H     H_    0.632157 0.395798 0.752137 0.254011
H24   H     H_    0.600969 0.549431 0.730919 0.248949

loop_
_geom_bond_atom_site_label_1
_geom_bond_atom_site_label_2
_ccdc_geom_bond_type
C8    C9    A    
C37   O9    D    
C16   C21   A    
C19   C20   A    
C25   N1    A    
C4    C8    A    
C14   C33   A    
Cu1   O5    S    
C28   N2    A    
C25   C28   A    
C15   N3    S    
C35   C39   S    
C26   C27   A    
C29   C30   S    
C29   H9    S    
C24   H7    S    
C32   C36   A    
C28   C29   S    
C5    C11   A    
C3    C7    A    
C1    O2    A    
C5    C6    A    
N4    H24   S    
C34   C35   A    
C38   O10   D    
C22   C37   S    
C13   H2    S    
C11   C15   A    
C23   O5    A    
C22   H5    S    
C16   C17   A    
C31   C33   S    
C9    C10   A    
Cu1   O1    S    
C27   C38   S    
C19   H4    S    
Cu2   O4    S    
C23   O6    A    
C37   H18   S    
C30   H12   S    
C16   C24   S    
C13   C14   A    
C12   C32   S    
C9    H14   S    
C6    H16   S    
C8    H17   S    
C29   H10   S    
C32   C35   A    
N3    H21   S    
C27   N2    A    
C18   H3    S    
N4    H23   S    
C18   C19   A    
C3    C34   A    
C2    C4    A    
C39   H22   S    
Cu1   Cu2   S    
C14   H13   S    
C20   C23   S    
C17   C18   A    
C39   O11   D    
C30   H11   S    
C24   H6    S    
C22   C24   S    
Cu1   O7    S    
Cu2   O6    S    
C2    C36   A    
C25   C30   S    
C31   O8    A    
C31   O7    A    
N3    H20   S    
C10   C13   A    
C26   N1    A    
C6    C7    A    
C1    C17   S    
C2    C3    A    
C36   N4    S    
C1    O1    A    
C12   O4    A    
C38   H19   S    
Cu1   O3    S    
C10   C11   A    
C26   H8    S    
Cu2   O2    S    
C12   O3    A    
C4    C5    A    
Cu2   N1    S    
C20   C21   A    
C34   H15   S    
C7    H1    S    
C21   C22   S    
Cu2   O8    S    
C15   C33   A    
Cu1   N2    S    
