data_mof_unit_8835.cif
_audit_creation_date              2013-03-05T16:44:35-0500
_audit_creation_method            fapswitch 2.2
_symmetry_space_group_name_H-M    P1
_symmetry_Int_Tables_number       1
_space_group_crystal_system       triclinic
_cell_length_a                    27.529059
_cell_length_b                    10.786168
_cell_length_c                    9.893569
_cell_angle_alpha                 89.275831
_cell_angle_beta                  88.311618
_cell_angle_gamma                 90.994665
_cell_volume                      2935.75562479

loop_
_atom_site_label
_atom_site_type_symbol
_atom_site_description
_atom_site_fract_x
_atom_site_fract_y
_atom_site_fract_z
_atom_type_partial_charge
O1    O     O_R   0.500010 0.316790 0.614690 -0.619312
O2    O     O_R   0.500000 0.316760 0.385350 -0.624714
C1    C     C_R   0.501631 0.260559 0.500690 0.880734
O3    O     O_R   0.428760 0.500040 0.614660 -0.611594
O4    O     O_R   0.428750 0.500000 0.385310 -0.632070
C2    C     C_R   0.406036 0.500081 0.502009 0.880698
Zn1   Zn    Zn3+2 0.500000 0.500020 0.653130 0.929529
Zn2   Zn    Zn3+2 0.500000 0.499980 0.346870 0.925991
O5    O     O_R   0.500000 0.683240 0.614650 -0.615337
O6    O     O_R   0.499990 0.683210 0.385310 -0.631741
O7    O     O_R   0.571250 0.500000 0.614690 -0.634367
O8    O     O_R   0.571240 0.499960 0.385340 -0.617396
C3    C     C_R   0.501571 0.739655 0.497824 0.874455
C4    C     C_R   0.594084 0.500127 0.498541 0.866085
C5    C     C_R   0.176721 0.346838 0.556080 0.495696
O9    O     O_2   0.201930 0.248432 0.512661 -0.580464
N1    N     N_R   0.201149 0.456922 0.572494 -0.345495
C6    C     C_R   0.177850 0.561441 0.612158 0.519341
C7    C     C_R   0.272194 0.547207 0.449179 -0.139288
C8    C     C_R   0.322588 0.563123 0.431427 0.127977
C9    C     C_R   0.333100 0.403196 0.604803 -0.280089
C10   C     C_R   0.283214 0.391554 0.624010 -0.102589
C11   C     C_R   0.252591 0.463697 0.546823 0.282168
C12   C     C_R   0.100904 0.450003 0.606692 -0.090282
C13   C     C_R   0.125722 0.338271 0.579802 -0.041704
C14   C     C_R   0.098291 0.225054 0.573979 0.186940
C15   C     C_R   0.127376 0.561135 0.625697 -0.039432
C16   C     C_R   0.353221 0.488873 0.510062 -0.056520
H1    H     H_    0.356210 0.345894 0.665518 0.156882
H2    H     H_    0.268301 0.327644 0.700357 0.150974
C17   C     C_R   0.647107 0.497468 0.498260 -0.082305
C18   C     C_R   0.970961 0.343856 0.606191 0.059249
C19   C     C_R   0.975867 0.571408 0.590136 0.040900
C20   C     C_R   0.948283 0.459574 0.589124 0.065927
C21   C     C_R   0.941262 0.235989 0.621219 -0.227217
C22   C     C_R   0.891161 0.241453 0.608862 -0.140350
C23   C     C_R   0.869239 0.354024 0.578612 -0.015225
C24   C     C_R   0.897805 0.463403 0.568040 -0.056882
C25   C     C_R   0.875987 0.576544 0.535195 -0.017346
C26   C     C_R   0.826165 0.577893 0.512163 0.498553
N2    N     N_R   0.798985 0.471025 0.525323 -0.359047
C27   C     C_R   0.819155 0.360564 0.559831 0.483971
C28   C     C_R   0.720667 0.526001 0.621130 -0.125587
C29   C     C_R   0.670877 0.535904 0.614078 -0.226920
C30   C     C_R   0.673918 0.450629 0.387870 -0.216279
C31   C     C_R   0.724751 0.439490 0.393908 0.205579
C32   C     C_R   0.747579 0.477695 0.512958 0.266026
O10   O     O_2   0.790744 0.257934 0.576455 -0.567570
C33   C     C_R   0.022446 0.340215 0.602575 0.026580
C34   C     C_R   0.049569 0.452177 0.611473 0.029048
C35   C     C_R   0.025589 0.567378 0.621749 0.011585
C36   C     C_R   0.047502 0.228596 0.585701 -0.248167
H3    H     H_    0.650921 0.573229 0.699943 0.156668
H4    H     H_    0.738653 0.555626 0.711465 0.145268
H5    H     H_    0.869793 0.156497 0.620632 0.191636
H6    H     H_    0.955652 0.146353 0.645711 0.144048
H7    H     H_    0.027844 0.142152 0.575291 0.135067
O11   O     O_2   0.203654 0.666020 0.636649 -0.577147
C37   C     C_R   0.103183 0.669881 0.659084 -0.215365
H8    H     H_    0.247829 0.603395 0.391193 0.144778
H9    H     H_    0.123484 0.752911 0.684331 0.183221
C38   C     C_R   0.953583 0.682503 0.550686 -0.188061
C39   C     C_R   0.904385 0.685046 0.524209 -0.159630
O12   O     O_2   0.804810 0.685113 0.477976 -0.560125
C40   C     C_R   0.052661 0.673823 0.660734 0.185841
H10   H     H_    0.974123 0.767604 0.532983 0.171645
H11   H     H_    0.654720 0.420524 0.300047 0.191142
H12   H     H_    0.888763 0.772461 0.494690 0.190029
C41   C     C_R   0.499925 0.059626 0.618984 -0.008956
C42   C     C_R   0.503520 0.128940 0.500138 -0.137912
C43   C     C_R   0.505956 0.069194 0.375970 -0.258107
H13   H     H_    0.510096 0.122560 0.283958 0.180757
C44   C     C_R   0.505449 0.941224 0.368048 0.160908
C45   C     C_R   0.503105 0.871679 0.491959 -0.124219
C46   C     C_R   0.500708 0.933609 0.614485 0.039474
C47   C     C_3   0.527802 0.922008 0.743964 -0.048885
C48   C     C_3   0.526100 0.064134 0.750114 0.009106
H14   H     H_    0.504251 0.878427 0.825284 0.108150
H15   H     H_    0.502089 0.096967 0.832983 0.128652
C49   C     C_R   0.457502 0.501300 0.073397 0.147827
N3    N     N_R   0.499670 0.499140 0.142800 -0.141348
C50   C     C_R   0.542140 0.522432 0.067236 0.236106
C51   C     C_R   0.541943 0.514524 0.922985 -0.186426
H16   H     H_    0.575020 0.524758 0.862802 0.173898
N4    N     N_R   0.499670 0.499180 0.857150 -0.122440
C52   C     C_R   0.457484 0.508187 0.931844 0.170680
C53   C     C_3   0.412883 0.428748 0.923556 -0.497935
C54   C     C_3   0.414901 0.412217 0.077282 -0.081715
H17   H     H_    0.381309 0.484110 0.892422 0.183150
H18   H     H_    0.418038 0.344216 0.862288 0.212412
H19   H     H_    0.382523 0.450872 0.130344 0.133796
C55   C     C_3   0.755820 0.387640 0.278636 -0.394565
C56   C     C_3   0.728944 0.350931 0.151883 -0.885441
H20   H     H_    0.700747 0.278474 0.176050 0.264686
H21   H     H_    0.712374 0.433453 0.105722 0.262795
H22   H     H_    0.755184 0.312570 0.076643 0.265165
H23   H     H_    0.784234 0.457922 0.248422 0.213774
H24   H     H_    0.774481 0.303961 0.315756 0.241843
N5    N     N_2   0.029763 0.782103 0.711337 -0.329460
H25   H     H_    0.050736 0.862172 0.702527 0.219589
C57   C     C_3   0.007113 0.766926 0.844465 -0.761009
H26   H     H_    0.988395 0.853617 0.872734 0.236626
H27   H     H_    0.035069 0.747112 0.920222 0.240209
H28   H     H_    0.979647 0.690239 0.845815 0.256841
C58   C     C_3   0.511545 0.888514 0.226434 -0.361986
C59   C     C_3   0.462937 0.849795 0.167498 -0.853035
H29   H     H_    0.469117 0.816365 0.062819 0.227299
H30   H     H_    0.444822 0.774223 0.227642 0.287080
H31   H     H_    0.438234 0.929977 0.164568 0.246605
H32   H     H_    0.528536 0.958988 0.155971 0.175391
H33   H     H_    0.537855 0.812566 0.223634 0.204255
C60   C     C_3   0.578748 0.861575 0.737199 -0.318530
C61   C     C_3   0.609353 0.882957 0.606429 -0.768523
H34   H     H_    0.597687 0.818347 0.526899 0.220264
H35   H     H_    0.607140 0.979350 0.567490 0.271920
H36   H     H_    0.647988 0.863397 0.626206 0.245185
H37   H     H_    0.599823 0.894872 0.823948 0.206188
H38   H     H_    0.573980 0.759946 0.753215 0.199782
N6    N     N_2   0.573447 0.126508 0.741081 -0.261873
H39   H     H_    0.577777 0.193903 0.666791 0.246127
C62   C     C_3   0.592281 0.165301 0.869038 -0.775428
H40   H     H_    0.571597 0.245573 0.907774 0.238167
H41   H     H_    0.631068 0.193700 0.854800 0.250851
H42   H     H_    0.589665 0.088232 0.944627 0.232412
N7    N     N_2   0.584728 0.564129 0.133040 -0.263826
H43   H     H_    0.577679 0.635127 0.198729 0.251012
C63   C     C_3   0.629620 0.585536 0.055638 -0.896570
H44   H     H_    0.658937 0.611514 0.125153 0.262246
H45   H     H_    0.625538 0.663201 0.982147 0.232838
H46   H     H_    0.640379 0.499881 0.002232 0.251282
C64   C     C_3   0.425381 0.278144 0.123047 -0.293028
C65   C     C_3   0.472849 0.225805 0.064503 -0.877640
H47   H     H_    0.478254 0.249861 0.956522 0.256685
H48   H     H_    0.504623 0.263407 0.117496 0.268149
H49   H     H_    0.472072 0.123433 0.074769 0.232813
H50   H     H_    0.425939 0.273799 0.235081 0.227166
H51   H     H_    0.394681 0.217669 0.092045 0.191251
C66   C     C_3   0.120486 0.097326 0.559723 -0.349449
C67   C     C_3   0.144893 0.056699 0.689436 -0.793878
H52   H     H_    0.172818 0.125197 0.720242 0.280098
H53   H     H_    0.117201 0.045526 0.772870 0.234966
H54   H     H_    0.162685 0.966292 0.673319 0.257966
H55   H     H_    0.092170 0.025840 0.539084 0.164936
H56   H     H_    0.145587 0.093137 0.470438 0.253121
C68   C     C_3   0.341791 0.666075 0.337805 -0.440214
C69   C     C_3   0.359558 0.777338 0.417948 -0.816868
H57   H     H_    0.330189 0.809423 0.487833 0.276129
H58   H     H_    0.391705 0.753140 0.477302 0.245383
H59   H     H_    0.369978 0.854788 0.347446 0.246055
H60   H     H_    0.371271 0.632770 0.269685 0.212507
H61   H     H_    0.312695 0.698253 0.270815 0.208085

loop_
_geom_bond_atom_site_label_1
_geom_bond_atom_site_label_2
_geom_bond_distance
_ccdc_geom_bond_type
C58   H32   1.112500 S    
C57   H26   1.110373 S    
N2    C27   1.366849 A    
C41   C48   1.503372 S    
C21   C22   1.390411 A    
C12   C15   1.409521 A    
C4    C17   1.460353 S    
C28   C29   1.380427 A    
N3    C50   1.386531 A    
C66   C67   1.528806 S    
C55   H24   1.110067 S    
C48   N6    1.456268 S    
C30   C31   1.409555 A    
Zn1   O7    1.986948 S    
C23   C24   1.407508 A    
C22   C23   1.398213 A    
C47   H14   1.112539 S    
C61   H34   1.108557 S    
C66   H55   1.111911 S    
C35   C40   1.421558 A    
O4    C2    1.296739 A    
O7    C4    1.293451 A    
C5    C13   1.417820 A    
C31   C55   1.523227 S    
C59   H29   1.110277 S    
C5    O9    1.346220 S    
Zn1   O5    2.007846 S    
C44   C45   1.428330 A    
C23   C27   1.399517 A    
O5    C3    1.298630 A    
C62   H42   1.111082 S    
C49   C52   1.401509 A    
C39   H12   1.083413 S    
C29   H3    1.083680 S    
C6    O11   1.350918 S    
C2    C16   1.456615 S    
C7    C8    1.400566 A    
C65   H47   1.101386 S    
C30   H11   1.080716 S    
C42   C43   1.394835 A    
C68   H60   1.107198 S    
C47   C60   1.556821 S    
C61   H36   1.110398 S    
C48   H15   1.103654 S    
C58   H33   1.102913 S    
C56   H21   1.106800 S    
O1    Zn1   2.017327 S    
C9    C10   1.384164 A    
O3    Zn1   2.008743 S    
C60   C61   1.535705 S    
C55   H23   1.111669 S    
C68   C69   1.527968 S    
C69   H58   1.109460 S    
N6    C62   1.446056 S    
C12   C34   1.413203 A    
C24   C25   1.408039 A    
C67   H52   1.108835 S    
C37   H9    1.083194 S    
C17   C29   1.399938 A    
C38   H10   1.079371 S    
Zn2   N3    2.019403 S    
C18   C21   1.414089 A    
C1    C42   1.421586 S    
C12   C13   1.419836 A    
C40   N5    1.426113 S    
O3    C2    1.294057 A    
C64   H50   1.109386 S    
C45   C46   1.391881 A    
C25   C26   1.397239 A    
C43   C44   1.383373 A    
C52   C53   1.489855 S    
C19   C38   1.411505 A    
C27   O10   1.349795 S    
C8    C16   1.415678 A    
C34   C35   1.420516 A    
C13   C14   1.427292 A    
N4    C52   1.363603 A    
C9    H1    1.083689 S    
O1    C1    1.287324 A    
C18   C20   1.415659 A    
C7    C11   1.402223 A    
C46   C47   1.506134 S    
C63   H45   1.111633 S    
C50   N7    1.426462 S    
C38   C39   1.387711 A    
C64   H51   1.111326 S    
C14   C36   1.400805 A    
C69   H59   1.109886 S    
C28   H4    1.083431 S    
C44   C58   1.524464 S    
C51   H16   1.076474 S    
C54   H19   1.111205 S    
Zn2   O8    2.008743 S    
C33   C36   1.407202 A    
N1    C6    1.363000 A    
N2    C32   1.427003 S    
C8    C68   1.515021 S    
C56   H20   1.110758 S    
N1    C11   1.431808 S    
C47   C48   1.536443 S    
C62   H40   1.110587 S    
C68   H61   1.111943 S    
Zn2   O6    2.017326 S    
C26   N2    1.366045 A    
C51   N4    1.358895 A    
C9    C16   1.403269 A    
O8    C4    1.300510 A    
C50   C51   1.430946 A    
C56   H22   1.110680 S    
C53   H17   1.111809 S    
N7    H43   1.027996 S    
C64   C65   1.533321 S    
C69   H57   1.110987 S    
C57   H27   1.111475 S    
C5    N1    1.368242 A    
C31   C32   1.413831 A    
C10   H2    1.083063 S    
N5    C57   1.446708 S    
C21   H6    1.078627 S    
C20   C24   1.412465 A    
O2    Zn2   2.007847 S    
C6    C15   1.391933 A    
C49   N3    1.366405 A    
C14   C66   1.523256 S    
O6    C3    1.277014 A    
O4    Zn2   1.986951 S    
N6    H39   1.030143 S    
C7    H8    1.083651 S    
C19   C35   1.414308 A    
C25   C39   1.397378 A    
C58   C59   1.528967 S    
C26   O12   1.350146 S    
N5    H25   1.031818 S    
O2    C1    1.287684 A    
C63   H46   1.110451 S    
C43   H13   1.073025 S    
C49   C54   1.502484 S    
C22   H5    1.083440 S    
C15   C37   1.397310 A    
C37   C40   1.391834 A    
C60   H38   1.110572 S    
C67   H53   1.110973 S    
C60   H37   1.109994 S    
C59   H30   1.106045 S    
C65   H49   1.107355 S    
C55   C56   1.527705 S    
C67   H54   1.110018 S    
C19   C20   1.414466 A    
C41   C46   1.361054 A    
C41   C42   1.385514 A    
C18   C33   1.417991 A    
C62   H41   1.110176 S    
C36   H7    1.077505 S    
Zn1   N4    2.018144 S    
C3    C45   1.424331 S    
C53   C54   1.531823 S    
C65   H48   1.106587 S    
C33   C34   1.413836 A    
C17   C30   1.404352 A    
C53   H18   1.110088 S    
N7    C63   1.448047 S    
C10   C11   1.394651 A    
C66   H56   1.107239 S    
C57   H28   1.110622 S    
C54   C64   1.544411 S    
C28   C32   1.395159 A    
C63   H44   1.110225 S    
C61   H35   1.107519 S    
C59   H31   1.110056 S    
