data_mof_unit_22775.cif
_audit_creation_date              2012-12-10T20:27:15-0500
_audit_creation_method            fapswitch 2.2
_symmetry_space_group_name_H-M    P1
_symmetry_Int_Tables_number       1
_space_group_crystal_system       triclinic
_cell_length_a                    10.723941
_cell_length_b                    10.668833
_cell_length_c                    9.925857
_cell_angle_alpha                 90.296473
_cell_angle_beta                  104.295719
_cell_angle_gamma                 90.67428
_cell_volume                      1100.35613525

loop_
_atom_site_label
_atom_site_type_symbol
_atom_type_description
_atom_site_fract_x
_atom_site_fract_y
_atom_site_fract_z
_atom_type_partial_charge
C1    C     C_R   0.503688 0.260183 0.500843 0.875572
C2    C     C_R   0.596185 0.555100 0.100560 -0.207687
C3    C     C_R   0.598612 0.555913 0.958468 0.459014
C4    C     C_R   0.258764 0.504523 0.441461 0.917685
C5    C     C_R   0.407783 0.434849 0.904004 0.123532
C6    C     C_3   0.266563 0.457741 0.863761 -0.481509
C7    C     C_3   0.267261 0.453021 0.016484 -0.445165
C8    C     C_R   0.503881 0.739902 0.501236 0.891001
C9    C     C_R   0.741526 0.505094 0.558066 0.962527
C10   C     C_2   0.121288 0.521057 0.407092 -0.340421
C11   C     C_2   0.067926 0.562737 0.506132 -0.158161
C12   C     C_R   0.523716 0.128926 0.506981 -0.112276
C13   C     C_2   0.879249 0.526011 0.589213 -0.355839
C14   C     C_2   0.931097 0.557221 0.484512 -0.155123
C15   C     C_R   0.520280 0.064767 0.627865 0.133986
C16   C     C_R   0.552095 0.064855 0.394723 -0.215085
C17   C     C_R   0.552562 0.935215 0.395121 -0.218960
C18   C     C_R   0.524398 0.871615 0.507679 -0.112692
C19   C     C_R   0.520601 0.937007 0.628184 0.206316
C20   C     C_3   0.426135 0.928911 0.716302 -0.465958
C21   C     C_3   0.425625 0.071048 0.715907 -0.489791
C22   C     C_R   0.408582 0.433822 0.046321 0.184731
H1    H     H_    0.873505 0.567023 0.378398 0.206824
H2    H     H_    0.063726 0.495908 0.303905 0.177675
H3    H     H_    0.565193 0.113618 0.303630 0.180188
H4    H     H_    0.565986 0.885792 0.304215 0.185511
H5    H     H_    0.332591 0.885729 0.660502 0.193847
H6    H     H_    0.469549 0.889072 0.820374 0.229933
H7    H     H_    0.331784 0.110720 0.659840 0.204783
H8    H     H_    0.799912 0.745618 0.780358 0.365006
H9    H     H_    0.468535 0.113436 0.819841 0.215504
H10   H     H_    0.671779 0.599811 0.178979 0.198369
H11   H     H_    0.244559 0.552708 0.820124 0.202626
H12   H     H_    0.211448 0.379237 0.801477 0.209855
H13   H     H_    0.241941 0.543732 0.057941 0.224787
H14   H     H_    0.215760 0.369603 0.043800 0.205549
H15   H     H_    0.125082 0.589782 0.608205 0.175328
H16   H     H_    0.938066 0.514920 0.694465 0.196686
N1    N     N_R   0.499160 0.499140 0.142600 -0.137166
N2    N     N_R   0.499160 0.499180 0.856960 -0.167092
O1    O     O_R   0.500020 0.316790 0.614700 -0.614412
O2    O     O_2   0.830052 0.522451 0.910310 -0.330410
O3    O     O_3   0.713493 0.720700 0.790651 -0.544457
O4    O     O_R   0.500000 0.316760 0.385350 -0.617265
O5    O     O_R   0.317820 0.500020 0.571850 -0.621302
O6    O     O_R   0.317800 0.499980 0.342510 -0.610476
O7    O     O_R   0.500000 0.683240 0.614650 -0.567276
O8    O     O_R   0.499980 0.683210 0.385300 -0.629075
O9    O     O_R   0.682200 0.500020 0.657490 -0.521254
O10   O     O_R   0.682180 0.499980 0.428150 -0.635887
O11   O     O_2   0.808380 0.702808 0.052678 -0.343450
S1    S     S_3+6 0.741010 0.625453 0.928270 0.013835
Zn1   Zn    Zn3+2 0.500010 0.500020 0.653140 1.010745
Zn2   Zn    Zn3+2 0.499990 0.499980 0.346860 0.946778

loop_
_geom_bond_atom_site_label_1
_geom_bond_atom_site_label_2
_ccdc_geom_bond_type
C14   H1    S    
O8    Zn2   S    
C3    S1    S    
C6    H11   S    
C6    C7    S    
C5    C22   A    
C20   H5    S    
C7    C22   S    
C7    H14   S    
C1    O4    A    
C19   C20   S    
C12   C15   A    
O7    Zn1   S    
O6    Zn2   S    
C8    O8    A    
C2    C3    A    
C8    O7    A    
O5    Zn1   S    
C12   C16   A    
C4    O6    A    
C13   C14   D    
C15   C19   A    
C21   H9    S    
O1    Zn1   S    
C13   H16   S    
O10   Zn2   S    
C1    C12   S    
C7    H13   S    
O9    Zn1   S    
C17   H4    S    
C1    O1    A    
C3    N2    A    
C17   C18   A    
C4    O5    A    
C5    C6    S    
O3    S1    S    
C11   C14   S    
H8    O3    S    
N1    Zn2   S    
C10   C11   D    
C22   N1    A    
C4    C10   S    
O11   S1    D    
O4    Zn2   S    
C15   C21   S    
C9    O9    A    
C20   C21   S    
C2    H10   S    
N2    Zn1   S    
C5    N2    A    
C16   H3    S    
C11   H15   S    
C9    C13   S    
C18   C19   A    
C20   H6    S    
C10   H2    S    
C21   H7    S    
C2    N1    A    
C8    C18   S    
C9    O10   A    
C6    H12   S    
O2    S1    D    
C16   C17   A    
