data_mof_unit_24629.cif
_audit_creation_date              2012-12-10T19:01:22-0500
_audit_creation_method            fapswitch 2.2
_symmetry_space_group_name_H-M    P1
_symmetry_Int_Tables_number       1
_space_group_crystal_system       triclinic
_cell_length_a                    9.542994
_cell_length_b                    10.815946
_cell_length_c                    15.494974
_cell_angle_alpha                 90.040074
_cell_angle_beta                  74.437105
_cell_angle_gamma                 89.983494
_cell_volume                      1540.69927336

loop_
_atom_site_label
_atom_site_type_symbol
_atom_type_description
_atom_site_fract_x
_atom_site_fract_y
_atom_site_fract_z
_atom_type_partial_charge
C1    C     C_R   0.999695 0.262248 0.500344 0.808276
C2    C     C_R   0.677014 0.510248 0.908740 0.094170
C3    C     C_R   0.778076 0.477544 0.957290 0.169847
C4    C     C_R   0.528377 0.531332 0.955124 0.065938
C5    C     C_R   0.480634 0.508418 0.048994 0.066909
C6    C     C_R   0.585706 0.477565 0.094916 -0.218949
C7    C     C_R   0.731462 0.463545 0.049814 -0.242172
C8    C     C_R   0.426436 0.576332 0.911061 -0.222998
C9    C     C_R   0.281561 0.593404 0.956502 -0.240661
C10   C     C_R   0.231849 0.565602 0.047076 0.167434
C11   C     C_R   0.329916 0.520666 0.094135 0.094072
C12   C     C_R   0.918332 0.498874 0.672111 0.789849
C13   C     C_R   0.084680 0.584156 0.091450 -0.217111
C14   C     C_R   0.033333 0.559687 0.182600 -0.203178
C15   C     C_R   0.273156 0.490050 0.184986 -0.252854
C16   C     C_R   0.097349 0.064233 0.538538 0.048892
C17   C     C_R   0.993919 0.129051 0.507961 -0.086446
C18   C     C_R   0.874682 0.063851 0.493899 -0.209192
C19   C     C_R   0.873307 0.935210 0.496884 -0.176903
C20   C     C_R   0.989780 0.870662 0.515801 -0.136532
C21   C     C_R   0.092142 0.937742 0.547099 0.016587
C22   C     C_3   0.255611 0.928167 0.527804 0.282940
C23   C     C_R   0.997971 0.737604 0.504292 0.788080
C24   C     C_3   0.259441 0.067480 0.511350 -0.456875
C25   C     C_R   0.591241 0.593679 0.459765 0.273236
C26   C     C_R   0.553662 0.415061 0.547721 -0.081862
C27   C     C_R   0.404673 0.415241 0.547881 -0.093261
C28   C     C_R   0.443800 0.593819 0.459842 0.261111
C29   C     C_3   0.480274 0.629603 0.363466 -0.492725
C30   C     C_3   0.639130 0.628681 0.363403 -0.519588
C31   C     C_R   0.081837 0.501478 0.327896 0.803249
C32   C     C_R   0.873561 0.495181 0.770387 -0.050146
C33   C     C_R   0.127824 0.513760 0.230018 -0.050084
C34   C     C_R   0.925002 0.457637 0.912567 -0.212039
C35   C     C_R   0.972653 0.466920 0.819658 -0.207638
C36   C     C_R   0.727609 0.516717 0.814924 -0.251703
Cu1   Cu    Cu3+1 0.140670 0.499980 0.500000 0.926192
Cu2   Cu    Cu3+1 0.859330 0.500020 0.500000 0.939789
H1    H     H_    0.807985 0.439607 0.087709 0.149690
H2    H     H_    0.009986 0.620594 0.056024 0.143965
H3    H     H_    0.787103 0.111202 0.475266 0.163444
H4    H     H_    0.785923 0.886910 0.478701 0.165205
H5    H     H_    0.308862 0.873122 0.467357 0.098373
H6    H     H_    0.303488 0.121986 0.559006 0.209225
H7    H     H_    0.304350 0.092635 0.439650 0.157347
H8    H     H_    0.593220 0.344828 0.584959 0.146356
H9    H     H_    0.332414 0.345598 0.585537 0.138039
H10   H     H_    0.453956 0.556292 0.320290 0.212414
H11   H     H_    0.339493 0.447132 0.222689 0.138701
H12   H     H_    0.439368 0.723200 0.353440 0.187662
H13   H     H_    0.701434 0.553694 0.321041 0.209010
H14   H     H_    0.690552 0.721634 0.353172 0.192784
H15   H     H_    0.921125 0.579935 0.216110 0.147054
H16   H     H_    0.207680 0.628864 0.920333 0.143243
H17   H     H_    0.002700 0.432895 0.949381 0.144875
H18   H     H_    0.086131 0.449759 0.786377 0.153571
H19   H     H_    0.654637 0.534696 0.774280 0.151366
H20   H     H_    0.559927 0.466347 0.166455 0.138575
H21   H     H_    0.455299 0.603382 0.841693 0.140807
N1    N     N_R   0.648210 0.500930 0.499430 -0.187796
N2    N     N_R   0.352300 0.500890 0.499430 -0.189949
O1    O     O_R   0.118810 0.319640 0.500000 -0.578883
O2    O     O_R   0.881230 0.319680 0.499990 -0.587815
O3    O     O_R   0.055580 0.499970 0.629840 -0.594651
O4    O     O_R   0.818000 0.500010 0.629830 -0.583355
O5    O     O_R   0.118770 0.680320 0.500010 -0.604741
O6    O     O_R   0.881190 0.680360 0.500000 -0.574968
O7    O     O_R   0.182000 0.499990 0.370170 -0.581566
O8    O     O_R   0.944420 0.500030 0.370160 -0.581947
O9    O     O_3   0.313057 0.904315 0.602125 -0.600144
C37   C     C_3   0.233902 0.815404 0.662892 0.092144
H22   H     H_    0.313161 0.755516 0.684181 0.142960
H23   H     H_    0.168262 0.752442 0.633271 0.166455
C38   C     C_3   0.138544 0.880527 0.745969 -0.360265
H24   H     H_    0.208958 0.918865 0.786156 0.219578
H25   H     H_    0.078778 0.958687 0.725804 0.233224
C39   C     C_3   0.028098 0.792079 0.803759 -0.904249
H26   H     H_    0.949743 0.760736 0.766715 0.257819
H27   H     H_    0.966898 0.839763 0.865936 0.260172
H28   H     H_    0.084266 0.710657 0.822206 0.252621

loop_
_geom_bond_atom_site_label_1
_geom_bond_atom_site_label_2
_ccdc_geom_bond_type
C8    C9    A    
C30   H13   S    
C16   C21   A    
C6    H20   S    
C19   C20   A    
C4    C8    A    
C1    O1    A    
C14   C33   A    
Cu1   O1    S    
C39   H26   S    
C25   C28   A    
C26   C27   A    
C29   C30   S    
C38   H25   S    
C24   H7    S    
C32   C36   A    
C23   O5    A    
C28   C29   S    
C5    C11   A    
C3    C7    A    
C8    H21   S    
C5    C6    A    
C12   O3    A    
C27   H9    S    
Cu1   O7    S    
C34   C35   A    
C23   O6    A    
C13   H2    S    
C27   N2    A    
C11   C15   A    
C16   C17   A    
C38   C39   S    
C31   C33   S    
O9    C37   S    
C25   N1    A    
C9    C10   A    
C19   H4    S    
C28   N2    A    
Cu2   O8    S    
C34   H17   S    
C16   C24   S    
C13   C14   A    
C12   C32   S    
C1    O2    A    
C29   H12   S    
C39   H27   S    
C31   O7    A    
C38   H24   S    
C29   H10   S    
C32   C35   A    
C36   H19   S    
C18   H3    S    
C37   H23   S    
C18   C19   A    
C3    C34   A    
C2    C4    A    
Cu1   Cu2   S    
C22   H5    S    
C20   C23   S    
Cu1   O5    S    
C17   C18   A    
Cu2   O6    S    
Cu2   N1    S    
C24   H6    S    
C22   C24   S    
Cu1   O3    S    
Cu2   O2    S    
C39   H28   S    
C2    C36   A    
C25   C30   S    
C30   H14   S    
C35   H18   S    
C4    C5    A    
C10   C13   A    
C37   C38   S    
Cu1   N2    S    
C6    C7    A    
C12   O4    A    
C1    C17   S    
C2    C3    A    
C37   H22   S    
C22   O9    S    
C15   H11   S    
C10   C11   A    
C26   H8    S    
C31   O8    A    
C14   H15   S    
C20   C21   A    
C7    H1    S    
C9    H16   S    
C21   C22   S    
Cu2   O4    S    
C26   N1    A    
C15   C33   A    
