data_mof_unit_37374.cif
_audit_creation_date              2012-12-11T14:00:02-0500
_audit_creation_method            fapswitch 2.2
_symmetry_space_group_name_H-M    P1
_symmetry_Int_Tables_number       1
_space_group_crystal_system       triclinic
_cell_length_a                    11.222091
_cell_length_b                    11.233009
_cell_length_c                    18.925081
_cell_angle_alpha                 90.385431
_cell_angle_beta                  90.06595
_cell_angle_gamma                 119.9024
_cell_volume                      2067.99203867

loop_
_atom_site_label
_atom_site_type_symbol
_atom_type_description
_atom_site_fract_x
_atom_site_fract_y
_atom_site_fract_z
_atom_type_partial_charge
C1    C     C_R   0.543011 0.478352 0.853125 0.591360
C2    C     C_R   0.448895 0.587270 0.357700 0.556483
C3    C     C_R   0.063174 0.521032 0.351462 0.536849
C4    C     C_R   0.450571 0.925760 0.354757 0.569211
C5    C     C_2   0.866586 0.417823 0.564268 0.310741
C6    C     C_2   0.507563 0.490216 0.575553 0.277939
C7    C     C_2   0.514347 0.052416 0.572808 0.307713
C8    C     C_2   0.462828 0.939826 0.430643 0.269871
C9    C     C_2   0.449977 0.585713 0.435290 0.287615
C10   C     C_2   0.014159 0.508283 0.423667 0.278329
C11   C     C_2   0.939902 0.382320 0.450232 0.335323
C12   C     C_R   0.521856 0.064490 0.852882 0.589955
C13   C     C_2   0.568326 0.623200 0.470362 0.335601
C14   C     C_2   0.385155 0.981342 0.465111 0.279988
C15   C     C_2   0.389641 0.976674 0.542192 0.283448
C16   C     C_2   0.561184 0.615661 0.547965 0.346981
C17   C     C_2   0.939573 0.371557 0.528214 0.360670
C18   C     C_2   0.009221 0.508266 0.919984 0.305044
C19   C     C_2   0.494151 0.500005 0.921057 0.276459
C20   C     C_2   0.499303 0.992034 0.919882 0.306029
C21   C     C_2   0.507166 0.008468 0.080258 0.306108
C22   C     C_2   0.502473 0.489770 0.081739 0.309391
C23   C     C_R   0.936160 0.457768 0.852803 0.597000
C24   C     C_2   0.991495 0.498904 0.079801 0.311896
C25   C     C_2   0.026594 0.606931 0.036586 0.295239
C26   C     C_2   0.395169 0.415343 0.036914 0.232250
C27   C     C_2   0.580606 0.974078 0.036385 0.281766
C28   C     C_2   0.607102 0.027323 0.963972 0.277909
C29   C     C_2   0.421311 0.391033 0.963756 0.222349
C30   C     C_2   0.973646 0.580698 0.963952 0.269422
C31   C     C_3   0.844949 0.154727 0.416251 -0.126476
C32   C     C_3   0.800579 0.724177 0.448750 -0.085718
C33   C     C_3   0.223652 0.050460 0.450329 -0.100387
C34   C     C_R   0.477924 0.542642 0.146992 0.674009
C35   C     C_3   0.174201 0.868545 0.592412 -0.083951
C36   C     C_3   0.705824 0.835994 0.588013 -0.089184
C37   C     C_3   0.082870 0.276843 0.535251 -0.086177
C38   C     C_R   0.064214 0.521513 0.147062 0.598316
C39   C     C_R   0.457257 0.935573 0.147138 0.597711
C40   C     C_R   0.542718 0.478545 0.648160 0.540748
C41   C     C_R   0.521089 0.067127 0.647498 0.617677
C42   C     C_R   0.862712 0.413658 0.641945 0.583554
Cr1   Cr    Cr6+3 0.464030 0.233680 0.750360 1.052256
Cr2   Cr    Cr6+3 0.766320 0.230350 0.750360 1.073710
Cr3   Cr    Cr6+3 0.769650 0.535970 0.750360 1.048465
Cr4   Cr    Cr6+3 0.233680 0.464030 0.249640 1.072211
Cr5   Cr    Cr6+3 0.230350 0.766320 0.249640 1.075613
Cr6   Cr    Cr6+3 0.535970 0.769650 0.249640 1.065562
H1    H     H_    0.808800 0.112517 0.469686 0.155090
H2    H     H_    0.103524 0.834343 0.546435 0.122724
H3    H     H_    0.197857 0.972415 0.610729 0.088526
H4    H     H_    0.118408 0.796629 0.635973 0.179685
H5    H     H_    0.782878 0.807662 0.605649 0.091369
H6    H     H_    0.711880 0.915091 0.625541 0.173727
H7    H     H_    0.731589 0.883890 0.535236 0.106277
H8    H     H_    0.994671 0.170839 0.539974 0.056998
H9    H     H_    0.167697 0.281141 0.567348 0.182749
H10   H     H_    0.121276 0.301688 0.480308 0.130500
H11   H     H_    0.136017 0.704438 0.442667 0.331969
H12   H     H_    0.947389 0.167055 0.404494 0.089129
H13   H     H_    0.261082 0.540927 0.438274 0.313256
H14   H     H_    0.593643 0.873533 0.436204 0.300128
H15   H     H_    0.604407 0.184971 0.496946 0.366652
H16   H     H_    0.432420 0.293295 0.557648 0.328591
H17   H     H_    0.747049 0.495059 0.561962 0.318815
H18   H     H_    0.128712 0.802957 0.018559 0.347777
H19   H     H_    0.198785 0.320669 0.017220 0.352629
H20   H     H_    0.677163 0.874185 0.017524 0.348585
H21   H     H_    0.803318 0.128191 0.983066 0.346590
H22   H     H_    0.326011 0.194382 0.980269 0.351059
H23   H     H_    0.772493 0.078341 0.377636 0.161248
H24   H     H_    0.872191 0.675677 0.982943 0.350716
H25   H     H_    0.881038 0.302623 0.096090 0.329412
H26   H     H_    0.640315 0.466630 0.030180 0.342790
H27   H     H_    0.420033 0.118135 0.097791 0.329303
H28   H     H_    0.302818 0.881459 0.902097 0.328269
H29   H     H_    0.581468 0.696841 0.906292 0.330660
H30   H     H_    0.120127 0.422395 0.902621 0.331083
H31   H     H_    0.834400 0.726729 0.504066 0.104425
H32   H     H_    0.802876 0.821142 0.434303 0.056266
H33   H     H_    0.876154 0.715676 0.414466 0.182531
H34   H     H_    0.224703 0.085388 0.505334 0.089003
H35   H     H_    0.142400 0.941943 0.441259 0.090467
H36   H     H_    0.198177 0.114362 0.415957 0.159476
O1    O     O_R   0.434100 0.092480 0.829780 -0.489970
O2    O     O_R   0.362730 0.477510 0.175360 -0.471299
O3    O     O_R   0.114780 0.637270 0.175360 -0.452750
O4    O     O_R   0.522490 0.885220 0.175360 -0.462661
O5    O     O_R   0.432250 0.092620 0.670380 -0.559976
O6    O     O_R   0.907380 0.339630 0.670380 -0.473911
O7    O     O_R   0.660370 0.567750 0.670380 -0.550490
O8    O     O_R   0.092620 0.432250 0.329620 -0.539105
O9    O     O_R   0.339630 0.907380 0.329620 -0.495438
O10   O     O_R   0.567750 0.660370 0.329620 -0.496723
O11   O     O_R   0.475790 0.362860 0.676880 -0.532193
O12   O     O_R   0.907520 0.341620 0.829780 -0.490084
O13   O     O_R   0.637140 0.112930 0.676880 -0.517215
O14   O     O_R   0.887070 0.524210 0.676880 -0.529915
O15   O     O_R   0.362860 0.475790 0.323120 -0.496569
O16   O     O_R   0.112930 0.637140 0.323120 -0.537816
O17   O     O_R   0.524210 0.887070 0.323120 -0.571422
O18   O     O_3   0.666667 0.333333 0.749450 -0.305563
O19   O     O_3   0.333333 0.666667 0.250550 -0.317909
O20   O     O_3   0.844239 0.278267 0.406400 -0.557736
O21   O     O_3   0.670334 0.608744 0.436157 -0.516508
O22   O     O_3   0.353651 0.071932 0.430815 -0.560736
O23   O     O_R   0.658380 0.565900 0.829780 -0.491549
O24   O     O_3   0.292540 0.859894 0.577249 -0.518277
O25   O     O_3   0.571450 0.722744 0.589827 -0.526305
O26   O     O_3   0.050633 0.373798 0.563035 -0.527356
O27   O     O_3   0.072155 0.621009 0.469092 -0.703944
O28   O     O_3   0.334816 0.561817 0.472772 -0.655180
O29   O     O_3   0.530715 0.885579 0.468093 -0.699653
O30   O     O_3   0.630678 0.146086 0.536861 -0.744048
O31   O     O_3   0.451223 0.376202 0.530839 -0.702429
O32   O     O_3   0.787260 0.459160 0.527444 -0.684355
O33   O     O_3   0.116136 0.740522 0.058216 -0.667383
O34   O     O_R   0.092480 0.434100 0.170220 -0.490345
O35   O     O_3   0.260976 0.369745 0.057579 -0.667388
O36   O     O_3   0.626245 0.885723 0.057298 -0.667691
O37   O     O_3   0.740782 0.116313 0.943209 -0.677277
O38   O     O_3   0.375707 0.257745 0.940954 -0.676497
O39   O     O_3   0.884574 0.625555 0.942878 -0.697009
O40   O     O_3   0.896816 0.367486 0.057202 -0.703650
O41   O     O_3   0.637856 0.531278 0.065220 -0.694372
O42   O     O_3   0.469331 0.102555 0.058597 -0.709742
O43   O     O_3   0.367699 0.897541 0.941430 -0.692788
O44   O     O_3   0.532538 0.631166 0.944856 -0.690246
O45   O     O_R   0.341620 0.907520 0.170220 -0.484832
O46   O     O_3   0.104027 0.471305 0.941966 -0.689596
O47   O     O_R   0.565900 0.658380 0.170220 -0.445104
O48   O     O_R   0.477510 0.362730 0.824640 -0.449409
O49   O     O_R   0.637270 0.114780 0.824640 -0.465091
O50   O     O_R   0.885220 0.522490 0.824640 -0.457847

loop_
_geom_bond_atom_site_label_1
_geom_bond_atom_site_label_2
_ccdc_geom_bond_type
C15   O24   S    
C41   O5    A    
C5    C42   S    
C4    C8    S    
C1    O48   A    
C17   O26   S    
C27   O36   S    
C32   H33   S    
Cr3   O50   S    
Cr1   O5    S    
Cr6   O10   S    
C12   O1    A    
Cr5   O45   S    
C7    O30   S    
Cr1   O48   S    
H13   O28   S    
Cr3   O14   S    
C42   O14   A    
H26   O41   S    
C5    C17   D    
C19   O44   S    
C24   O40   S    
C23   O12   A    
Cr4   O34   S    
C34   O2    A    
C9    C13   D    
C36   H5    S    
H15   O30   S    
C3    O16   A    
H18   O33   S    
Cr1   O11   S    
Cr6   O4    S    
Cr6   O47   S    
C11   O20   S    
C18   C30   D    
C33   H34   S    
C37   H10   S    
C9    O28   S    
C31   H23   S    
C21   C27   D    
H16   O31   S    
C4    O17   A    
C37   H8    S    
C39   O4    A    
C31   H1    S    
C16   O25   S    
C22   C34   S    
C1    C19   S    
Cr5   O19   S    
C18   C23   S    
Cr1   O1    S    
C2    O10   A    
C24   C25   D    
H14   O29   S    
C13   O21   S    
Cr3   O18   S    
Cr2   O18   S    
C28   O37   S    
C22   O41   S    
C39   O45   A    
Cr6   O19   S    
Cr5   O16   S    
C3    O8    A    
C42   O6    A    
Cr5   O3    S    
C31   H12   S    
Cr2   O12   S    
C32   H32   S    
Cr2   O13   S    
H22   O38   S    
C24   C38   S    
C21   C39   S    
H21   O37   S    
H25   O40   S    
C29   O38   S    
C12   C20   S    
C35   H2    S    
Cr5   O9    S    
C10   O27   S    
C26   O35   S    
C33   H35   S    
C37   O26   S    
H29   O44   S    
C8    O29   S    
C1    O23   A    
C2    O15   A    
C12   O49   A    
H24   O39   S    
C35   H3    S    
H17   O32   S    
C41   O13   A    
C18   O46   S    
C40   O11   A    
C19   C29   D    
C27   C28   S    
Cr2   O6    S    
C20   O43   S    
C35   O24   S    
C25   C30   S    
C11   C17   S    
C8    C14   D    
C23   O50   A    
C33   O22   S    
C36   O25   S    
C25   O33   S    
C34   O47   A    
C20   C28   D    
Cr4   O19   S    
C38   O3    A    
C32   O21   S    
H27   O42   S    
C31   O20   S    
Cr4   O15   S    
H30   O46   S    
Cr1   O18   S    
C5    O32   S    
C3    C10   S    
H20   O36   S    
C32   H31   S    
C35   H4    S    
Cr6   O17   S    
Cr2   O49   S    
C7    C15   D    
C6    C40   S    
C7    C41   S    
C40   O7    A    
Cr3   O7    S    
C33   H36   S    
C6    O31   S    
C36   H6    S    
C10   C11   D    
C6    C16   D    
C4    O9    A    
C38   O34   A    
C14   O22   S    
Cr4   O8    S    
C30   O39   S    
C26   C29   S    
C22   C26   D    
C13   C16   S    
H11   O27   S    
C36   H7    S    
H28   O43   S    
C14   C15   S    
C21   O42   S    
C2    C9    S    
H19   O35   S    
C37   H9    S    
Cr3   O23   S    
Cr4   O2    S    
