data_mof_unit_27525.cif
_audit_creation_date              2012-12-10T18:02:53-0500
_audit_creation_method            fapswitch 2.2
_symmetry_space_group_name_H-M    P1
_symmetry_Int_Tables_number       1
_space_group_crystal_system       triclinic
_cell_length_a                    10.778924
_cell_length_b                    9.506211
_cell_length_c                    27.813278
_cell_angle_alpha                 89.974471
_cell_angle_beta                  90.114527
_cell_angle_gamma                 90.239306
_cell_volume                      2849.90470932

loop_
_atom_site_label
_atom_site_type_symbol
_atom_type_description
_atom_site_fract_x
_atom_site_fract_y
_atom_site_fract_z
_atom_type_partial_charge
C1    C     C_R   0.262415 0.499663 0.499538 0.848259
C2    C     C_R   0.737571 0.500345 0.500510 0.849504
C3    C     C_R   0.503423 0.481017 0.101416 -0.048707
C4    C     C_R   0.500793 0.483724 0.898442 -0.046561
C5    C     C_R   0.391760 0.459274 0.126652 -0.016823
C6    C     C_R   0.610782 0.455009 0.873038 -0.018615
C7    C     C_R   0.281633 0.437572 0.101021 -0.145076
C8    C     C_R   0.719850 0.426800 0.898464 -0.159152
C9    C     C_R   0.614757 0.499048 0.127151 -0.059418
C10   C     C_R   0.390693 0.509810 0.872834 -0.087289
C11   C     C_R   0.499197 0.499031 0.353949 -0.083811
C12   C     C_R   0.502738 0.499144 0.645902 -0.080573
C13   C     C_R   0.387914 0.503586 0.974707 -0.006716
C14   C     C_R   0.617542 0.493003 0.025244 0.037646
C15   C     C_R   0.615291 0.473249 0.974586 0.067068
C16   C     C_R   0.388985 0.480656 0.025214 0.053967
C17   C     C_R   0.501206 0.486853 0.949382 0.034633
C18   C     C_R   0.503456 0.485047 0.050488 0.034444
C19   C     C_R   0.279785 0.543023 0.948068 0.135431
C20   C     C_R   0.727909 0.521696 0.051861 0.132775
C21   C     C_R   0.282406 0.542294 0.897923 -0.115862
C22   C     C_R   0.725294 0.522136 0.102152 -0.194877
C23   C     C_R   0.499462 0.500123 0.407258 0.842054
C24   C     C_R   0.501292 0.500079 0.592688 0.843195
C25   C     C_R   0.280654 0.446347 0.051123 -0.222229
C26   C     C_R   0.721854 0.434545 0.948361 -0.156072
C27   C     C_R   0.062931 0.428310 0.463049 0.057185
C28   C     C_R   0.937009 0.571731 0.537028 0.056185
C29   C     C_R   0.933582 0.429462 0.463535 0.144934
C30   C     C_R   0.066373 0.570594 0.536535 0.143449
C31   C     C_R   0.871334 0.500990 0.500385 -0.136112
C32   C     C_R   0.128628 0.499041 0.499686 -0.136481
C33   C     C_R   0.427117 0.074124 0.468547 -0.024208
C34   C     C_R   0.573082 0.925891 0.531375 -0.011826
C35   C     C_R   0.573046 0.074777 0.531398 -0.018206
C36   C     C_R   0.426930 0.925227 0.468609 -0.000748
C37   C     C_R   0.393414 0.458343 0.177094 0.579360
C38   C     C_R   0.608589 0.454057 0.822595 0.586619
C39   C     C_R   0.612077 0.498419 0.177617 0.595974
C40   C     C_R   0.392841 0.508950 0.822358 0.594970
C41   C     C_R   0.512668 0.362470 0.279922 0.155266
C42   C     C_R   0.473092 0.367169 0.720191 0.154017
C43   C     C_R   0.511759 0.369518 0.330063 -0.328073
C44   C     C_R   0.473528 0.373402 0.670026 -0.331865
C45   C     C_R   0.486602 0.623882 0.326503 0.087512
C46   C     C_R   0.533355 0.620633 0.672970 0.087753
C47   C     C_R   0.487740 0.616408 0.275761 0.098774
C48   C     C_R   0.532308 0.614232 0.723722 0.100665
C49   C     C_R   0.500904 0.485846 0.252861 0.367232
C50   C     C_R   0.502063 0.487613 0.746952 0.365810
Cu1   Cu    Cu3+1 0.500000 0.640660 0.500000 0.971885
Cu2   Cu    Cu3+1 0.500000 0.359340 0.500000 0.946640
H1    H     H_    0.369014 0.129993 0.443285 0.111948
H2    H     H_    0.631581 0.870059 0.556489 0.129298
H3    H     H_    0.631583 0.131208 0.556527 0.122774
H4    H     H_    0.368280 0.868800 0.443524 0.133212
H5    H     H_    0.195510 0.413958 0.119405 0.184756
H6    H     H_    0.804409 0.398500 0.879900 0.189197
H7    H     H_    0.450011 0.279236 0.649986 0.177659
H8    H     H_    0.521484 0.272646 0.350241 0.178889
H9    H     H_    0.199104 0.571988 0.878587 0.200539
H10   H     H_    0.810686 0.543419 0.121519 0.189627
H11   H     H_    0.194813 0.420757 0.033244 0.145226
H12   H     H_    0.806706 0.403076 0.965837 0.172158
N1    N     N_R   0.502357 0.479188 0.201361 -0.431244
N2    N     N_R   0.500855 0.481920 0.798468 -0.430083
N3    N     N_R   0.500000 0.852070 0.500000 -0.159885
N4    N     N_R   0.500000 0.147930 0.500000 -0.157948
O1    O     O_R   0.319640 0.618740 0.500000 -0.566248
O2    O     O_R   0.680360 0.381260 0.500000 -0.564169
O3    O     O_R   0.680360 0.618740 0.500000 -0.595127
O4    O     O_R   0.319640 0.381260 0.500000 -0.594569
O5    O     O_R   0.500020 0.618770 0.430260 -0.550009
O6    O     O_R   0.499980 0.381230 0.569740 -0.600577
O7    O     O_R   0.499980 0.618770 0.569740 -0.545222
O8    O     O_R   0.500020 0.381230 0.430260 -0.594685
O9    O     O_2   0.287086 0.438266 0.201745 -0.536609
O10   O     O_2   0.713242 0.426728 0.797799 -0.535909
O11   O     O_2   0.288227 0.535738 0.797293 -0.535782
O12   O     O_2   0.717925 0.517583 0.202820 -0.536172
N5    N     N_3   0.471779 0.757104 0.350003 -0.578122
H13   H     H_    0.387505 0.801163 0.339249 0.208498
H14   H     H_    0.544073 0.823988 0.339587 0.219711
N6    N     N_3   0.567543 0.748714 0.649004 -0.586324
H15   H     H_    0.657511 0.776796 0.659400 0.214344
H16   H     H_    0.506557 0.828227 0.659394 0.219455
N7    N     N_3   0.475435 0.740420 0.246766 -0.579348
H17   H     H_    0.391099 0.788668 0.254862 0.225916
H18   H     H_    0.547749 0.809762 0.255182 0.226706
N8    N     N_3   0.561818 0.735288 0.752376 -0.576066
H19   H     H_    0.651594 0.768921 0.743950 0.231652
H20   H     H_    0.499572 0.815625 0.743929 0.223835
N9    N     N_3   0.443023 0.238366 0.744274 -0.568040
H21   H     H_    0.354276 0.207179 0.733272 0.232492
H22   H     H_    0.505626 0.161584 0.732898 0.219914
N10   N     N_3   0.525913 0.229797 0.256171 -0.570039
H23   H     H_    0.609203 0.184707 0.267627 0.226091
H24   H     H_    0.453430 0.164175 0.267371 0.223112
N11   N     N_3   0.172771 0.606359 0.969657 -0.593125
H25   H     H_    0.195231 0.657145 0.001838 0.239620
H26   H     H_    0.103642 0.530346 0.974483 0.216928
N12   N     N_3   0.840367 0.565044 0.028637 -0.606610
H27   H     H_    0.862478 0.666699 0.040280 0.237095
H28   H     H_    0.911598 0.498103 0.039827 0.204965
N13   N     N_3   0.125577 0.358545 0.424345 -0.594674
H29   H     H_    0.176152 0.274517 0.438384 0.231154
H30   H     H_    0.186823 0.429583 0.408085 0.214831
N14   N     N_3   0.874337 0.641482 0.575738 -0.597031
H31   H     H_    0.823701 0.725475 0.561709 0.233006
H32   H     H_    0.813117 0.570442 0.592011 0.217101
N15   N     N_3   0.864389 0.360593 0.426099 -0.567600
H33   H     H_    0.888725 0.254241 0.425800 0.241687
H34   H     H_    0.889973 0.404806 0.393130 0.243631
N16   N     N_3   0.135568 0.639495 0.573960 -0.565208
H35   H     H_    0.111214 0.745843 0.574249 0.242212
H36   H     H_    0.109976 0.595308 0.606933 0.243281

loop_
_geom_bond_atom_site_label_1
_geom_bond_atom_site_label_2
_ccdc_geom_bond_type
N7    H17   S    
N9    H21   S    
C5    C37   A    
C27   C29   A    
C42   N9    S    
C8    C26   A    
C14   C18   A    
N15   H33   S    
C23   O8    A    
N5    H13   S    
C36   N3    A    
C47   C49   A    
N13   H30   S    
C49   N1    S    
C36   H4    S    
C19   C21   A    
N6    H16   S    
Cu2   O6    S    
C9    C22   A    
C41   N10   S    
C20   N12   S    
C27   N13   S    
C44   H7    S    
C9    C39   A    
C33   C36   A    
N14   H31   S    
C3    C18   A    
C10   C40   A    
C34   C35   A    
C25   H11   S    
C26   H12   S    
C8    H6    S    
C38   N2    A    
C37   N1    A    
C6    C38   A    
C11   C43   A    
C41   C43   A    
C21   H9    S    
Cu2   N4    S    
C48   C50   A    
N9    H22   S    
C40   N2    A    
C39   N1    A    
C42   C44   A    
C23   O5    A    
C41   C49   A    
N5    H14   S    
N16   H35   S    
C45   C47   A    
C10   C21   A    
C33   H1    S    
C46   C48   A    
C1    O4    A    
C13   C19   A    
C35   H3    S    
Cu1   Cu2   S    
C14   C20   A    
N6    H15   S    
C4    C6    A    
C5    C7    A    
C19   N11   S    
C15   C26   A    
C6    C8    A    
C38   O10   S    
C3    C5    A    
C37   O9    S    
C1    C32   S    
C1    O1    A    
N10   H24   S    
C2    C31   S    
C47   N7    S    
C3    C9    A    
C22   H10   S    
N8    H20   S    
N11   H25   S    
N10   H23   S    
C40   O11   S    
N15   H34   S    
Cu1   N3    S    
N12   H28   S    
C50   N2    S    
C43   H8    S    
C42   C50   A    
C46   N6    S    
C4    C17   A    
C12   C46   A    
N11   H26   S    
C20   C22   A    
C34   H2    S    
N7    H18   S    
C11   C45   A    
C4    C10   A    
C2    O3    A    
C30   N16   S    
C16   C25   A    
C15   C17   A    
C27   C32   A    
C29   N15   S    
C28   C31   A    
C45   N5    S    
Cu1   O5    S    
Cu1   O7    S    
Cu2   O8    S    
C34   N3    A    
N16   H36   S    
Cu1   O3    S    
C24   O7    A    
N13   H29   S    
C12   C24   S    
C7    C25   A    
C13   C17   A    
C39   O12   S    
C28   C30   A    
C29   C31   A    
C30   C32   A    
C24   O6    A    
N8    H19   S    
C35   N4    A    
C28   N14   S    
C11   C23   S    
N14   H32   S    
N12   H27   S    
Cu2   O2    S    
Cu2   O4    S    
C16   C18   A    
C13   C16   A    
C14   C15   A    
C12   C44   A    
C48   N8    S    
Cu1   O1    S    
C2    O2    A    
C7    H5    S    
C33   N4    A    
