data_mof_unit_34811.cif
_audit_creation_date              2012-12-11T17:35:15-0500
_audit_creation_method            fapswitch 2.2
_symmetry_space_group_name_H-M    P1
_symmetry_Int_Tables_number       1
_space_group_crystal_system       triclinic
_cell_length_a                    24.093672
_cell_length_b                    7.107335
_cell_length_c                    22.472302
_cell_angle_alpha                 89.999865
_cell_angle_beta                  99.823226
_cell_angle_gamma                 89.999905
_cell_volume                      3791.77828992

loop_
_atom_site_label
_atom_site_type_symbol
_atom_type_description
_atom_site_fract_x
_atom_site_fract_y
_atom_site_fract_z
_atom_type_partial_charge
O1    O     O_R   0.801940 0.607920 0.199180 -0.556374
O2    O     O_R   0.198060 0.392080 0.800820 -0.552622
O3    O     O_R   0.698060 0.107920 0.300820 -0.556382
O4    O     O_R   0.301940 0.892080 0.699180 -0.552622
O5    O     O_R   0.687840 0.274940 0.181980 -0.531590
O6    O     O_R   0.312160 0.725060 0.818020 -0.543611
O7    O     O_R   0.812160 0.774940 0.318020 -0.531583
O8    O     O_R   0.187840 0.225060 0.681980 -0.543611
C1    C     C_R   0.668034 0.446575 0.166056 0.746768
C2    C     C_R   0.331395 0.553487 0.834641 0.739883
C3    C     C_R   0.831966 0.946574 0.333943 0.746784
C4    C     C_R   0.168605 0.053487 0.665358 0.739883
O9    O     O_R   0.800890 0.278000 0.191820 -0.534859
O10   O     O_R   0.199110 0.722000 0.808180 -0.532586
O11   O     O_R   0.699110 0.778000 0.308180 -0.534856
O12   O     O_R   0.300890 0.222000 0.691820 -0.532586
O13   O     O_R   0.811910 0.110860 0.310720 -0.516980
O14   O     O_R   0.188090 0.889140 0.689280 -0.533123
O15   O     O_R   0.688090 0.610860 0.189280 -0.516963
O16   O     O_R   0.311910 0.389140 0.810720 -0.533124
C5    C     C_R   0.817870 0.448202 0.177537 0.758138
C6    C     C_R   0.182399 0.551644 0.822735 0.755626
C7    C     C_R   0.682130 0.948202 0.322463 0.758153
C8    C     C_R   0.317601 0.051644 0.677265 0.755624
O17   O     O_3   0.753490 0.442410 0.289000 -0.371915
O18   O     O_3   0.246510 0.557590 0.711000 -0.377828
O19   O     O_3   0.746510 0.942410 0.211000 -0.371905
O20   O     O_3   0.253490 0.057590 0.789000 -0.377828
V1    V     V_3+5 0.749350 0.166330 0.242770 1.561635
V2    V     V_3+5 0.250650 0.833670 0.757230 1.482381
V3    V     V_3+5 0.750650 0.666330 0.257230 1.561653
V4    V     V_3+5 0.249350 0.333670 0.742770 1.482380
C9    C     C_R   0.401039 0.182278 0.550274 -0.052727
C10   C     C_R   0.597510 0.819407 0.448773 -0.055651
C11   C     C_R   0.098959 0.682276 0.949724 -0.052728
C12   C     C_R   0.902487 0.319406 0.051224 -0.055648
C13   C     C_R   0.359146 0.183693 0.588274 -0.088579
C14   C     C_R   0.639522 0.816413 0.410908 -0.097995
C15   C     C_R   0.140853 0.683692 0.911725 -0.088579
C16   C     C_R   0.860475 0.316415 0.089090 -0.098008
C17   C     C_R   0.357183 0.037159 0.631714 -0.102057
C18   C     C_R   0.641936 0.962450 0.367401 -0.107896
C19   C     C_R   0.142816 0.537158 0.868285 -0.102058
C20   C     C_R   0.858063 0.462451 0.132598 -0.107896
C21   C     C_R   0.394802 0.880781 0.631644 -0.027152
C22   C     C_R   0.603988 0.118169 0.366581 -0.012938
C23   C     C_R   0.105197 0.380781 0.868355 -0.027153
C24   C     C_R   0.896011 0.618168 0.133417 -0.012933
C25   C     C_R   0.434433 0.880816 0.592722 -0.108971
C26   C     C_R   0.564149 0.119599 0.405224 -0.117590
C27   C     C_R   0.065566 0.380815 0.907276 -0.108969
C28   C     C_R   0.935850 0.619595 0.094774 -0.117592
H1    H     H_    0.462621 0.761576 0.592735 0.182313
H2    H     H_    0.535800 0.238716 0.404464 0.181076
H3    H     H_    0.037378 0.261574 0.907262 0.182313
H4    H     H_    0.964200 0.738711 0.095534 0.181081
C29   C     C_R   0.438435 0.027695 0.552939 0.051757
C30   C     C_R   0.560143 0.974264 0.445562 0.049312
C31   C     C_R   0.061563 0.527692 0.947060 0.051757
C32   C     C_R   0.939856 0.474260 0.054436 0.049312
C33   C     C_1   0.481306 0.010703 0.514852 0.103931
C34   C     C_1   0.517169 0.992472 0.483475 0.102626
C35   C     C_1   0.018692 0.510699 0.985145 0.103931
C36   C     C_1   0.982830 0.492467 0.016523 0.102632
C37   C     C_R   0.932153 0.856140 0.378512 -0.111692
C38   C     C_R   0.072916 0.161140 0.612723 -0.132818
C39   C     C_R   0.567849 0.356139 0.121486 -0.111681
C40   C     C_R   0.427085 0.661136 0.887275 -0.132814
C41   C     C_R   0.882479 0.958889 0.382908 -0.113906
C42   C     C_R   0.121275 0.047741 0.612537 -0.151741
C43   C     C_R   0.617522 0.458890 0.117091 -0.113921
C44   C     C_R   0.378725 0.547739 0.887462 -0.151741
C45   C     C_R   0.882189 0.081500 0.432658 -0.010466
C46   C     C_R   0.124611 0.932627 0.561550 -0.032006
C47   C     C_R   0.617812 0.581499 0.067341 -0.010452
C48   C     C_R   0.375389 0.432627 0.938450 -0.032008
C49   C     C_R   0.933977 0.131187 0.470077 0.005304
C50   C     C_R   0.080471 0.936593 0.509999 -0.008927
C51   C     C_R   0.566025 0.631180 0.029919 0.005290
C52   C     C_R   0.419530 0.436592 0.990000 -0.008924
C53   C     C_R   0.983047 0.024525 0.466663 0.053455
C54   C     C_R   0.031340 0.043884 0.512415 0.049293
C55   C     C_R   0.516954 0.524522 0.033335 0.053472
C56   C     C_R   0.468661 0.543881 0.987582 0.049300
C57   C     C_R   0.983719 0.897250 0.418287 0.026777
C58   C     C_R   0.030370 0.171922 0.560334 0.035880
C59   C     C_R   0.516282 0.397249 0.081711 0.026788
C60   C     C_R   0.469631 0.671917 0.939663 0.035874
C61   C     C_R   0.939180 0.291916 0.508711 -0.073775
C62   C     C_R   0.085195 0.848050 0.454114 -0.108589
C63   C     C_R   0.560823 0.791901 0.991282 -0.073786
C64   C     C_R   0.414806 0.348050 0.045885 -0.108586
C65   C     C_R   0.988302 0.314408 0.553001 -0.038981
C66   C     C_R   0.036970 0.827884 0.408462 -0.066709
C67   C     C_R   0.511700 0.814401 0.946995 -0.038982
C68   C     C_R   0.463032 0.327882 0.091537 -0.066710
C69   C     C_2   0.404508 0.340769 0.507326 0.430928
H5    H     H_    0.389952 0.480169 0.516560 0.033569
O21   O     O_2   0.423163 0.317843 0.460638 -0.507887
C70   C     C_2   0.593880 0.662164 0.492152 0.420343
H6    H     H_    0.608583 0.522496 0.483475 0.033224
O22   O     O_2   0.574975 0.686466 0.538623 -0.508354
C71   C     C_2   0.095490 0.840765 0.992673 0.430931
H7    H     H_    0.110046 0.980166 0.983439 0.033569
O23   O     O_2   0.076834 0.817838 0.039360 -0.507887
C72   C     C_2   0.906115 0.162163 0.007846 0.420340
H8    H     H_    0.891408 0.022500 0.016519 0.033224
O24   O     O_2   0.925025 0.186460 0.961377 -0.508356
C73   C     C_2   0.314061 0.328945 0.577747 0.461706
H9    H     H_    0.324364 0.476526 0.574516 0.007048
O25   O     O_2   0.264511 0.283294 0.571003 -0.487342
C74   C     C_2   0.683924 0.668896 0.421314 0.446737
H10   H     H_    0.672842 0.521715 0.423737 0.007930
O26   O     O_2   0.733697 0.711981 0.428825 -0.487721
C75   C     C_2   0.185937 0.828944 0.922253 0.461708
H11   H     H_    0.175633 0.976525 0.925483 0.007046
O27   O     O_2   0.235487 0.783294 0.928997 -0.487341
C76   C     C_2   0.816071 0.168907 0.078683 0.446712
H12   H     H_    0.827151 0.021724 0.076259 0.007959
O28   O     O_2   0.766299 0.212002 0.071173 -0.487743
C77   C     C_2   0.394388 0.709308 0.669605 0.335617
H13   H     H_    0.355688 0.646723 0.678184 0.073786
O29   O     O_2   0.438282 0.627403 0.689163 -0.491425
C78   C     C_2   0.604003 0.286939 0.327505 0.286054
H14   H     H_    0.642694 0.353570 0.320532 0.079688
O30   O     O_2   0.559656 0.360796 0.304738 -0.533567
C79   C     C_2   0.105611 0.209310 0.830393 0.335620
H15   H     H_    0.144311 0.146724 0.821814 0.073786
O31   O     O_2   0.061717 0.127407 0.810834 -0.491423
C80   C     C_2   0.895996 0.786940 0.172493 0.286058
H16   H     H_    0.857304 0.853570 0.179466 0.079692
O32   O     O_2   0.940343 0.860800 0.195258 -0.533565
C81   C     C_2   0.927605 0.691277 0.337082 0.489255
H17   H     H_    0.904339 0.701344 0.291631 0.022151
O33   O     O_2   0.948518 0.540143 0.354387 -0.490982
C82   C     C_2   0.062470 0.241805 0.671099 0.451477
H18   H     H_    0.096214 0.301985 0.703389 0.025571
O34   O     O_2   0.015397 0.236727 0.684372 -0.455315
C83   C     C_2   0.572397 0.191271 0.162914 0.489252
H19   H     H_    0.595661 0.201335 0.208367 0.022153
O35   O     O_2   0.551486 0.040137 0.145607 -0.490981
C84   C     C_2   0.437530 0.741798 0.828898 0.451455
H20   H     H_    0.403785 0.801973 0.796607 0.025577
O36   O     O_2   0.484603 0.736725 0.815625 -0.455325
C85   C     C_2   0.828017 0.126317 0.453998 0.493328
H21   H     H_    0.828754 0.166029 0.500737 0.039902
O37   O     O_2   0.782227 0.115597 0.421289 -0.518081
C86   C     C_2   0.171185 0.793609 0.564794 0.470922
H22   H     H_    0.161653 0.648423 0.551915 0.016695
O38   O     O_2   0.220314 0.841681 0.578951 -0.497698
C87   C     C_2   0.671984 0.626313 0.046001 0.493308
H23   H     H_    0.671249 0.665931 0.999254 0.039886
O39   O     O_2   0.717771 0.615713 0.078721 -0.518072
C88   C     C_2   0.328815 0.293610 0.935206 0.470922
H24   H     H_    0.338348 0.148424 0.948085 0.016696
O40   O     O_2   0.279686 0.341684 0.921049 -0.497698
C89   C     C_2   0.897465 0.448452 0.497514 0.402037
H25   H     H_    0.882921 0.518940 0.534690 0.126543
O41   O     O_2   0.878485 0.498972 0.446163 -0.496821
C90   C     C_2   0.141504 0.807880 0.438353 0.456563
H26   H     H_    0.151094 0.669922 0.422212 0.113623
O42   O     O_2   0.177337 0.930974 0.442683 -0.473155
C91   C     C_2   0.602542 0.948424 0.002472 0.402117
H27   H     H_    0.617097 0.018860 0.965292 0.126516
O43   O     O_2   0.621516 0.998986 0.053820 -0.496806
C92   C     C_2   0.358498 0.307883 0.061647 0.456561
H28   H     H_    0.348908 0.169925 0.077788 0.113624
O44   O     O_2   0.322665 0.430978 0.057317 -0.473154
C93   C     C_2   0.001849 0.499424 0.583689 0.447923
H29   H     H_    0.044978 0.550331 0.590795 0.005351
O45   O     O_2   0.966462 0.591846 0.603572 -0.505243
C94   C     C_2   0.044305 0.768550 0.346610 0.472062
H30   H     H_    0.023154 0.846238 0.307671 0.088288
O46   O     O_2   0.071762 0.629414 0.338483 -0.498291
C95   C     C_2   0.498151 0.999420 0.916308 0.447962
H31   H     H_    0.455020 0.050312 0.909195 0.005346
O47   O     O_2   0.533539 0.091866 0.896436 -0.505257
C96   C     C_2   0.455697 0.268543 0.153389 0.472048
H32   H     H_    0.476848 0.346230 0.192328 0.088292
O48   O     O_2   0.428241 0.129405 0.161514 -0.498290

loop_
_geom_bond_atom_site_label_1
_geom_bond_atom_site_label_2
_ccdc_geom_bond_type
O17   V3    S    
C55   C59   A    
C30   C34   S    
C89   H25   S    
O19   V1    S    
O13   V1    S    
C93   H29   S    
O1    C5    A    
C16   C76   S    
C91   H27   S    
O1    V3    S    
C44   C48   A    
O15   V3    S    
C22   C78   S    
C74   O26   D    
C85   H21   S    
O4    V2    S    
C95   O47   D    
C38   C42   A    
C50   C62   A    
O7    C3    A    
C49   C61   A    
O5    C1    A    
C26   H2    S    
C7    C18   S    
C46   C86   S    
C91   O43   D    
C86   O38   D    
C14   C18   A    
C11   C71   S    
C73   O25   D    
O4    C8    A    
C10   C30   A    
C37   C41   A    
C72   H8    S    
C75   H11   S    
C69   H5    S    
C64   C68   A    
C25   C29   A    
O2    V4    S    
C18   C22   A    
O3    V1    S    
C67   C95   S    
C76   H12   S    
C28   C32   A    
C66   C94   S    
C28   H4    S    
O3    C7    A    
C1    O15   A    
C95   H31   S    
C2    O16   A    
C75   O27   D    
O2    C6    A    
C10   C70   S    
C87   H23   S    
C41   C45   A    
C80   O32   D    
O14   V2    S    
C21   C25   A    
C39   C83   S    
C16   C20   A    
C88   O40   D    
C52   C56   A    
O11   C7    A    
C60   C67   A    
C89   O41   D    
C92   O44   D    
C8    C17   S    
C93   O45   D    
C63   C91   S    
O10   V2    S    
C74   H10   S    
C69   O21   D    
C94   O46   D    
C62   C66   A    
O5    V1    S    
C62   C90   S    
C11   C31   A    
C43   C47   A    
O7    V3    S    
C85   O37   D    
C12   C72   S    
C51   C63   A    
O8    V4    S    
C96   H32   S    
C12   C16   A    
C86   H22   S    
C82   O34   D    
C47   C87   S    
O18   V4    S    
C23   C27   A    
C27   H3    S    
C21   C77   S    
C54   C58   A    
O11   V3    S    
C61   C65   A    
C53   C54   A    
C45   C85   S    
C40   C44   A    
C90   O42   D    
C52   C64   A    
C11   C15   A    
C79   O31   D    
C42   C46   A    
C58   C65   A    
C5    C20   S    
C57   C66   A    
C50   C54   A    
C96   O48   D    
C55   C56   A    
C49   C53   A    
O8    C4    A    
C65   C93   S    
C59   C68   A    
C70   O22   D    
C77   H13   S    
C26   C30   A    
O9    C5    A    
C61   C89   S    
C71   O23   D    
C40   C84   S    
C88   H24   S    
C37   C81   S    
C76   O28   D    
O6    V2    S    
C19   C23   A    
C15   C75   S    
C92   H28   S    
C40   C60   A    
C84   O36   D    
C1    C43   S    
C48   C52   A    
C14   C74   S    
C79   H15   S    
C94   H30   S    
C78   O30   D    
O16   V4    S    
O9    V1    S    
C4    C42   S    
C3    O13   A    
C9    C29   A    
C10   C14   A    
C13   C73   S    
C56   C60   A    
C82   H18   S    
C12   C32   A    
C38   C58   A    
C15   C19   A    
C83   H19   S    
C3    C41   S    
C29   C33   S    
O12   V4    S    
C22   C26   A    
C31   C35   S    
C32   C36   S    
C90   H26   S    
O10   C6    A    
O20   V2    S    
C80   H16   S    
C37   C57   A    
C73   H9    S    
C51   C55   A    
C83   O35   D    
C81   H17   S    
C72   O24   D    
C23   C79   S    
C25   H1    S    
C48   C88   S    
C70   H6    S    
C38   C82   S    
C39   C43   A    
C87   O39   D    
C13   C17   A    
C33   C34   T    
C9    C13   A    
C77   O29   D    
O6    C2    A    
C63   C67   A    
C35   C36   T    
C64   C92   S    
C24   C28   A    
C27   C31   A    
C45   C49   A    
O12   C8    A    
C46   C50   A    
C4    O14   A    
C71   H7    S    
C81   O33   D    
C17   C21   A    
C84   H20   S    
C9    C69   S    
C68   C96   S    
C47   C51   A    
C6    C19   S    
C53   C57   A    
C20   C24   A    
C39   C59   A    
C24   C80   S    
C78   H14   S    
C2    C44   S    
