data_mof_unit_46830.cif
_audit_creation_date              2012-12-10T18:25:27-0500
_audit_creation_method            fapswitch 2.2
_symmetry_space_group_name_H-M    P1
_symmetry_Int_Tables_number       1
_space_group_crystal_system       triclinic
_cell_length_a                    26.168721
_cell_length_b                    26.00231
_cell_length_c                    18.425809
_cell_angle_alpha                 90.125403
_cell_angle_beta                  134.784512
_cell_angle_gamma                 89.637781
_cell_volume                      8898.613603

loop_
_atom_site_label
_atom_site_type_symbol
_atom_type_description
_atom_site_fract_x
_atom_site_fract_y
_atom_site_fract_z
_atom_type_partial_charge
C1    C     C_R   0.108628 0.249269 0.499153 0.821710
C2    C     C_R   0.110520 0.749237 0.502659 0.816152
C3    C     C_R   0.609880 0.750537 0.501447 0.819083
C4    C     C_R   0.612266 0.247300 0.505722 0.816014
C5    C     C_3   0.531128 0.248853 0.939631 0.119502
C6    C     C_3   0.531587 0.754569 0.938424 0.120670
C7    C     C_3   0.030149 0.749360 0.938652 0.118783
C8    C     C_3   0.031490 0.247193 0.939228 0.115205
C9    C     C_3   0.451349 0.247038 0.897385 -0.114498
C10   C     C_3   0.452333 0.752845 0.897658 -0.116810
C11   C     C_3   0.950863 0.747986 0.897622 -0.114629
C12   C     C_3   0.952092 0.252432 0.897637 -0.115470
C13   C     C_3   0.551778 0.249031 0.102102 -0.075147
C14   C     C_3   0.553511 0.751570 0.102433 -0.076118
C15   C     C_3   0.052130 0.749081 0.102416 -0.074310
C16   C     C_3   0.052335 0.251101 0.102273 -0.077821
C17   C     C_3   0.491844 0.293310 0.059795 0.288663
C18   C     C_3   0.498696 0.704256 0.062306 0.277383
C19   C     C_3   0.994147 0.794708 0.061721 0.286141
C20   C     C_3   0.991762 0.208412 0.061118 0.288727
C21   C     C_3   0.590013 0.258843 0.061238 0.133777
C22   C     C_3   0.592333 0.745952 0.061100 0.133781
C23   C     C_3   0.090294 0.757249 0.060996 0.130729
C24   C     C_3   0.090497 0.238717 0.061586 0.130188
C25   C     C_3   0.526909 0.258683 0.614885 -0.048420
C26   C     C_3   0.522790 0.720766 0.604061 -0.042971
C27   C     C_3   0.024876 0.770566 0.610365 -0.048046
C28   C     C_3   0.013401 0.209366 0.586553 -0.042655
C29   C     C_3   0.591994 0.248114 0.624527 0.228635
C30   C     C_3   0.577137 0.711223 0.592645 0.262628
C31   C     C_3   0.090621 0.763816 0.620400 0.240352
C32   C     C_3   0.068647 0.202098 0.575949 0.260653
C33   C     C_3   0.432598 0.288121 0.421083 -0.125400
C34   C     C_3   0.420371 0.726139 0.400520 -0.097989
C35   C     C_3   0.924810 0.780412 0.409239 -0.115542
C36   C     C_3   0.914159 0.229672 0.388466 -0.100057
C37   C     C_3   0.453432 0.189788 0.466514 -0.076824
C38   C     C_3   0.474510 0.810639 0.509977 -0.065817
C39   C     C_3   0.966613 0.688231 0.492578 -0.079791
C40   C     C_3   0.979053 0.305699 0.520817 -0.075767
C41   C     C_3   0.449645 0.246319 0.500313 -0.190861
C42   C     C_3   0.451491 0.751908 0.504614 -0.175852
C43   C     C_3   0.951057 0.746553 0.503737 -0.191006
C44   C     C_3   0.948245 0.248252 0.498605 -0.180385
C45   C     C_R   0.391172 0.248943 0.500202 0.816656
C46   C     C_R   0.392386 0.751254 0.502815 0.805153
C47   C     C_R   0.892332 0.748030 0.502840 0.810282
C48   C     C_R   0.890330 0.249147 0.498849 0.811635
C49   C     C_3   0.555758 0.245778 0.507678 -0.015160
C50   C     C_3   0.553220 0.751028 0.503255 -0.010352
C51   C     C_3   0.054726 0.748429 0.506188 -0.017430
C52   C     C_3   0.050674 0.248134 0.498799 -0.014552
C53   C     C_3   0.502999 0.295649 0.442754 0.037171
C54   C     C_3   0.477308 0.732037 0.392279 0.044601
C55   C     C_3   0.991374 0.789568 0.422122 0.030430
C56   C     C_3   0.972446 0.236813 0.382727 0.054303
C57   C     C_3   0.508669 0.192189 0.454515 0.094280
C58   C     C_3   0.542455 0.809666 0.523488 0.063230
C59   C     C_3   0.020198 0.690302 0.477781 0.095740
C60   C     C_3   0.046807 0.304160 0.534570 0.053968
C61   C     C_3   0.248920 0.030491 0.586434 0.312504
C62   C     C_3   0.236353 0.969271 0.573192 0.284400
C63   C     C_3   0.728330 0.531109 0.563744 0.291830
C64   C     C_3   0.741527 0.469810 0.578732 0.287387
C65   C     C_3   0.321407 0.030027 0.531603 0.120605
C66   C     C_3   0.325487 0.968420 0.545263 0.098586
C67   C     C_3   0.826428 0.530959 0.552285 0.101882
C68   C     C_3   0.823616 0.469325 0.539988 0.117824
C69   C     C_3   0.176504 0.030774 0.385775 0.125389
C70   C     C_3   0.181854 0.969108 0.382217 0.151087
C71   C     C_3   0.684925 0.530967 0.379746 0.150096
C72   C     C_3   0.679162 0.469358 0.382581 0.129140
C73   C     C_3   0.248410 0.051048 0.499954 -0.110946
C74   C     C_3   0.248733 0.948509 0.500443 -0.111199
C75   C     C_3   0.747355 0.551462 0.498829 -0.109518
C76   C     C_3   0.747777 0.448901 0.499336 -0.108605
C77   C     C_3   0.247452 0.448680 0.497055 -0.024161
C78   C     C_3   0.250008 0.551144 0.499972 -0.035563
C79   C     C_3   0.748950 0.948777 0.497369 -0.023439
C80   C     C_3   0.751125 0.051219 0.499481 -0.019770
C81   C     C_3   0.283351 0.468260 0.459895 -0.146828
C82   C     C_3   0.273176 0.529528 0.445372 -0.149989
C83   C     C_3   0.700765 0.969768 0.383499 -0.144175
C84   C     C_3   0.695879 0.031329 0.383921 -0.128349
C85   C     C_3   0.167813 0.472689 0.419516 -0.029552
C86   C     C_3   0.171723 0.531360 0.439213 0.011176
C87   C     C_3   0.715486 0.970897 0.536544 0.004416
C88   C     C_3   0.726818 0.030593 0.551858 -0.016226
C89   C     C_R   0.249208 0.390797 0.500021 0.805446
C90   C     C_R   0.250164 0.609160 0.500072 0.787405
C91   C     C_R   0.749733 0.890830 0.498779 0.797737
C92   C     C_R   0.750459 0.109178 0.499988 0.783383
C93   C     C_3   0.293473 0.469377 0.608828 -0.206692
C94   C     C_3   0.303808 0.528821 0.612068 -0.187314
C95   C     C_3   0.828367 0.969222 0.566510 -0.205005
C96   C     C_3   0.828195 0.028476 0.556686 -0.221361
C97   C     C_R   0.248796 0.108988 0.499100 0.850191
C98   C     C_R   0.249536 0.890868 0.499969 0.850027
C99   C     C_R   0.748435 0.609134 0.498742 0.849057
C100  C     C_R   0.748632 0.391001 0.499007 0.848606
C101  C     C_R   0.109382 0.250343 0.218051 0.824881
C102  C     C_R   0.109616 0.749580 0.218228 0.817085
C103  C     C_R   0.610174 0.750967 0.218119 0.821321
C104  C     C_R   0.609172 0.249924 0.218122 0.815509
C105  C     C_R   0.392745 0.247932 0.781570 0.825680
C106  C     C_R   0.392967 0.751980 0.781807 0.837243
C107  C     C_R   0.892274 0.748505 0.781754 0.833561
C108  C     C_R   0.892968 0.251894 0.781774 0.828072
C109  C     C_3   0.446130 0.193631 0.939429 0.067507
C110  C     C_3   0.442668 0.804304 0.939194 0.075634
C111  C     C_3   0.944342 0.695130 0.939665 0.070349
C112  C     C_3   0.948399 0.307054 0.938980 0.064772
C113  C     C_3   0.512637 0.192069 0.062140 0.038143
C114  C     C_3   0.509057 0.806682 0.061361 0.043797
C115  C     C_3   0.010861 0.692994 0.061889 0.039412
C116  C     C_3   0.014306 0.308670 0.061520 0.050832
C117  C     C_3   0.437372 0.296641 0.937018 0.137389
C118  C     C_3   0.444243 0.700905 0.939667 0.132521
C119  C     C_3   0.939028 0.798250 0.938779 0.130805
C120  C     C_3   0.937580 0.204417 0.938648 0.143671
H1    H     H_    0.348246 0.451904 0.661451 0.142044
H2    H     H_    0.359357 0.535115 0.647072 0.143932
H3    H     H_    0.850763 0.952411 0.538028 0.154714
H4    H     H_    0.837707 0.036184 0.507671 0.151328
H5    H     H_    0.145583 0.469126 0.341394 0.153228
H6    H     H_    0.133133 0.549930 0.362284 0.173397
H7    H     H_    0.656239 0.965369 0.473527 0.164909
H8    H     H_    0.673406 0.048119 0.511237 0.152707
O1    O     O_3   0.249990 0.249990 0.500000 -0.490817
O2    O     O_3   0.249990 0.750010 0.500000 -0.492071
O3    O     O_3   0.749990 0.749990 0.500000 -0.492656
O4    O     O_3   0.749990 0.250010 0.500000 -0.493574
O5    O     O_R   0.311270 0.366840 0.561280 -0.644694
O6    O     O_R   0.311270 0.633160 0.561280 -0.638439
O7    O     O_R   0.811270 0.866840 0.561280 -0.637687
O8    O     O_R   0.811270 0.133160 0.561280 -0.636632
O9    O     O_R   0.249990 0.133140 0.561260 -0.663053
O10   O     O_R   0.249990 0.866860 0.561260 -0.661147
O11   O     O_R   0.749990 0.633140 0.561260 -0.660855
O12   O     O_R   0.749990 0.366860 0.561260 -0.661968
O13   O     O_R   0.102520 0.280640 0.438750 -0.649234
O14   O     O_R   0.102520 0.719360 0.438750 -0.638848
O15   O     O_R   0.602520 0.780640 0.438750 -0.646505
O16   O     O_R   0.602520 0.219360 0.438750 -0.642421
O17   O     O_R   0.336190 0.219350 0.438710 -0.639591
O18   O     O_R   0.336190 0.780650 0.438710 -0.635112
O19   O     O_R   0.836190 0.719350 0.438710 -0.638779
O20   O     O_R   0.836190 0.280650 0.438710 -0.633428
O21   O     O_R   0.163790 0.219360 0.561280 -0.652619
O22   O     O_R   0.163790 0.780640 0.561280 -0.651671
O23   O     O_R   0.663790 0.719360 0.561280 -0.657320
O24   O     O_R   0.663790 0.280640 0.561280 -0.651362
O25   O     O_R   0.397470 0.280620 0.561260 -0.635187
O26   O     O_R   0.397470 0.719380 0.561260 -0.641660
O27   O     O_R   0.897470 0.780620 0.561260 -0.639611
O28   O     O_R   0.897470 0.219380 0.561260 -0.643554
O29   O     O_R   0.188730 0.366850 0.438750 -0.643900
O30   O     O_R   0.188730 0.633150 0.438750 -0.646703
O31   O     O_R   0.688730 0.866850 0.438750 -0.636791
O32   O     O_R   0.688730 0.133150 0.438750 -0.646155
O33   O     O_R   0.249980 0.133140 0.438710 -0.657467
O34   O     O_R   0.249980 0.866860 0.438710 -0.657899
O35   O     O_R   0.749980 0.633140 0.438710 -0.656979
O36   O     O_R   0.749980 0.366860 0.438710 -0.656776
O37   O     O_R   0.102500 0.280640 0.266310 -0.653516
O38   O     O_R   0.102500 0.719360 0.266310 -0.646268
O39   O     O_R   0.602500 0.780640 0.266310 -0.648608
O40   O     O_R   0.602500 0.219360 0.266310 -0.644655
O41   O     O_R   0.336220 0.219350 0.733700 -0.646521
O42   O     O_R   0.336220 0.780650 0.733700 -0.653710
O43   O     O_R   0.836220 0.719350 0.733700 -0.652396
O44   O     O_R   0.836220 0.280650 0.733700 -0.650329
O45   O     O_R   0.163750 0.219360 0.266290 -0.651979
O46   O     O_R   0.163750 0.780640 0.266290 -0.651870
O47   O     O_R   0.663750 0.719360 0.266290 -0.654172
O48   O     O_R   0.663750 0.280640 0.266290 -0.651878
O49   O     O_R   0.397490 0.280620 0.733700 -0.652382
O50   O     O_R   0.397490 0.719380 0.733700 -0.655106
O51   O     O_R   0.897490 0.780620 0.733700 -0.655317
O52   O     O_R   0.897490 0.219380 0.733700 -0.653145
Zn1   Zn    Zn3+2 0.337540 0.293760 0.587540 0.977757
Zn2   Zn    Zn3+2 0.337540 0.706240 0.587540 0.974510
Zn3   Zn    Zn3+2 0.837540 0.793760 0.587540 0.972305
Zn4   Zn    Zn3+2 0.837540 0.206240 0.587540 0.972301
Zn5   Zn    Zn3+2 0.162450 0.293770 0.412470 0.962665
Zn6   Zn    Zn3+2 0.162450 0.706230 0.412470 0.965375
Zn7   Zn    Zn3+2 0.662450 0.793770 0.412470 0.977374
Zn8   Zn    Zn3+2 0.662450 0.206230 0.412470 0.966568
Zn9   Zn    Zn3+2 0.249980 0.206220 0.412450 0.958710
Zn10  Zn    Zn3+2 0.249980 0.793780 0.412450 0.955619
Zn11  Zn    Zn3+2 0.749980 0.706220 0.412450 0.955519
Zn12  Zn    Zn3+2 0.749980 0.293780 0.412450 0.959175
Zn13  Zn    Zn3+2 0.250000 0.206220 0.587540 0.940389
Zn14  Zn    Zn3+2 0.250000 0.793780 0.587540 0.937308
Zn15  Zn    Zn3+2 0.750000 0.706220 0.587540 0.933317
Zn16  Zn    Zn3+2 0.750000 0.293780 0.587540 0.941459
C121  C     C_1   0.375680 0.191611 0.908516 0.218591
N1    N     N_1   0.321524 0.188321 0.885074 -0.213410
C122  C     C_1   0.372680 0.802048 0.909320 0.211976
N2    N     N_1   0.318971 0.801832 0.887456 -0.228231
C123  C     C_1   0.874479 0.694712 0.910125 0.218556
N3    N     N_1   0.821127 0.692603 0.888994 -0.222947
C124  C     C_1   0.878104 0.312072 0.907936 0.227543
N4    N     N_1   0.824261 0.317799 0.884791 -0.217248
C125  C     C_3   0.629286 0.312008 0.088269 -0.805595
H9    H     H_    0.667278 0.309593 0.079824 0.230903
H10   H     H_    0.595133 0.343941 0.037781 0.210543
H11   H     H_    0.663212 0.326686 0.166274 0.272760
C126  C     C_3   0.638019 0.695527 0.090904 -0.808959
H12   H     H_    0.675230 0.701218 0.081503 0.232526
H13   H     H_    0.674913 0.682362 0.170551 0.272216
H14   H     H_    0.607716 0.662146 0.042949 0.213389
C127  C     C_3   0.133440 0.808904 0.091189 -0.799952
H15   H     H_    0.169819 0.805118 0.079967 0.230348
H16   H     H_    0.101112 0.842399 0.044443 0.210988
H17   H     H_    0.170694 0.821820 0.170763 0.272669
C128  C     C_3   0.130886 0.185110 0.092118 -0.806975
H18   H     H_    0.170534 0.186716 0.086493 0.231300
H19   H     H_    0.164033 0.170763 0.170196 0.271164
H20   H     H_    0.096934 0.152921 0.042635 0.213463
C129  C     C_3   0.438447 0.350423 0.899621 -0.854173
H21   H     H_    0.417009 0.381190 0.914564 0.231810
H22   H     H_    0.490826 0.365000 0.937084 0.226476
H23   H     H_    0.403341 0.352320 0.816074 0.252502
C130  C     C_3   0.451131 0.648360 0.904925 -0.842275
H24   H     H_    0.417718 0.646289 0.822034 0.262340
H25   H     H_    0.505326 0.636017 0.945470 0.222314
H26   H     H_    0.431884 0.615818 0.919610 0.235330
C131  C     C_3   0.942282 0.851615 0.903206 -0.842225
H27   H     H_    0.919248 0.882866 0.914784 0.226569
H28   H     H_    0.995840 0.865990 0.945319 0.234164
H29   H     H_    0.909837 0.852701 0.820599 0.265943
C132  C     C_3   0.938244 0.149728 0.903193 -0.860934
H30   H     H_    0.906148 0.147958 0.820599 0.256388
H31   H     H_    0.991129 0.133282 0.945568 0.234209
H32   H     H_    0.913539 0.120388 0.914614 0.228175
C133  C     C_3   0.526404 0.346491 0.114401 -0.814793
H33   H     H_    0.484262 0.375565 0.085447 0.239697
H34   H     H_    0.559791 0.343137 0.197534 0.226642
H35   H     H_    0.559456 0.364778 0.106233 0.231371
C134  C     C_3   0.539076 0.651967 0.118636 -0.776820
H36   H     H_    0.571864 0.654520 0.201589 0.246872
H37   H     H_    0.500106 0.620571 0.089778 0.237327
H38   H     H_    0.575069 0.637059 0.112854 0.225677
C135  C     C_3   0.031391 0.847373 0.117979 -0.792066
H39   H     H_    0.990555 0.877755 0.088508 0.237714
H40   H     H_    0.064236 0.844198 0.200999 0.239928
H41   H     H_    0.066866 0.863949 0.112928 0.226679
C136  C     C_3   0.025698 0.155263 0.117331 -0.815985
H42   H     H_    0.057432 0.159167 0.199810 0.229190
H43   H     H_    0.983221 0.126708 0.087238 0.240959
H44   H     H_    0.060592 0.136478 0.112624 0.231183
C137  C     C_1   0.528379 0.312341 0.644442 0.202294
N5    N     N_1   0.530112 0.353870 0.668884 -0.163462
C138  C     C_1   0.509706 0.671345 0.628507 0.241728
N6    N     N_1   0.503051 0.633310 0.653376 -0.172447
C139  C     C_1   0.013798 0.825549 0.619797 0.208403
N7    N     N_1   0.005743 0.868180 0.628419 -0.182700
C140  C     C_1   0.987887 0.158240 0.586722 0.230365
N8    N     N_1   0.968448 0.118560 0.587579 -0.185946
C141  C     C_1   0.537277 0.228218 0.691897 0.159164
N9    N     N_1   0.546178 0.203288 0.751733 -0.185096
C142  C     C_1   0.557533 0.749118 0.699247 0.137522
N10   N     N_1   0.586101 0.770396 0.774895 -0.196572
C143  C     C_1   0.045135 0.746505 0.700156 0.170809
N11   N     N_1   0.064304 0.725930 0.771346 -0.199729
C144  C     C_1   0.050803 0.229283 0.689297 0.169243
N12   N     N_1   0.082003 0.244448 0.770439 -0.208268
C145  C     C_3   0.634911 0.197274 0.685083 -0.811428
H45   H     H_    0.673118 0.202332 0.769223 0.255123
H46   H     H_    0.602548 0.166013 0.674065 0.242724
H47   H     H_    0.666957 0.184047 0.669731 0.231998
C146  C     C_3   0.658223 0.715074 0.700474 -0.733758
H48   H     H_    0.664883 0.699503 0.762830 0.221058
H49   H     H_    0.695698 0.690355 0.706255 0.269640
H50   H     H_    0.682662 0.752944 0.722968 0.241733
C147  C     C_3   0.146860 0.721457 0.700404 -0.780488
H51   H     H_    0.185824 0.735574 0.780692 0.252110
H52   H     H_    0.123642 0.688695 0.705670 0.240674
H53   H     H_    0.179269 0.708121 0.685932 0.241962
C148  C     C_3   0.149339 0.198438 0.686042 -0.723245
H54   H     H_    0.151997 0.176878 0.740622 0.213896
H55   H     H_    0.185658 0.174806 0.687650 0.261724
H56   H     H_    0.177938 0.234567 0.722007 0.243523
C149  C     C_3   0.654786 0.288115 0.699219 -0.760642
H57   H     H_    0.645098 0.328053 0.674751 0.237053
H58   H     H_    0.669339 0.289756 0.772324 0.223747
H59   H     H_    0.704961 0.276321 0.721321 0.282665
C150  C     C_3   0.576167 0.652755 0.566572 -0.857063
H60   H     H_    0.522442 0.635754 0.508981 0.243184
H61   H     H_    0.604122 0.646002 0.542485 0.256355
H62   H     H_    0.604355 0.627443 0.634500 0.234441
C151  C     C_3   0.141344 0.812819 0.675524 -0.772443
H63   H     H_    0.120648 0.849345 0.634767 0.230234
H64   H     H_    0.154309 0.820928 0.746355 0.217479
H65   H     H_    0.195029 0.807056 0.704501 0.283010
C152  C     C_3   0.062131 0.146776 0.534161 -0.864279
H66   H     H_    0.006801 0.133320 0.470888 0.245977
H67   H     H_    0.090653 0.144058 0.510074 0.254266
H68   H     H_    0.086337 0.116526 0.593650 0.236715
C153  C     C_1   0.405350 0.337396 0.424741 0.201289
N13   N     N_1   0.383861 0.375855 0.426551 -0.162324
C154  C     C_1   0.399105 0.672231 0.392180 0.150421
N14   N     N_1   0.380969 0.630195 0.382248 -0.162809
C155  C     C_1   0.891220 0.829617 0.399682 0.194194
N15   N     N_1   0.865305 0.867968 0.392371 -0.158961
C156  C     C_1   0.886752 0.176388 0.366857 0.143063
N16   N     N_1   0.864365 0.135031 0.348592 -0.156713
C157  C     C_1   0.538231 0.344968 0.497731 0.238635
N17   N     N_1   0.562174 0.384857 0.535312 -0.219239
C158  C     C_1   0.486837 0.683161 0.360176 0.179348
N18   N     N_1   0.493469 0.645563 0.333627 -0.192128
C159  C     C_1   0.016585 0.843636 0.453011 0.224155
N19   N     N_1   0.032415 0.886634 0.470740 -0.212097
C160  C     C_1   0.976298 0.191146 0.337662 0.173991
N20   N     N_1   0.978537 0.156236 0.300837 -0.194133
C161  C     C_1   0.382333 0.169069 0.371519 0.224772
N21   N     N_1   0.327526 0.152405 0.298431 -0.196474
C162  C     C_1   0.413683 0.841740 0.419531 0.179910
N22   N     N_1   0.366986 0.866867 0.350460 -0.197841
C163  C     C_1   0.900361 0.658478 0.408464 0.218391
N23   N     N_1   0.849392 0.634909 0.343796 -0.196916
C164  C     C_1   0.922100 0.342420 0.439029 0.184498
N24   N     N_1   0.878692 0.371606 0.376556 -0.202713
C165  C     C_3   0.439701 0.142409 0.886669 -0.815086
H69   H     H_    0.409661 0.111787 0.885801 0.223714
H70   H     H_    0.413044 0.148582 0.807279 0.240124
H71   H     H_    0.489378 0.122009 0.922163 0.246391
C166  C     C_3   0.431305 0.857444 0.887358 -0.835589
H72   H     H_    0.412175 0.887492 0.907052 0.225262
H73   H     H_    0.478440 0.875404 0.910269 0.248561
H74   H     H_    0.391452 0.856682 0.803320 0.258671
C167  C     C_3   0.935737 0.642646 0.888269 -0.826945
H75   H     H_    0.920293 0.611253 0.910755 0.223057
H76   H     H_    0.893931 0.643060 0.804013 0.259903
H77   H     H_    0.983338 0.626617 0.909426 0.251432
C168  C     C_3   0.943781 0.357142 0.885975 -0.824794
H78   H     H_    0.922152 0.390549 0.895702 0.227258
H79   H     H_    0.993916 0.372497 0.914456 0.249497
H80   H     H_    0.909383 0.352317 0.803385 0.245059
C169  C     C_1   0.472057 0.150161 0.539658 0.156150
N25   N     N_1   0.485594 0.118566 0.595350 -0.196436
C170  C     C_1   0.489082 0.840534 0.591759 0.155250
N26   N     N_1   0.500385 0.864217 0.655100 -0.180080
C171  C     C_1   0.994050 0.656279 0.580618 0.141176
N27   N     N_1   0.014516 0.630438 0.648012 -0.188509
C172  C     C_1   0.996737 0.329365 0.609780 0.166336
N28   N     N_1   0.010019 0.348378 0.678285 -0.159366
C173  C     C_3   0.552735 0.140046 0.489532 -0.862497
H81   H     H_    0.518592 0.109299 0.431291 0.234091
H82   H     H_    0.600415 0.143269 0.501739 0.251315
H83   H     H_    0.571810 0.120965 0.558044 0.230583
C174  C     C_3   0.611894 0.832331 0.628113 -0.888390
H84   H     H_    0.659619 0.826397 0.640339 0.227359
H85   H     H_    0.606849 0.874679 0.631539 0.241529
H86   H     H_    0.623157 0.817832 0.694134 0.267205
C175  C     C_3   0.076103 0.644281 0.533930 -0.879328
H87   H     H_    0.050557 0.607719 0.490652 0.232231
H88   H     H_    0.122205 0.651514 0.543895 0.239245
H89   H     H_    0.099128 0.632386 0.609066 0.245247
C176  C     C_3   0.118448 0.319918 0.644151 -0.866252
H90   H     H_    0.165560 0.312733 0.655502 0.239059
H91   H     H_    0.118912 0.361769 0.657871 0.248591
H92   H     H_    0.126534 0.301446 0.705292 0.260143
C177  C     C_1   0.467550 0.191511 0.343819 0.265909
N29   N     N_1   0.434856 0.188488 0.257814 -0.179409
C178  C     C_1   0.532126 0.847673 0.453040 0.243099
N30   N     N_1   0.524893 0.877645 0.399883 -0.173978
C179  C     C_1   0.979791 0.677365 0.369729 0.261146
N31   N     N_1   0.948685 0.664574 0.287261 -0.183906
C180  C     C_1   0.039504 0.346131 0.473140 0.252509
N32   N     N_1   0.031451 0.379233 0.424205 -0.219484
C181  C     C_1   0.371419 0.272377 0.313634 0.207118
N33   N     N_1   0.325027 0.260217 0.229072 -0.166440
C182  C     C_1   0.350110 0.749194 0.309683 0.250565
N34   N     N_1   0.296446 0.768255 0.238702 -0.190952
C183  C     C_1   0.863892 0.755675 0.310054 0.225405
N35   N     N_1   0.816326 0.736889 0.231922 -0.188883
C184  C     C_1   0.846750 0.258030 0.304145 0.257379
N36   N     N_1   0.795234 0.281066 0.238416 -0.195214
C185  C     C_3   0.484996 0.308299 0.343069 -0.859013
H93   H     H_    0.450699 0.343539 0.305372 0.247501
H94   H     H_    0.534310 0.316151 0.360106 0.226798
H95   H     H_    0.454624 0.279297 0.282825 0.249030
C186  C     C_3   0.446432 0.767221 0.298855 -0.827483
H96   H     H_    0.483943 0.773264 0.290853 0.270555
H97   H     H_    0.399011 0.748742 0.225312 0.232515
H98   H     H_    0.425448 0.804683 0.296600 0.245332
C187  C     C_3   0.968210 0.790193 0.316783 -0.852846
H99   H     H_    0.928716 0.821854 0.267223 0.243944
H100  H     H_    0.014691 0.797323 0.326763 0.226757
H101  H     H_    0.940337 0.756151 0.268716 0.254828
C188  C     C_3   0.945659 0.278112 0.299049 -0.828648
H102  H     H_    0.983823 0.286115 0.292926 0.273194
H103  H     H_    0.896760 0.264188 0.221216 0.229507
H104  H     H_    0.927708 0.314726 0.305436 0.245998
C189  C     C_3   0.321823 0.044812 0.698940 -0.854703
H105  H     H_    0.338008 0.084614 0.704709 0.256186
H106  H     H_    0.318280 0.042936 0.755565 0.231857
H107  H     H_    0.367959 0.020080 0.731858 0.236433
C190  C     C_3   0.283194 0.943220 0.682816 -0.776881
H108  H     H_    0.277577 0.965277 0.728456 0.214557
H109  H     H_    0.264297 0.905130 0.682680 0.267075
H110  H     H_    0.340734 0.939314 0.730908 0.226595
C191  C     C_3   0.769476 0.557280 0.671476 -0.761431
H111  H     H_    0.747570 0.595140 0.667149 0.261968
H112  H     H_    0.760801 0.535185 0.713360 0.211751
H113  H     H_    0.827416 0.562147 0.724104 0.227380
C192  C     C_3   0.811214 0.455567 0.694254 -0.847355
H114  H     H_    0.802584 0.457639 0.745261 0.231858
H115  H     H_    0.829309 0.415756 0.704177 0.259535
H116  H     H_    0.857780 0.480314 0.731505 0.235963
C193  C     C_3   0.193815 0.057195 0.586152 -0.795314
H117  H     H_    0.137921 0.060596 0.513308 0.230857
H118  H     H_    0.192579 0.035827 0.636911 0.217768
H119  H     H_    0.209643 0.095747 0.621687 0.265774
C194  C     C_3   0.159035 0.954394 0.524671 -0.812376
H120  H     H_    0.114869 0.978737 0.460735 0.241830
H121  H     H_    0.145963 0.913802 0.499509 0.258501
H122  H     H_    0.153934 0.957203 0.579593 0.238750
C195  C     C_3   0.648815 0.546509 0.506348 -0.845886
H123  H     H_    0.606613 0.522302 0.440860 0.248124
H124  H     H_    0.638694 0.543945 0.555615 0.238038
H125  H     H_    0.636931 0.587162 0.480851 0.247069
C196  C     C_3   0.682542 0.443382 0.569465 -0.750067
H126  H     H_    0.628110 0.440806 0.493806 0.235492
H127  H     H_    0.696669 0.404401 0.603205 0.273390
H128  H     H_    0.677309 0.464584 0.616300 0.222659
C197  C     C_1   0.386485 0.056188 0.626740 0.170027
N37   N     N_1   0.437319 0.076564 0.699613 -0.179967
C198  C     C_1   0.386145 0.953142 0.654287 0.145832
N38   N     N_1   0.435691 0.941009 0.738182 -0.197715
C199  C     C_1   0.882991 0.546097 0.661838 0.150613
N39   N     N_1   0.929696 0.557934 0.746658 -0.209663
C200  C     C_1   0.886359 0.443127 0.638145 0.165588
N40   N     N_1   0.935657 0.422860 0.713545 -0.190283
C201  C     C_3   0.158843 0.058951 0.294492 -0.816661
H129  H     H_    0.200492 0.058827 0.294434 0.247353
H130  H     H_    0.109641 0.042973 0.219585 0.221609
H131  H     H_    0.144710 0.099865 0.288627 0.241617
C202  C     C_3   0.182098 0.952906 0.299702 -0.826165
H132  H     H_    0.217792 0.974263 0.300091 0.225414
H133  H     H_    0.189708 0.911689 0.295959 0.263191
H134  H     H_    0.128655 0.960395 0.220778 0.213584
C203  C     C_3   0.691814 0.546783 0.304006 -0.824827
H135  H     H_    0.729855 0.524550 0.309810 0.225477
H136  H     H_    0.640417 0.540215 0.222932 0.210908
H137  H     H_    0.700981 0.587676 0.301867 0.266544
C204  C     C_3   0.667038 0.441314 0.295324 -0.805978
H138  H     H_    0.712353 0.440123 0.302976 0.248162
H139  H     H_    0.650228 0.400842 0.284699 0.242829
H140  H     H_    0.620819 0.458460 0.219218 0.218015
C205  C     C_1   0.109857 0.045991 0.358638 0.123104
N41   N     N_1   0.055948 0.057867 0.331816 -0.188633
C206  C     C_1   0.113458 0.942955 0.334843 0.142862
N42   N     N_1   0.060155 0.922711 0.296637 -0.217815
C207  C     C_1   0.614758 0.557197 0.324908 0.145867
N43   N     N_1   0.559858 0.577139 0.280821 -0.202624
C208  C     C_1   0.609753 0.454355 0.347252 0.117161
N44   N     N_1   0.554126 0.442359 0.314265 -0.210784
C209  C     C_3   0.567477 0.146864 0.103048 -0.834311
H141  H     H_    0.615144 0.149574 0.186766 0.248250
H142  H     H_    0.543132 0.108549 0.089613 0.239806
H143  H     H_    0.587683 0.143601 0.067601 0.244519
C210  C     C_3   0.559294 0.854201 0.098922 -0.832187
H144  H     H_    0.531503 0.891111 0.084459 0.244754
H145  H     H_    0.608220 0.852612 0.182388 0.245566
H146  H     H_    0.577180 0.859478 0.060610 0.240560
C211  C     C_3   0.063370 0.646573 0.099994 -0.826166
H147  H     H_    0.112582 0.649252 0.183087 0.249576
H148  H     H_    0.038246 0.608938 0.088200 0.240831
H149  H     H_    0.080485 0.641946 0.060481 0.245897
C212  C     C_3   0.069344 0.352775 0.100773 -0.838445
H150  H     H_    0.045214 0.391583 0.086234 0.239368
H151  H     H_    0.117132 0.350038 0.184560 0.247387
H152  H     H_    0.088837 0.354603 0.064158 0.245271
C213  C     C_1   0.360916 0.452814 0.535768 0.222754
N45   N     N_1   0.421202 0.441245 0.595236 -0.158041
C214  C     C_1   0.340057 0.553455 0.486419 0.217274
N46   N     N_1   0.393251 0.570537 0.518902 -0.148392
C215  C     C_1   0.731270 0.952211 0.343723 0.146594
N47   N     N_1   0.753981 0.939061 0.310960 -0.155519
C216  C     C_1   0.711481 0.056460 0.328734 0.152641
N48   N     N_1   0.723886 0.075929 0.286151 -0.175161
C217  C     C_3   0.331525 0.046046 0.459942 -0.801627
H153  H     H_    0.387674 0.038510 0.497583 0.228263
H154  H     H_    0.300764 0.024457 0.389569 0.220905
H155  H     H_    0.324492 0.087348 0.441690 0.266719
C218  C     C_3   0.352337 0.939566 0.501706 -0.765732
H156  H     H_    0.364592 0.898362 0.524206 0.242916
H157  H     H_    0.316404 0.939869 0.418965 0.246819
H158  H     H_    0.404489 0.955341 0.534802 0.228052
C219  C     C_3   0.858403 0.559369 0.516139 -0.773078
H159  H     H_    0.911960 0.543115 0.554911 0.232659
H160  H     H_    0.826312 0.558765 0.434521 0.247105
H161  H     H_    0.869312 0.600675 0.538032 0.238594
C220  C     C_3   0.840196 0.452492 0.476259 -0.806126
H162  H     H_    0.897780 0.458927 0.519724 0.225813
H163  H     H_    0.833263 0.411135 0.458918 0.269102
H164  H     H_    0.812654 0.474018 0.406507 0.226300
C221  C     C_1   0.265593 0.452024 0.652054 0.174855
N49   N     N_1   0.244501 0.438239 0.686691 -0.210900
C222  C     C_1   0.302416 0.556281 0.681279 0.181477
N50   N     N_1   0.301020 0.577613 0.735056 -0.213042
C223  C     C_1   0.879143 0.951633 0.674680 0.265771
N51   N     N_1   0.919801 0.938527 0.759238 -0.239547
C224  C     C_1   0.891232 0.052860 0.655848 0.285866
N52   N     N_1   0.940372 0.071668 0.732882 -0.205129
C225  C     C_1   0.251414 0.441802 0.363978 0.170804
N53   N     N_1   0.226547 0.421332 0.289307 -0.186771
C226  C     C_1   0.218759 0.544973 0.335836 0.139731
N54   N     N_1   0.176569 0.556553 0.250363 -0.199899
C227  C     C_1   0.627463 0.946722 0.310711 0.191461
N55   N     N_1   0.570306 0.929271 0.254601 -0.169613
C228  C     C_1   0.621104 0.048705 0.326902 0.186192
N56   N     N_1   0.563096 0.062063 0.282666 -0.171229
C229  C     C_3   0.109418 0.446028 0.406823 -0.760099
H165  H     H_    0.085474 0.413038 0.353497 0.271463
H166  H     H_    0.131492 0.433746 0.481775 0.264724
H167  H     H_    0.062063 0.471409 0.368334 0.231079
C230  C     C_3   0.144304 0.547556 0.488283 -0.801346
H168  H     H_    0.165289 0.585329 0.525593 0.241572
H169  H     H_    0.084743 0.551197 0.428549 0.226971
H170  H     H_    0.160107 0.520004 0.546896 0.263115
C231  C     C_3   0.734442 0.941184 0.625896 -0.868097
H171  H     H_    0.718821 0.900179 0.605908 0.230694
H172  H     H_    0.792233 0.942878 0.697520 0.259767
H173  H     H_    0.703240 0.957339 0.640907 0.243362
C232  C     C_3   0.775637 0.048688 0.663854 -0.858435
H174  H     H_    0.785218 0.090703 0.670822 0.223338
H175  H     H_    0.748907 0.041509 0.689968 0.241782
H176  H     H_    0.828287 0.028541 0.716727 0.263467
C233  C     C_1   0.485981 0.175167 0.108224 0.281193
N57   N     N_1   0.465439 0.160770 0.143255 -0.154687
C234  C     C_1   0.481561 0.820247 0.108198 0.285231
N58   N     N_1   0.460340 0.831558 0.143973 -0.185222
C235  C     C_1   0.984399 0.677477 0.109064 0.270324
N59   N     N_1   0.964028 0.664527 0.145086 -0.172461
C236  C     C_1   0.988035 0.327252 0.107906 0.263052
N60   N     N_1   0.968092 0.342466 0.143644 -0.209742
C237  C     C_1   0.360725 0.297886 0.885108 0.188827
N61   N     N_1   0.301378 0.300036 0.844789 -0.205751
C238  C     C_1   0.368426 0.695357 0.888920 0.195688
N62   N     N_1   0.309966 0.689483 0.850127 -0.209425
C239  C     C_1   0.862522 0.801096 0.887094 0.178210
N63   N     N_1   0.803311 0.804724 0.846896 -0.217711
C240  C     C_1   0.861294 0.205215 0.886975 0.178623
N64   N     N_1   0.802212 0.204506 0.847345 -0.236378
C241  C     C_3   0.450591 0.282235 0.091741 -0.873333
H177  H     H_    0.409815 0.251942 0.047353 0.235360
H178  H     H_    0.488140 0.272862 0.174279 0.248247
H179  H     H_    0.418748 0.316246 0.078275 0.252694
C242  C     C_3   0.457058 0.711016 0.094843 -0.877457
H180  H     H_    0.413463 0.739753 0.050210 0.231426
H181  H     H_    0.428829 0.675120 0.082381 0.259204
H182  H     H_    0.493955 0.720217 0.177264 0.243669
C243  C     C_3   0.952913 0.785304 0.094053 -0.876874
H183  H     H_    0.910795 0.755921 0.049239 0.237696
H184  H     H_    0.990410 0.775362 0.176232 0.246054
H185  H     H_    0.922879 0.820248 0.081993 0.253188
C244  C     C_3   0.950297 0.221677 0.092287 -0.867790
H186  H     H_    0.909925 0.252569 0.047043 0.231392
H187  H     H_    0.917948 0.188522 0.079202 0.255728
H188  H     H_    0.987639 0.231237 0.174594 0.249226
C245  C     C_3   0.539936 0.286600 0.882204 -0.773748
H189  H     H_    0.521519 0.326219 0.872881 0.246059
H190  H     H_    0.596648 0.287819 0.920062 0.218016
H191  H     H_    0.511368 0.273559 0.804308 0.259391
C246  C     C_3   0.542028 0.717847 0.881375 -0.772204
H192  H     H_    0.527898 0.677490 0.874786 0.242480
H193  H     H_    0.510780 0.730540 0.801966 0.257617
H194  H     H_    0.598383 0.718736 0.917786 0.228590
C247  C     C_3   0.039716 0.788785 0.883833 -0.767607
H195  H     H_    0.025325 0.828867 0.880141 0.242636
H196  H     H_    0.095755 0.788169 0.919006 0.221613
H197  H     H_    0.008773 0.778946 0.804052 0.265986
C248  C     C_3   0.038907 0.206090 0.883844 -0.757621
H198  H     H_    0.019315 0.167423 0.875811 0.246317
H199  H     H_    0.010937 0.217648 0.805388 0.265702
H200  H     H_    0.095586 0.202325 0.922120 0.226675
C249  C     C_1   0.547154 0.199419 0.917816 0.173381
N65   N     N_1   0.562162 0.161656 0.902767 -0.169381
C250  C     C_1   0.542313 0.804322 0.910920 0.167235
N66   N     N_1   0.552636 0.841651 0.888729 -0.165104
C251  C     C_1   0.043057 0.700740 0.910584 0.174706
N67   N     N_1   0.055160 0.663978 0.889042 -0.166140
C252  C     C_1   0.048016 0.293828 0.912144 0.171358
N68   N     N_1   0.062776 0.328574 0.890708 -0.162840
C253  C     C_1   0.653274 0.223248 0.117550 0.198534
N69   N     N_1   0.701967 0.195457 0.160647 -0.187609
C254  C     C_1   0.651869 0.784162 0.115435 0.185504
N70   N     N_1   0.698627 0.813265 0.157956 -0.185821
C255  C     C_1   0.150616 0.719327 0.113615 0.194226
N71   N     N_1   0.196990 0.689622 0.153713 -0.187691
C256  C     C_1   0.152991 0.273899 0.115816 0.201422
N72   N     N_1   0.201115 0.301604 0.158206 -0.182009

loop_
_geom_bond_atom_site_label_1
_geom_bond_atom_site_label_2
_ccdc_geom_bond_type
C88   C232  S    
C175  H87   S    
C61   C193  S    
C152  H67   S    
C251  N67   T    
C109  C121  S    
C34   C42   S    
C20   C120  S    
C208  N44   T    
C112  C168  S    
O4    Zn8   S    
C79   C87   S    
C168  H78   S    
C107  O43   A    
C211  H147  S    
C212  H152  S    
C77   C89   S    
C117  C129  S    
C105  O41   A    
C98   O10   A    
C243  H183  S    
C93   H1    S    
O1    Zn5   S    
C189  H106  S    
C90   O6    A    
C201  H131  S    
C210  H146  S    
C242  H180  S    
C34   C182  S    
C54   C158  S    
O22   Zn14  S    
C240  N64   T    
C244  H187  S    
C70   C74   S    
C132  H31   S    
C53   C157  S    
C18   C118  S    
C166  H72   S    
C65   C217  S    
C119  C239  S    
C209  H142  S    
C122  N2    T    
C193  H118  S    
C253  N69   T    
C135  H39   S    
C87   C231  S    
C56   C188  S    
C174  H85   S    
O11   Zn15  S    
C127  H16   S    
C40   C172  S    
C25   C29   S    
C27   C139  S    
C176  H92   S    
C27   C31   S    
C164  N24   T    
C63   C195  S    
C3    O15   A    
O43   Zn15  S    
C25   C41   S    
C12   C108  S    
C246  H194  S    
O41   Zn13  S    
C34   C154  S    
C86   C230  S    
C153  N13   T    
C28   C44   S    
C8    C252  S    
C148  H56   S    
C80   C92   S    
C247  H197  S    
C129  H23   S    
C199  N39   T    
C33   C181  S    
C131  H27   S    
C210  H145  S    
C78   C82   S    
C154  N14   T    
C16   C20   S    
C28   C140  S    
C130  H26   S    
C95   C223  S    
C13   C21   S    
C17   C241  S    
C115  C235  S    
O50   Zn2   S    
C94   H2    S    
C18   C134  S    
C34   C54   S    
C175  H89   S    
C145  H46   S    
C185  H93   S    
C242  H182  S    
C15   C115  S    
C36   C44   S    
C237  N61   T    
C32   C148  S    
O34   Zn10  S    
C168  H80   S    
C23   C127  S    
C167  H77   S    
C125  H9    S    
C107  O51   A    
O38   Zn6   S    
O3    Zn15  S    
C105  O49   A    
C60   C180  S    
C4    O16   A    
C182  N34   T    
C89   O29   A    
C80   C88   S    
C76   C100  S    
C188  H102  S    
C4    C49   S    
C92   O32   A    
C29   C145  S    
C116  C212  S    
C241  H178  S    
C177  N29   T    
C69   C205  S    
C246  H193  S    
C46   O18   A    
C58   C174  S    
C78   C94   S    
C49   C53   S    
C51   C55   S    
C203  H135  S    
C202  H133  S    
C119  C131  S    
C66   C218  S    
C5    C21   S    
C173  H83   S    
C30   C146  S    
C149  H58   S    
C163  N23   T    
C67   C199  S    
C135  H41   S    
C72   C204  S    
C141  N9    T    
C41   C45   S    
C82   C214  S    
C192  H114  S    
C191  H111  S    
C43   C47   S    
C37   C57   S    
O2    Zn10  S    
C186  H97   S    
O3    Zn7   S    
C2    O22   A    
C103  O39   A    
C195  H123  S    
C40   C60   S    
C86   H6    S    
C101  O45   A    
O7    Zn3   S    
C111  C123  S    
C190  H108  S    
C20   C136  S    
C74   C98   S    
C29   C49   S    
C245  H189  S    
C71   C203  S    
C140  N8    T    
C136  H42   S    
C217  H153  S    
C36   C156  S    
C45   O17   A    
O29   Zn5   S    
C131  H29   S    
C26   C138  S    
C42   C46   S    
C137  N5    T    
O27   Zn3   S    
C66   C198  S    
C9    C105  S    
C66   C74   S    
C113  C233  S    
C49   C57   S    
C71   C207  S    
C139  N7    T    
O31   Zn7   S    
C230  H168  S    
C165  H70   S    
C7    C247  S    
C5    C249  S    
C52   C60   S    
O21   Zn13  S    
C32   C52   S    
C198  N38   T    
O19   Zn11  S    
O1    Zn9   S    
C185  H95   S    
C248  H198  S    
C81   C213  S    
C132  H30   S    
O4    Zn12  S    
C79   C91   S    
C38   C170  S    
C65   C197  S    
C77   C85   S    
C102  O38   A    
C231  H171  S    
C106  O42   A    
C99   O11   A    
C249  N65   T    
O6    Zn2   S    
C110  C166  S    
C97   O9    A    
C194  H121  S    
C3    C50   S    
C83   C227  S    
C125  H10   S    
C64   C76   S    
C6    C250  S    
C4    O24   A    
C188  H104  S    
C47   O19   A    
C89   O5    A    
O24   Zn16  S    
C219  H161  S    
C191  H113  S    
C201  H130  S    
C25   C137  S    
C116  C236  S    
C26   C142  S    
C204  H139  S    
C128  H18   S    
C60   C176  S    
C220  H163  S    
C203  H137  S    
C5    C9    S    
C151  H63   S    
C120  C132  S    
C33   C153  S    
C37   C161  S    
C238  N62   T    
C8    C12   S    
C75   C99   S    
C215  N47   T    
C246  H192  S    
C192  H116  S    
C69   C73   S    
C218  H157  S    
C99   O35   A    
O5    Zn1   S    
C26   C30   S    
C195  H125  S    
C97   O33   A    
C108  O44   A    
C2    O14   A    
C221  N49   T    
C10   C106  S    
C67   C75   S    
C228  N56   T    
C112  C116  S    
C190  H110  S    
C26   C42   S    
C185  H94   S    
C245  H191  S    
C37   C169  S    
C207  N43   T    
C63   C191  S    
C136  H44   S    
C29   C149  S    
C23   C255  S    
C70   C202  S    
C109  C165  S    
C31   C51   S    
C144  N12   T    
C148  H55   S    
C94   C222  S    
C123  N3    T    
C13   C17   S    
C134  H38   S    
C14   C22   S    
C231  H172  S    
C71   C72   S    
C57   C173  S    
C189  H105  S    
C14   C103  S    
C63   C75   S    
C7    C23   S    
C130  H25   S    
C30   C50   S    
C61   C62   S    
C132  H32   S    
C6    C10   S    
C63   C64   S    
C202  H134  S    
C44   C48   S    
C16   C101  S    
C160  N20   T    
C51   C59   S    
C204  H138  S    
C147  H53   S    
C236  N60   T    
O35   Zn11  S    
C233  N57   T    
C106  O50   A    
C201  H129  S    
C226  N54   T    
C146  H48   S    
O20   Zn12  S    
C87   C88   S    
C193  H117  S    
O40   Zn8   S    
C65   C73   S    
C242  H181  S    
C214  N46   T    
C12   C112  S    
C80   C84   S    
C174  H84   S    
O28   Zn4   S    
C184  N36   T    
C127  H15   S    
C78   C90   S    
C128  H20   S    
C15   C19   S    
C176  H91   S    
C19   C135  S    
C118  C238  S    
C50   C54   S    
C28   C144  S    
C93   C221  S    
C114  C234  S    
C83   C84   S    
C167  H75   S    
C5    C245  S    
C130  H24   S    
C217  H155  S    
C69   C70   S    
C225  N53   T    
C209  H143  S    
C195  H124  S    
C95   H3    S    
C180  N32   T    
C6    C22   S    
C16   C116  S    
C126  H14   S    
C148  H54   S    
C149  H57   S    
C83   C215  S    
O23   Zn15  S    
C247  H196  S    
C54   C186  S    
C111  C167  S    
O1    Zn1   S    
C30   C150  S    
C98   O34   A    
C38   C58   S    
O3    Zn3   S    
C150  H62   S    
C13   C113  S    
C178  N30   T    
C248  H199  S    
O52   Zn4   S    
C1    O21   A    
C91   O31   A    
C17   C117  S    
C229  H165  S    
C24   C128  S    
O10   Zn14  S    
C48   O28   A    
C19   C119  S    
C8    C248  S    
C175  H88   S    
C196  H126  S    
C219  H159  S    
C196  H127  S    
C92   O8    A    
C205  N41   T    
O30   Zn6   S    
C168  H79   S    
C81   C82   S    
C167  H76   S    
C173  H81   S    
C9    C109  S    
C46   O26   A    
C11   C111  S    
C156  N16   T    
C50   C58   S    
C104  O48   A    
C133  H35   S    
C18   C242  S    
C172  N28   T    
O42   Zn14  S    
C120  C240  S    
C61   C73   S    
C197  N37   T    
C67   C68   S    
C69   C201  S    
C192  H115  S    
C73   C97   S    
C252  N68   T    
C79   C95   S    
C241  H177  S    
C36   C56   S    
C25   C141  S    
C146  H50   S    
C28   C32   S    
C222  N50   T    
C244  H188  S    
C39   C59   S    
O8    Zn4   S    
C103  O47   A    
C151  H65   S    
C100  O36   A    
C13   C104  S    
C101  O37   A    
C85   C86   S    
C256  N72   T    
O46   Zn10  S    
O25   Zn1   S    
C193  H119  S    
C135  H40   S    
C243  H185  S    
C45   O25   A    
C174  H86   S    
C229  H166  S    
C186  H96   S    
C127  H17   S    
C206  N42   T    
C64   C196  S    
C212  H151  S    
O17   Zn9   S    
C57   C177  S    
O2    Zn14  S    
C62   C190  S    
C35   C155  S    
C229  H167  S    
C19   C243  S    
C38   C42   S    
C102  O46   A    
C149  H59   S    
C129  H22   S    
C33   C41   S    
C220  H164  S    
C55   C159  S    
C131  H28   S    
C14   C114  S    
O4    Zn4   S    
C79   C83   S    
C39   C163  S    
C159  N19   T    
C27   C143  S    
C77   C93   S    
C10   C110  S    
C165  H69   S    
C1    C52   S    
C1    O13   A    
C2    C51   S    
C162  N22   T    
C27   C43   S    
C91   O7    A    
C88   H8    S    
C155  N15   T    
C145  H47   S    
C21   C253  S    
C187  H100  S    
C62   C74   S    
C112  C124  S    
C55   C187  S    
C117  C237  S    
C31   C151  S    
C189  H107  S    
C170  N26   T    
C93   C94   S    
C72   C208  S    
C9    C117  S    
C152  H66   S    
C14   C18   S    
C232  H176  S    
C85   H5    S    
C95   C96   S    
C213  N45   T    
C68   C220  S    
C72   C76   S    
C11   C119  S    
C87   H7    S    
C194  H120  S    
C210  H144  S    
C147  H52   S    
C255  N71   T    
C224  N52   T    
C7    C251  S    
C157  N17   T    
C7    C11   S    
C188  H103  S    
C223  N51   T    
C70   C206  S    
C53   C185  S    
C216  N48   T    
C61   C189  S    
C24   C256  S    
C22   C254  S    
C38   C162  S    
C241  H179  S    
C191  H112  S    
O47   Zn11  S    
O49   Zn1   S    
C82   C226  S    
O48   Zn12  S    
C22   C126  S    
C48   O20   A    
C134  H36   S    
C143  N11   T    
C145  H45   S    
C108  O52   A    
C220  H162  S    
C21   C125  S    
C203  H136  S    
C100  O12   A    
C8    C24   S    
C12   C120  S    
C85   C229  S    
C234  N58   T    
C232  H175  S    
C146  H49   S    
C77   C81   S    
C80   C96   S    
C218  H156  S    
C68   C200  S    
C59   C179  S    
C56   C160  S    
C109  C113  S    
C151  H64   S    
C186  H98   S    
C58   C178  S    
C204  H140  S    
C15   C23   S    
C173  H82   S    
C37   C41   S    
C6    C246  S    
C161  N21   T    
C150  H61   S    
C190  H109  S    
C243  H184  S    
O51   Zn3   S    
C245  H190  S    
C118  C130  S    
C33   C53   S    
O14   Zn6   S    
C126  H12   S    
O9    Zn13  S    
C136  H43   S    
C96   H4    S    
C35   C55   S    
C187  H101  S    
C20   C244  S    
O33   Zn9   S    
O2    Zn2   S    
C39   C43   S    
C152  H68   S    
C96   C224  S    
C81   C225  S    
C212  H150  S    
C84   C216  S    
C39   C171  S    
O37   Zn5   S    
C200  N40   T    
C134  H37   S    
C90   O30   A    
C165  H71   S    
C209  H141  S    
C10   C118  S    
C126  H13   S    
C104  O40   A    
C129  H21   S    
C84   C228  S    
C121  N1    T    
C40   C44   S    
O39   Zn7   S    
C235  N59   T    
C232  H174  S    
C239  N63   T    
C166  H73   S    
C68   C76   S    
O12   Zn16  S    
C183  N35   T    
C230  H169  S    
C244  H186  S    
C133  H34   S    
C11   C107  S    
C166  H74   S    
C231  H173  S    
C62   C194  S    
O13   Zn5   S    
O32   Zn8   S    
C138  N6    T    
C194  H122  S    
C35   C43   S    
C115  C211  S    
C150  H60   S    
C179  N31   T    
O16   Zn8   S    
C125  H11   S    
C110  C114  S    
C110  C122  S    
O15   Zn7   S    
C40   C164  S    
O1    Zn13  S    
C32   C152  S    
O2    Zn6   S    
O3    Zn11  S    
C128  H19   S    
C230  H170  S    
C176  H90   S    
C3    O23   A    
C248  H200  S    
C114  C210  S    
C211  H148  S    
C219  H160  S    
C250  N66   T    
C217  H154  S    
O36   Zn12  S    
C181  N33   T    
C71   C75   S    
C78   C86   S    
C202  H132  S    
C187  H99   S    
C47   O27   A    
C142  N10   T    
O26   Zn2   S    
O45   Zn9   S    
C196  H128  S    
C15   C102  S    
C247  H195  S    
C31   C147  S    
C218  H158  S    
C133  H33   S    
C211  H149  S    
O44   Zn16  S    
C254  N70   T    
C59   C175  S    
C35   C183  S    
C36   C184  S    
C16   C24   S    
C65   C66   S    
O4    Zn16  S    
C169  N25   T    
O18   Zn10  S    
C111  C115  S    
C124  N4    T    
C171  N27   T    
C147  H51   S    
C64   C192  S    
C67   C219  S    
C227  N55   T    
C52   C56   S    
C158  N18   T    
C113  C209  S    
C17   C133  S    
