data_mof_unit_62174.cif
_audit_creation_date              2013-03-05T15:44:07-0500
_audit_creation_method            fapswitch 2.2
_symmetry_space_group_name_H-M    P1
_symmetry_Int_Tables_number       1
_space_group_crystal_system       triclinic
_cell_length_a                    14.155146
_cell_length_b                    10.757748
_cell_length_c                    10.038115
_cell_angle_alpha                 90.214816
_cell_angle_beta                  90.229543
_cell_angle_gamma                 90.183357
_cell_volume                      1528.54808094

loop_
_atom_site_label
_atom_site_type_symbol
_atom_site_description
_atom_site_fract_x
_atom_site_fract_y
_atom_site_fract_z
_atom_type_partial_charge
O1    O     O_R   0.499990 0.319060 0.613040 -0.613943
O2    O     O_R   0.500010 0.319100 0.386900 -0.612641
C1    C     C_R   0.501900 0.262711 0.499691 0.918526
O3    O     O_R   0.373700 0.499980 0.613090 -0.601375
O4    O     O_R   0.373730 0.500020 0.386960 -0.587343
C2    C     C_R   0.329203 0.499935 0.499789 0.879472
Zn1   Zn    Zn3+2 0.499980 0.499970 0.650990 1.007072
Zn2   Zn    Zn3+2 0.500020 0.500030 0.349010 0.954985
O5    O     O_R   0.499990 0.680900 0.613100 -0.562562
O6    O     O_R   0.500010 0.680940 0.386960 -0.622757
O7    O     O_R   0.626270 0.499980 0.613040 -0.547212
O8    O     O_R   0.626300 0.500020 0.386910 -0.593411
C3    C     C_R   0.498057 0.737317 0.500114 0.944390
C4    C     C_R   0.670792 0.500076 0.500215 0.902769
C5    C     C_1   0.227723 0.500033 0.499387 -0.186559
C6    C     C_1   0.142481 0.500120 0.499472 0.000879
C7    C     C_1   0.042609 0.500203 0.499867 0.021988
C8    C     C_1   0.957374 0.500240 0.500267 0.024815
C9    C     C_1   0.857503 0.500232 0.500625 0.013392
C10   C     C_1   0.772263 0.500177 0.500658 -0.158822
C11   C     C_2   0.501370 0.932729 0.387862 -0.153921
C12   C     C_2   0.489380 0.868782 0.500348 -0.304556
H1    H     H_    0.514536 0.886806 0.293164 0.184536
H2    H     H_    0.470398 0.911594 0.594370 0.171801
C13   C     C_2   0.495727 0.066523 0.387719 -0.147210
C14   C     C_2   0.510591 0.131308 0.499477 -0.320696
H3    H     H_    0.480195 0.111768 0.293558 0.180856
C15   C     C_2   0.530061 0.593327 0.926581 0.328520
N1    N     N_2   0.500930 0.501330 0.852150 -0.233330
C16   C     C_2   0.515482 0.598093 0.075294 -0.199903
N2    N     N_2   0.500950 0.501360 0.147810 -0.203477
H4    H     H_    0.524369 0.686931 0.125196 0.201303
H5    H     H_    0.501488 0.416100 0.101257 0.163281
H6    H     H_    0.531722 0.089156 0.592807 0.169987
N3    N     N_R   0.577236 0.697188 0.867057 0.235837
O9    O     O_R   0.557034 0.809613 0.905469 -0.425935
O10   O     O_R   0.652548 0.679160 0.796000 -0.359435
H7    H     H_    0.461734 0.432918 0.897284 0.130680

loop_
_geom_bond_atom_site_label_1
_geom_bond_atom_site_label_2
_geom_bond_distance
_ccdc_geom_bond_type
N1    H7    1.027928 S    
O4    Zn2   1.829286 S    
C16   H4    1.084084 S    
N2    H5    1.027885 S    
Zn1   N1    2.019256 S    
C13   H3    1.086790 S    
N3    O9    1.301075 A    
Zn2   O8    1.826058 S    
C15   C16   1.508524 S    
C7    C8    1.206538 T    
C2    C5    1.436460 S    
C11   C12   1.335522 D    
Zn1   O7    1.829284 S    
O4    C2    1.298363 A    
O3    Zn1   1.826060 S    
Zn2   O6    1.981716 S    
C15   N1    1.302729 D    
N3    O10   1.299697 A    
O8    C4    1.297878 A    
C3    C12   1.419974 S    
O2    C1    1.286704 A    
C11   H1    1.086702 S    
C16   N2    1.288643 D    
O7    C4    1.298293 A    
C12   H2    1.083803 S    
C5    C6    1.206619 T    
C4    C10   1.436333 S    
O3    C2    1.297873 A    
C8    C9    1.413710 S    
Zn1   O5    1.984611 S    
C11   C13   1.441800 S    
O5    C3    1.288591 A    
C13   C14   1.334099 D    
O1    Zn1   1.981716 S    
Zn2   N2    2.019867 S    
C14   H6    1.083793 S    
C1    C14   1.419329 S    
O2    Zn2   1.984611 S    
C9    C10   1.206573 T    
C15   N3    1.433436 S    
C6    C7    1.413736 S    
O1    C1    1.287632 A    
O6    C3    1.286057 A    
