data_mof_unit_18059.cif
_audit_creation_date              2012-12-11T16:35:24-0500
_audit_creation_method            fapswitch 2.2
_symmetry_space_group_name_H-M    P1
_symmetry_Int_Tables_number       1
_space_group_crystal_system       triclinic
_cell_length_a                    6.927686
_cell_length_b                    17.684241
_cell_length_c                    19.50793
_cell_angle_alpha                 109.107951
_cell_angle_beta                  90.534664
_cell_angle_gamma                 90.440971
_cell_volume                      2258.0119649

loop_
_atom_site_label
_atom_site_type_symbol
_atom_type_description
_atom_site_fract_x
_atom_site_fract_y
_atom_site_fract_z
_atom_type_partial_charge
O1    O     O_R   0.505700 0.440210 0.561730 -0.537459
O2    O     O_R   0.169350 0.406300 0.412660 -0.540246
O3    O     O_R   0.005650 0.559790 0.438270 -0.545097
C1    C     C_R   0.338025 0.382875 0.385047 0.691251
O4    O     O_R   0.175560 0.430650 0.559600 -0.539117
O5    O     O_R   0.011900 0.584320 0.586250 -0.532729
C2    C     C_R   0.345800 0.415068 0.580905 0.703538
O6    O     O_R   0.499450 0.415680 0.413750 -0.536044
O7    O     O_3   0.341370 0.550390 0.508570 -0.368160
V1    V     V_3+5 0.063940 0.490650 0.498410 1.422669
O8    O     O_R   0.682570 0.593700 0.587340 -0.539350
C3    C     C_R   0.852596 0.616693 0.614965 0.706290
O9    O     O_R   0.676370 0.569350 0.440400 -0.541377
C4    C     C_R   0.844981 0.584268 0.418610 0.723733
V2    V     V_3+5 0.564750 0.509350 0.501590 1.427746
O10   O     O_3   0.837190 0.449610 0.491430 -0.371397
C5    C     C_R   0.032791 0.673518 0.278435 0.375860
C6    C     C_R   0.021534 0.630922 0.327567 -0.172989
H1    H     H_    0.142768 0.594320 0.331867 0.148949
C7    C     C_R   0.855606 0.632548 0.368740 -0.215966
C8    C     C_R   0.700257 0.679781 0.361296 -0.153886
H2    H     H_    0.571295 0.682490 0.392987 0.156684
C9    C     C_R   0.709743 0.726162 0.315160 0.379476
C10   C     C_R   0.876476 0.722741 0.271846 -0.132197
C11   C     C_R   0.766269 0.756324 0.159581 0.393288
C12   C     C_R   0.780605 0.805860 0.116447 -0.187718
C13   C     C_R   0.917474 0.868439 0.131530 -0.215863
C14   C     C_R   0.040280 0.882915 0.193390 0.352056
C15   C     C_R   0.024951 0.833738 0.236825 -0.151038
H3    H     H_    0.118355 0.845718 0.284166 0.178783
C16   C     C_R   0.888992 0.770843 0.221436 -0.133754
H4    H     H_    0.595656 0.655951 0.928223 0.134823
C17   C     C_R   0.069940 0.894089 0.750252 -0.145678
C18   C     C_R   0.141313 0.901444 0.686194 -0.123263
C19   C     C_R   0.122406 0.838239 0.621525 -0.116929
C20   C     C_R   0.032065 0.767193 0.620433 -0.132214
C21   C     C_R   0.960348 0.757449 0.684821 0.070191
C22   C     C_R   0.979637 0.822259 0.751113 0.068779
C23   C     C_R   0.866515 0.685389 0.683610 -0.187794
C24   C     C_R   0.791157 0.678335 0.748680 0.053645
C25   C     C_R   0.811538 0.742934 0.815030 0.073209
C26   C     C_R   0.905223 0.814968 0.816204 -0.184195
C27   C     C_R   0.698717 0.606940 0.749465 -0.128875
C28   C     C_R   0.627973 0.599453 0.813562 -0.101568
C29   C     C_R   0.649184 0.662268 0.878390 -0.125344
C30   C     C_R   0.740572 0.733103 0.879498 -0.128679
H5    H     H_    0.085321 0.945658 0.798717 0.110931
H6    H     H_    0.210267 0.956778 0.686682 0.121630
H7    H     H_    0.176567 0.844493 0.571757 0.122400
H8    H     H_    0.017476 0.720589 0.568382 0.107126
H9    H     H_    0.680779 0.555928 0.700831 0.157734
H10   H     H_    0.557670 0.544333 0.812953 0.135774
H11   H     H_    0.756470 0.779503 0.931600 0.104614
H12   H     H_    0.060479 0.450417 0.180023 0.131064
C31   C     C_R   0.511515 0.233350 0.383004 -0.130250
C32   C     C_R   0.606042 0.164366 0.383764 -0.124612
C33   C     C_R   0.639663 0.103072 0.319218 -0.091973
C34   C     C_R   0.578840 0.110210 0.253375 -0.127288
C35   C     C_R   0.484271 0.179871 0.250657 0.058727
C36   C     C_R   0.449869 0.242944 0.316964 0.074635
C37   C     C_R   0.420604 0.186596 0.183595 -0.190039
C38   C     C_R   0.322964 0.256897 0.183210 0.072385
C39   C     C_R   0.288317 0.319912 0.249520 0.065613
C40   C     C_R   0.352178 0.313245 0.316588 -0.184817
C41   C     C_R   0.261577 0.266541 0.117155 -0.129073
C42   C     C_R   0.167063 0.335524 0.116385 -0.118885
C43   C     C_R   0.133019 0.396732 0.180945 -0.105921
C44   C     C_R   0.193430 0.389495 0.246796 -0.143220
H13   H     H_    0.485374 0.278471 0.434867 0.095190
H14   H     H_    0.652218 0.158224 0.434833 0.113529
H15   H     H_    0.712235 0.049399 0.320151 0.125926
H16   H     H_    0.606581 0.060347 0.204893 0.118870
H17   H     H_    0.287976 0.221477 0.065284 0.101210
H18   H     H_    0.121199 0.341721 0.065303 0.119728
H19   H     H_    0.165150 0.439214 0.295293 0.108201
C45   C     C_R   0.537560 0.317187 0.716016 -0.157473
H20   H     H_    0.670014 0.317722 0.746095 0.127045
C46   C     C_R   0.533607 0.360405 0.667517 0.315751
C47   C     C_R   0.360091 0.365024 0.629502 -0.138677
C48   C     C_R   0.197448 0.321976 0.639824 -0.184935
H21   H     H_    0.063830 0.322574 0.610901 0.144707
C49   C     C_R   0.205587 0.276224 0.686412 -0.137780
H22   H     H_    0.078572 0.242326 0.691134 0.112010
C50   C     C_R   0.376026 0.273276 0.725247 0.018993
C51   C     C_R   0.227089 0.214678 0.814708 -0.139365
H23   H     H_    0.091595 0.243214 0.810906 0.106290
C52   C     C_R   0.239982 0.169436 0.861509 -0.178000
H24   H     H_    0.113270 0.163566 0.891572 0.123398
C53   C     C_R   0.414659 0.133279 0.870203 -0.051859
C54   C     C_R   0.575524 0.142711 0.830404 -0.160573
H25   H     H_    0.711399 0.114760 0.835061 0.118193
C55   C     C_R   0.561933 0.186907 0.782805 -0.145211
H26   H     H_    0.687896 0.190872 0.751699 0.098741
C56   C     C_R   0.387948 0.224160 0.774638 0.110654
O11   O     O_R   0.273230 0.084330 0.086440 -0.538517
O12   O     O_R   0.596660 0.069390 0.940470 -0.542777
O13   O     O_R   0.760270 0.915710 0.913690 -0.536824
C57   C     C_R   0.427049 0.084469 0.919138 0.678697
O14   O     O_R   0.603330 0.093680 0.087390 -0.538567
O15   O     O_R   0.766990 0.940160 0.061660 -0.538880
C58   C     C_R   0.434725 0.117021 0.115130 0.698321
O16   O     O_R   0.266510 0.059870 0.938470 -0.546649
O17   O     O_3   0.431050 0.949630 0.991510 -0.362008
V3    V     V_3+5 0.708490 0.009340 0.001580 1.417699
O18   O     O_R   0.096270 0.930570 0.059390 -0.532247
C59   C     C_R   0.928013 0.916864 0.082029 0.695176
O19   O     O_R   0.089600 0.906290 0.912460 -0.537969
C60   C     C_R   0.919498 0.883475 0.884859 0.695632
V4    V     V_3+5 0.207670 0.990600 0.998190 1.432446
O20   O     O_3   0.935250 0.050360 0.008480 -0.372346
O21   O     O_3   0.198624 0.664084 0.237746 -0.622905
H27   H     H_    0.179611 0.685600 0.197399 0.318053
O22   O     O_3   0.701582 0.398286 0.659635 -0.656208
H28   H     H_    0.739382 0.373489 0.608331 0.287800
O23   O     O_3   0.552961 0.773961 0.314912 -0.624127
H29   H     H_    0.584538 0.811742 0.288807 0.308943
O24   O     O_3   0.631594 0.694749 0.138762 -0.635487
H30   H     H_    0.648896 0.659096 0.168159 0.310895
H31   H     H_    0.686011 0.794028 0.069443 0.146718
O25   O     O_3   0.172826 0.945229 0.215010 -0.642652
H32   H     H_    0.141658 0.985370 0.191394 0.284624

loop_
_geom_bond_atom_site_label_1
_geom_bond_atom_site_label_2
_ccdc_geom_bond_type
C11   C16   A    
C52   H24   S    
C25   C26   A    
O2    C1    A    
C19   C20   A    
C1    O6    A    
C34   H16   S    
C45   C50   A    
C54   H25   S    
C51   H23   S    
O25   H32   S    
C44   H19   S    
C12   C13   A    
C15   H3    S    
C20   C21   A    
C21   C22   A    
C45   C46   A    
C6    H1    S    
O5    C3    A    
V2    O10   S    
C42   H18   S    
O15   V3    S    
C41   H17   S    
C32   C33   A    
C18   C19   A    
H4    C29   S    
O13   C60   A    
O8    V2    S    
C24   C27   A    
O21   H27   S    
O12   C57   A    
C19   H7    S    
C25   C30   A    
O1    V2    S    
O9    C4    A    
O7    V1    S    
C28   H10   S    
C42   C43   A    
C35   C36   A    
C31   C36   A    
O19   V4    S    
C5    O21   S    
C17   C18   A    
C51   C52   A    
C35   C37   A    
C5    C10   A    
C43   C44   A    
C4    C7    S    
C12   H31   S    
C48   C49   A    
O11   V4    S    
C23   C24   A    
O4    C2    A    
C46   C47   A    
H12   C43   S    
C13   C59   S    
C34   C35   A    
C57   O16   A    
C33   H15   S    
C47   C48   A    
C37   C58   S    
C27   C28   A    
C38   C39   A    
C51   C56   A    
C54   C55   A    
O19   C60   A    
C31   C32   A    
C55   C56   A    
C5    C6    A    
C50   C56   S    
C45   H20   S    
C31   H13   S    
O3    C4    A    
C24   C25   A    
O14   C58   A    
C41   C42   A    
O6    V2    S    
C32   H14   S    
O9    V2    S    
C14   O25   S    
C17   H5    S    
C46   O22   S    
C18   H6    S    
O2    V1    S    
O17   V3    S    
C20   H8    S    
C28   C29   A    
C2    C47   S    
O22   H28   S    
O12   V3    S    
O18   V4    S    
C39   C44   A    
C14   C15   A    
C38   C41   A    
O1    C2    A    
O15   C59   A    
C48   H21   S    
C11   O24   S    
O5    V1    S    
O8    C3    A    
C22   C26   A    
O18   C59   A    
C1    C40   S    
C49   C50   A    
C17   C22   A    
O17   V4    S    
C53   C57   S    
C36   C40   A    
C3    C23   S    
C8    C9    A    
C11   C12   A    
C10   C16   S    
O4    V1    S    
C21   C23   A    
O3    V1    S    
V1    O10   S    
O24   H30   S    
V3    O20   S    
C27   H9    S    
C33   C34   A    
C30   H11   S    
C55   H26   S    
O14   V3    S    
C6    C7    A    
O7    V2    S    
C37   C38   A    
O13   V3    S    
C9    C10   A    
C9    O23   S    
C39   C40   A    
C29   C30   A    
C7    C8    A    
C15   C16   A    
C49   H22   S    
V4    O20   S    
C13   C14   A    
C52   C53   A    
O16   V4    S    
O23   H29   S    
C53   C54   A    
C8    H2    S    
C26   C60   S    
O11   C58   A    
