data_mof_unit_63006.cif
_audit_creation_date              2012-12-10T19:30:31-0500
_audit_creation_method            fapswitch 2.2
_symmetry_space_group_name_H-M    P1
_symmetry_Int_Tables_number       1
_space_group_crystal_system       triclinic
_cell_length_a                    14.946858
_cell_length_b                    15.745254
_cell_length_c                    16.85032
_cell_angle_alpha                 89.994633
_cell_angle_beta                  83.934849
_cell_angle_gamma                 89.935923
_cell_volume                      3943.38900835

loop_
_atom_site_label
_atom_site_type_symbol
_atom_type_description
_atom_site_fract_x
_atom_site_fract_y
_atom_site_fract_z
_atom_type_partial_charge
C1    C     C_R   0.499971 0.662481 0.499933 0.908058
C2    C     C_3   0.585447 0.028000 0.499016 -0.249617
C3    C     C_3   0.499792 0.917229 0.499574 0.027129
C4    C     C_3   0.500209 0.082771 0.500423 0.027131
C5    C     C_1   0.499801 0.826484 0.499553 0.055858
C6    C     C_1   0.500200 0.173516 0.500444 0.055851
C7    C     C_3   0.032318 0.578338 0.481483 -0.184959
C8    C     C_3   0.967682 0.421662 0.518517 -0.184967
C9    C     C_3   0.978682 0.521607 0.428520 0.037021
C10   C     C_3   0.021318 0.478393 0.571480 0.037018
C11   C     C_3   0.963235 0.556276 0.554453 -0.183141
C12   C     C_R   0.500028 0.337518 0.500067 0.908048
C13   C     C_3   0.036765 0.443725 0.445547 -0.183144
C14   C     C_3   0.910371 0.499901 0.500312 0.041592
C15   C     C_3   0.089629 0.500099 0.499688 0.041591
C16   C     C_R   0.486503 0.500467 0.653385 0.940011
C17   C     C_R   0.513497 0.499538 0.346615 0.940013
C18   C     C_1   0.810165 0.499952 0.500140 0.105023
C19   C     C_1   0.189834 0.500048 0.499860 0.105031
C20   C     C_R   0.475494 0.511664 0.739178 -0.197529
C21   C     C_R   0.524509 0.488373 0.260819 -0.197526
C22   C     C_R   0.535752 0.565706 0.772418 -0.225841
C23   C     C_3   0.464811 0.028052 0.435800 0.470978
C24   C     C_R   0.464275 0.434321 0.227560 -0.225835
C25   C     C_R   0.528826 0.578062 0.853920 -0.163220
C26   C     C_R   0.471206 0.421997 0.146052 -0.163205
C27   C     C_R   0.462068 0.535942 0.902835 -0.055533
C28   C     C_R   0.537943 0.464162 0.097152 -0.055541
C29   C     C_R   0.398250 0.484671 0.870426 0.368737
C30   C     C_R   0.601737 0.515447 0.129580 0.368741
C31   C     C_R   0.404720 0.472348 0.787822 0.330065
C32   C     C_R   0.595263 0.527735 0.212189 0.330057
C33   C     C_2   0.473086 0.530512 0.987102 -0.028223
C34   C     C_3   0.535190 0.971948 0.564197 0.470978
C35   C     C_2   0.526937 0.469598 0.012882 -0.028218
C36   C     C_1   0.573489 0.407704 0.959766 0.290893
C37   C     C_1   0.426526 0.592402 0.040217 0.290981
C38   C     C_1   0.955530 0.545607 0.349098 0.199116
C39   C     C_1   0.044470 0.454394 0.650902 0.199118
C40   C     C_3   0.549591 0.971895 0.433559 -0.235913
C41   C     C_3   0.450410 0.028105 0.566438 -0.235924
C42   C     C_1   0.499878 0.751289 0.499706 -0.125564
C43   C     C_1   0.500122 0.248711 0.500293 -0.125583
C44   C     C_3   0.414554 0.972000 0.500982 -0.249618
Cl1   Cl    Cl    0.671150 0.597668 0.252666 -0.496862
Cl2   Cl    Cl    0.328808 0.402420 0.747371 -0.496852
Cl3   Cl    Cl    0.314711 0.431400 0.933882 -0.503631
Cl4   Cl    Cl    0.685254 0.568771 0.066143 -0.503619
Cl5   Cl    Cl    0.417905 0.067541 0.350198 -0.554262
Cl6   Cl    Cl    0.582096 0.932460 0.649799 -0.554265
H1    H     H_    0.589158 0.597488 0.735276 0.193118
H2    H     H_    0.410664 0.052764 0.620988 0.199370
H3    H     H_    0.655049 0.052571 0.498965 0.191136
H4    H     H_    0.344952 0.947429 0.501032 0.191136
H5    H     H_    0.410884 0.402504 0.264692 0.193106
H6    H     H_    0.058489 0.642744 0.465496 0.160435
H7    H     H_    0.941511 0.357256 0.534504 0.160433
H8    H     H_    0.066583 0.397888 0.400127 0.162711
H9    H     H_    0.933417 0.602112 0.599873 0.162710
H10   H     H_    0.421291 0.383661 0.120518 0.204125
H11   H     H_    0.578761 0.616383 0.879440 0.204133
H12   H     H_    0.589336 0.947236 0.379009 0.199378
N1    N     N_1   0.731990 0.500000 0.499970 -0.074955
N2    N     N_1   0.268010 0.500000 0.500030 -0.074953
N3    N     N_1   0.610604 0.358345 0.917312 -0.143362
N4    N     N_1   0.389405 0.641758 0.082670 -0.143339
N5    N     N_1   0.937175 0.564531 0.286466 -0.093167
N6    N     N_1   0.062825 0.435469 0.713534 -0.093151
O1    O     O_R   0.425540 0.623220 0.500000 -0.616246
O2    O     O_R   0.574460 0.376780 0.500000 -0.616243
O3    O     O_R   0.574480 0.623220 0.499990 -0.594260
O4    O     O_R   0.425520 0.376780 0.500010 -0.594268
O5    O     O_R   0.416730 0.500010 0.615810 -0.568662
O6    O     O_R   0.583270 0.499990 0.384190 -0.568669
O7    O     O_R   0.565670 0.500010 0.615790 -0.624225
O8    O     O_R   0.434330 0.499990 0.384210 -0.624213
Zn1   Zn    Zn3+2 0.400550 0.500000 0.500010 1.033741
Zn2   Zn    Zn3+2 0.599450 0.500000 0.499990 1.033736

loop_
_geom_bond_atom_site_label_1
_geom_bond_atom_site_label_2
_ccdc_geom_bond_type
C5    C42   T    
C8    C13   S    
C27   C29   A    
C16   O7    A    
C39   N6    T    
C14   C18   S    
O1    Zn1   S    
C35   C36   S    
C27   C33   S    
C24   H5    S    
C15   C19   S    
C1    O3    A    
C29   Cl3   S    
C30   Cl4   S    
C24   C26   A    
C12   C43   S    
C10   C15   S    
C11   C14   S    
C18   N1    T    
C23   Cl5   S    
O2    Zn2   S    
C4    C41   S    
C23   C40   S    
C40   H12   S    
C32   Cl1   S    
C9    C13   S    
C28   C35   S    
C22   C25   A    
C17   O8    A    
C41   H2    S    
C2    C34   S    
C7    C15   S    
C12   O4    A    
C34   C41   S    
C7    H6    S    
C11   H9    S    
C21   C32   A    
C3    C44   S    
C34   Cl6   S    
C16   O5    A    
O8    Zn1   S    
C4    C6    S    
C4    C23   S    
C36   N3    T    
C13   H8    S    
C3    C34   S    
C31   Cl2   S    
C33   C37   S    
C23   C44   S    
C10   C39   S    
C7    C11   S    
C9    C14   S    
O4    Zn1   S    
C2    C40   S    
C8    H7    S    
C19   N2    T    
C16   C20   S    
C37   N4    T    
C25   H11   S    
C20   C22   A    
C3    C40   S    
C6    C43   T    
C13   C15   S    
C17   O6    A    
C41   C44   S    
C7    C9    S    
C12   O2    A    
C8    C14   S    
C3    C5    S    
C2    H3    S    
C25   C27   A    
C26   C28   A    
C28   C30   A    
C29   C31   A    
C30   C32   A    
C2    C4    S    
C9    C38   S    
C33   C35   D    
O7    Zn2   S    
C1    O1    A    
C10   C11   S    
C44   H4    S    
C1    C42   S    
C38   N5    T    
C8    C10   S    
O6    Zn2   S    
C21   C24   A    
N2    Zn1   S    
O5    Zn1   S    
C26   H10   S    
C20   C31   A    
O3    Zn2   S    
C22   H1    S    
N1    Zn2   S    
C17   C21   S    
