data_mof_unit_53458.cif
_audit_creation_date              2012-12-10T17:35:42-0500
_audit_creation_method            fapswitch 2.2
_symmetry_space_group_name_H-M    P1
_symmetry_Int_Tables_number       1
_space_group_crystal_system       triclinic
_cell_length_a                    10.4959
_cell_length_b                    12.101497
_cell_length_c                    12.87719
_cell_angle_alpha                 93.981849
_cell_angle_beta                  91.982443
_cell_angle_gamma                 86.884379
_cell_volume                      1628.47051956

loop_
_atom_site_label
_atom_site_type_symbol
_atom_type_description
_atom_site_fract_x
_atom_site_fract_y
_atom_site_fract_z
_atom_type_partial_charge
C1    C     C_R   0.501931 0.522223 0.699837 0.926529
C2    C     C_R   0.600343 0.165072 0.594990 0.017462
C3    C     C_R   0.544725 0.861063 0.549137 0.060997
C4    C     C_R   0.455276 0.138937 0.450862 0.060998
C5    C     C_R   0.538981 0.977771 0.539678 0.039321
C6    C     C_R   0.461018 0.022229 0.460322 0.039321
C7    C     C_R   0.742387 0.500490 0.500293 0.893740
C8    C     C_R   0.257613 0.499509 0.499708 0.893735
C9    C     C_3   0.960715 0.530751 0.596375 -0.181099
C10   C     C_3   0.039285 0.469249 0.403626 -0.181104
C11   C     C_3   0.036892 0.602468 0.528796 -0.175894
C12   C     C_R   0.498069 0.477777 0.300163 0.926522
C13   C     C_3   0.963108 0.397532 0.471204 -0.175895
C14   C     C_3   0.122452 0.499349 0.499900 0.051130
C15   C     C_3   0.877548 0.500651 0.500100 0.051130
C16   C     C_3   0.048879 0.427842 0.567558 -0.179789
C17   C     C_3   0.951120 0.572158 0.432443 -0.179789
C18   C     C_R   0.501462 0.464225 0.189053 -0.094909
C19   C     C_R   0.498539 0.535775 0.810947 -0.094911
C20   C     C_R   0.374828 0.603649 0.956574 -0.181331
C21   C     C_R   0.625175 0.396353 0.043427 -0.181329
C22   C     C_R   0.401078 0.605337 0.853012 -0.262804
C23   C     C_R   0.575909 0.465719 0.872505 -0.075930
C24   C     C_R   0.598925 0.394664 0.146988 -0.262803
C25   C     C_2   0.320460 0.607570 0.175840 0.877997
C26   C     C_2   0.679539 0.392427 0.824158 0.877993
C27   C     C_R   0.379285 0.184407 0.363710 0.160648
C28   C     C_R   0.247372 0.206711 0.372691 -0.134379
C29   C     C_R   0.171714 0.231526 0.284988 -0.165254
C30   C     C_R   0.227274 0.236028 0.188433 -0.089684
C31   C     C_R   0.358122 0.212017 0.178593 -0.128233
C32   C     C_R   0.433574 0.184131 0.265460 -0.124586
C33   C     C_R   0.620719 0.815592 0.636288 0.160648
C34   C     C_R   0.424092 0.534280 0.127494 -0.075925
C35   C     C_R   0.566434 0.815867 0.734538 -0.124584
C36   C     C_R   0.641889 0.787980 0.821403 -0.128233
C37   C     C_R   0.772735 0.763971 0.811560 -0.089694
C38   C     C_R   0.828291 0.768476 0.715005 -0.165259
C39   C     C_R   0.752630 0.793291 0.627303 -0.134377
C40   C     C_R   0.550884 0.465037 0.978731 0.086740
C41   C     C_R   0.449118 0.534964 0.021269 0.086739
C42   C     C_R   0.390727 0.949002 0.393055 -0.311203
C43   C     C_R   0.609272 0.050998 0.606945 -0.311204
C44   C     C_R   0.399656 0.834929 0.405010 0.017463
H1    H     H_    0.070948 0.686103 0.552246 0.138997
H2    H     H_    0.706663 0.345466 0.016446 0.182070
H3    H     H_    0.655697 0.219920 0.645920 0.183432
H4    H     H_    0.344301 0.780080 0.354082 0.183435
H5    H     H_    0.328330 0.978662 0.331214 0.175066
H6    H     H_    0.671668 0.021338 0.668787 0.175066
H7    H     H_    0.168802 0.621055 0.268270 0.331859
H8    H     H_    0.831191 0.378937 0.731720 0.331859
H9    H     H_    0.202793 0.201377 0.446674 0.130039
H10   H     H_    0.069617 0.245945 0.291499 0.125999
H11   H     H_    0.168568 0.256174 0.120907 0.134874
H12   H     H_    0.929052 0.313897 0.447755 0.138997
H13   H     H_    0.400754 0.213375 0.103381 0.151506
H14   H     H_    0.534145 0.161997 0.256306 0.123689
H15   H     H_    0.465864 0.837999 0.743694 0.123690
H16   H     H_    0.599261 0.786620 0.896616 0.151506
H17   H     H_    0.831443 0.743825 0.879084 0.134875
H18   H     H_    0.930387 0.754058 0.708492 0.126001
H19   H     H_    0.797206 0.798628 0.553320 0.130038
H20   H     H_    0.926282 0.554766 0.675438 0.182977
H21   H     H_    0.073718 0.445234 0.324563 0.182977
H22   H     H_    0.093014 0.369018 0.622467 0.141829
H23   H     H_    0.906986 0.630983 0.377533 0.141828
H24   H     H_    0.660376 0.343778 0.196011 0.155406
H25   H     H_    0.339628 0.656225 0.803990 0.155406
H26   H     H_    0.293341 0.654537 0.983555 0.182069
N1    N     N_R   0.523490 0.207800 0.519350 -0.127983
N2    N     N_R   0.476510 0.792200 0.480650 -0.127983
O1    O     O_R   0.506270 0.421700 0.658830 -0.617684
O2    O     O_R   0.232535 0.562727 0.237794 -0.836738
O3    O     O_2   0.684852 0.292744 0.835430 -0.665195
O4    O     O_R   0.767459 0.437267 0.762198 -0.836735
O5    O     O_R   0.493730 0.578300 0.341170 -0.617685
O6    O     O_R   0.491200 0.609310 0.646410 -0.621874
O7    O     O_R   0.508800 0.390690 0.353590 -0.621872
O8    O     O_R   0.693580 0.406210 0.506230 -0.630887
O9    O     O_R   0.306420 0.593790 0.493770 -0.630888
O10   O     O_R   0.678510 0.593830 0.493810 -0.624588
O11   O     O_R   0.321490 0.406170 0.506190 -0.624589
O12   O     O_2   0.315148 0.707254 0.164574 -0.665195
Zn1   Zn    Zn3+2 0.510060 0.374730 0.508290 0.957749
Zn2   Zn    Zn3+2 0.489940 0.625270 0.491710 0.957750

loop_
_geom_bond_atom_site_label_1
_geom_bond_atom_site_label_2
_ccdc_geom_bond_type
C8    O11   A    
C35   C36   A    
H7    O2    S    
C32   H14   S    
C20   C41   A    
C37   C38   A    
C18   C24   A    
C36   C37   A    
C9    C16   S    
C5    C6    A    
C11   C14   S    
C29   H10   S    
C3    C33   S    
C10   C17   S    
C23   C40   A    
C9    H20   S    
C12   O7    A    
C35   H15   S    
C25   O2    S    
C23   C26   S    
N1    Zn1   S    
C11   C17   S    
C25   O12   D    
C26   O4    S    
C29   C30   A    
C22   H25   S    
O9    Zn2   S    
C25   C34   S    
C13   H12   S    
O6    Zn2   S    
C7    C15   S    
C5    C43   A    
C1    O6    A    
C20   H26   S    
C34   C41   A    
C42   C44   A    
C1    C19   S    
C17   H23   S    
C8    O9    A    
C19   C22   A    
C4    C6    A    
C10   C14   S    
C3    C5    A    
O10   Zn2   S    
C19   C23   A    
O8    Zn1   S    
C18   C34   A    
C37   H17   S    
C31   C32   A    
C2    C43   A    
C12   O5    A    
C26   O3    D    
C33   C39   A    
C9    C11   S    
O1    Zn1   S    
C40   C41   A    
O11   Zn1   S    
C20   C22   A    
O5    Zn2   S    
C13   C15   S    
H8    O4    S    
C14   C16   S    
C11   H1    S    
C16   H22   S    
C21   C24   A    
C2    N1    A    
O7    Zn1   S    
C4    C27   S    
C21   H2    S    
C10   H21   S    
C15   C17   S    
C28   C29   A    
C8    C14   S    
C27   C32   A    
C36   H16   S    
C10   C13   S    
N2    Zn2   S    
C28   H9    S    
C43   H6    S    
C2    H3    S    
C39   H19   S    
C30   H11   S    
C1    O1    A    
C31   H13   S    
C3    N2    A    
C9    C15   S    
C30   C31   A    
C38   C39   A    
C21   C40   A    
C33   C35   A    
C44   N2    A    
C24   H24   S    
C42   H5    S    
C7    O10   A    
C6    C42   A    
C13   C16   S    
C12   C18   S    
C27   C28   A    
C4    N1    A    
C44   H4    S    
C7    O8    A    
C38   H18   S    
