data_mof_unit_22229.cif
_audit_creation_date              2013-03-05T16:45:56-0500
_audit_creation_method            fapswitch 2.2
_symmetry_space_group_name_H-M    P1
_symmetry_Int_Tables_number       1
_space_group_crystal_system       triclinic
_cell_length_a                    9.866412
_cell_length_b                    10.671038
_cell_length_c                    16.58249
_cell_angle_alpha                 89.434718
_cell_angle_beta                  94.556807
_cell_angle_gamma                 90.051517
_cell_volume                      1740.28173267

loop_
_atom_site_label
_atom_site_type_symbol
_atom_site_description
_atom_site_fract_x
_atom_site_fract_y
_atom_site_fract_z
_atom_type_partial_charge
O1    O     O_R   0.614690 0.316790 0.499990 -0.645313
O2    O     O_R   0.385350 0.316760 0.500000 -0.628645
C1    C     C_R   0.499626 0.260404 0.499444 0.892884
O3    O     O_R   0.627460 0.498860 0.616130 -0.569036
O4    O     O_R   0.398120 0.498820 0.616130 -0.599108
C2    C     C_R   0.518003 0.498119 0.653855 0.958971
Zn1   Zn    Zn3+2 0.653130 0.500020 0.499990 1.091392
Zn2   Zn    Zn3+2 0.346870 0.499980 0.500010 1.031404
O5    O     O_R   0.614650 0.683240 0.500000 -0.541918
O6    O     O_R   0.385310 0.683210 0.500010 -0.589521
O7    O     O_R   0.601880 0.501180 0.383870 -0.564776
O8    O     O_R   0.372540 0.501140 0.383870 -0.608669
C3    C     C_R   0.500289 0.739530 0.502688 0.979916
C4    C     C_R   0.482031 0.499567 0.346092 0.997680
C5    C     C_R   0.529437 0.481248 0.741034 -0.128570
C6    C     C_R   0.438710 0.397402 0.773497 -0.234225
C7    C     C_R   0.446267 0.373342 0.855677 -0.072064
C8    C     C_R   0.545387 0.433656 0.907134 0.280301
C9    C     C_R   0.640752 0.512225 0.874552 -0.181900
C10   C     C_R   0.633281 0.538573 0.791555 0.304128
C11   C     C_R   0.547248 0.343529 0.152860 0.237885
C12   C     C_R   0.561992 0.386179 0.232124 -0.255369
C13   C     C_R   0.439556 0.391552 0.100619 0.052326
N1    N     N_2   0.544717 0.428130 0.992126 -0.110980
N2    N     N_2   0.440237 0.379956 0.016537 -0.072887
C14   C     C_R   0.469773 0.472319 0.260123 -0.290474
H1    H     H_    0.643436 0.348867 0.273106 0.260171
H2    H     H_    0.716152 0.558878 0.914826 0.209631
C15   C     C_R   0.358306 0.515462 0.208781 0.161119
C16   C     C_R   0.343487 0.472752 0.129205 0.583839
H3    H     H_    0.372758 0.309744 0.878852 0.195857
H4    H     H_    0.362199 0.349279 0.734942 0.171598
C17   C     C_R   0.570765 0.063162 0.445391 -0.010695
C18   C     C_R   0.495661 0.128745 0.498205 -0.139957
C19   C     C_R   0.406021 0.066335 0.546061 -0.228358
H5    H     H_    0.342748 0.118617 0.584406 0.181766
C20   C     C_R   0.408030 0.936466 0.550804 0.304298
C21   C     C_R   0.498755 0.871536 0.504212 -0.126265
C22   C     C_R   0.572526 0.935372 0.448635 -0.121003
C23   C     C_3   0.719692 0.929319 0.432963 0.463709
C24   C     C_3   0.717106 0.071449 0.428959 0.392796
H6    H     H_    0.737986 0.882938 0.375088 0.170945
H7    H     H_    0.782639 0.117956 0.477176 0.112465
C25   C     C_R   0.079885 0.458738 0.566329 0.156503
N3    N     N_R   0.142860 0.499130 0.500540 -0.146523
C26   C     C_R   0.064020 0.553241 0.438219 -0.155595
H8    H     H_    0.111765 0.594428 0.387812 0.223410
C27   C     C_R   0.920149 0.553644 0.438226 0.703353
N4    N     N_R   0.857210 0.499170 0.500530 -0.206993
C28   C     C_R   0.937454 0.459491 0.566520 0.095314
C29   C     C_3   0.936152 0.332672 0.604603 0.502341
C30   C     C_3   0.089995 0.331116 0.603766 -0.526819
H9    H     H_    0.882858 0.260929 0.566015 0.075922
H10   H     H_    0.143540 0.332060 0.665203 0.240651
H11   H     H_    0.127352 0.259961 0.562311 0.183212
N5    N     N_R   0.326941 0.873971 0.607377 0.226152
O9    O     O_R   0.378723 0.784030 0.653569 -0.341724
O10   O     O_R   0.208649 0.919008 0.621422 -0.315712
F1    F     F_    0.800383 0.884952 0.499306 -0.603988
F2    F     F_    0.732363 0.117194 0.351823 -0.625607
F3    F     F_    0.845062 0.607366 0.375254 -0.608313
F4    F     F_    0.894133 0.337686 0.682187 -0.586344
N6    N     N_R   0.641706 0.253154 0.125755 0.260030
O11   O     O_R   0.606308 0.179593 0.065564 -0.303527
O12   O     O_R   0.759861 0.236746 0.165199 -0.269503
N7    N     N_R   0.726654 0.627391 0.760821 0.238214
O13   O     O_R   0.849687 0.636736 0.794826 -0.280562
O14   O     O_R   0.684298 0.710498 0.706637 -0.316051
N8    N     N_R   0.264761 0.606908 0.235198 0.245187
O15   O     O_R   0.309368 0.702521 0.277651 -0.367600
O16   O     O_R   0.136306 0.601436 0.210672 -0.255181
F5    F     F_    0.243091 0.519731 0.076677 -0.555595

loop_
_geom_bond_atom_site_label_1
_geom_bond_atom_site_label_2
_geom_bond_distance
_ccdc_geom_bond_type
O4    Zn2   1.951524 S    
C16   F5    1.358816 S    
N1    N2    1.245787 D    
N6    O12   1.301701 A    
C15   C16   1.396933 A    
C29   C30   1.519155 S    
C6    C7    1.380415 A    
C6    H4    1.082317 S    
N7    O14   1.301431 A    
C19   H5    1.084427 S    
C30   H11   1.111756 S    
O8    C4    1.291319 A    
C17   C18   1.386365 A    
Zn2   O8    1.962239 S    
C17   C24   1.492861 S    
C25   C30   1.491218 S    
C23   H6    1.111588 S    
C7    C8    1.405649 A    
C27   F3    1.354237 S    
Zn2   N3    2.013576 S    
N4    C28   1.362846 A    
C23   F1    1.385451 S    
O1    Zn1   1.991363 S    
C11   C12   1.391842 A    
C4    C14   1.453326 S    
Zn1   O7    1.951524 S    
C9    H2    1.083619 S    
C24   H7    1.108493 S    
C3    C21   1.409228 S    
C17   C22   1.364259 A    
C29   F4    1.384210 S    
O3    Zn1   1.962239 S    
C8    N1    1.410574 S    
O4    C2    1.293374 A    
C10   N7    1.438838 S    
C27   N4    1.371266 A    
C19   C20   1.387362 A    
C20   C21   1.414154 A    
C30   H10   1.109858 S    
C28   C29   1.488211 S    
C15   N8    1.438843 S    
C12   H1    1.083763 S    
C11   C13   1.409960 A    
N8    O15   1.301696 A    
C7    H3    1.082833 S    
O7    C4    1.293626 A    
C26   C27   1.419506 A    
C11   N6    1.441308 S    
N8    O16   1.301355 A    
C5    C6    1.399005 A    
N6    O11   1.301520 A    
C13   C16   1.398184 A    
C22   C23   1.496817 S    
C13   N2    1.401538 S    
C21   C22   1.391577 A    
N5    O9    1.301180 A    
Zn1   N4    2.012875 S    
C14   C15   1.410932 A    
O3    C2    1.290322 A    
C18   C19   1.398396 A    
C12   C14   1.401939 A    
C25   C28   1.405561 A    
N7    O13   1.301379 A    
Zn1   O5    1.992007 S    
C8    C9    1.396633 A    
O5    C3    1.282840 A    
C26   H8    1.081069 S    
C23   C24   1.517627 S    
O2    C1    1.279046 A    
C1    C18   1.405759 S    
C29   H9    1.107938 S    
C2    C5    1.450518 S    
N3    C26   1.366675 A    
C20   N5    1.439056 S    
Zn2   O6    1.991363 S    
O2    Zn2   1.992007 S    
C25   N3    1.363799 A    
C9    C10   1.398198 A    
C24   F2    1.383900 S    
N5    O10   1.301452 A    
C5    C10   1.413645 A    
O1    C1    1.283820 A    
O6    C3    1.281165 A    
