data_mof_unit_33111.cif
_audit_creation_date              2012-12-10T18:47:44-0500
_audit_creation_method            fapswitch 2.2
_symmetry_space_group_name_H-M    P1
_symmetry_Int_Tables_number       1
_space_group_crystal_system       triclinic
_cell_length_a                    9.847381
_cell_length_b                    10.751473
_cell_length_c                    15.325826
_cell_angle_alpha                 89.996072
_cell_angle_beta                  67.183199
_cell_angle_gamma                 90.891079
_cell_volume                      1495.42097239

loop_
_atom_site_label
_atom_site_type_symbol
_atom_type_description
_atom_site_fract_x
_atom_site_fract_y
_atom_site_fract_z
_atom_type_partial_charge
C1    C     C_R   0.501989 0.739979 0.498866 0.892811
C2    C     C_R   0.498173 0.259889 0.500932 0.904903
C3    C     C_R   0.388710 0.316887 0.081099 0.212440
C4    C     C_R   0.697746 0.465633 0.881123 0.197463
C5    C     C_R   0.286711 0.296899 0.039357 -0.307493
C6    C     C_R   0.796296 0.494260 0.923794 -0.288312
C7    C     C_R   0.638120 0.940574 0.464883 0.210921
C8    C     C_R   0.363147 0.058864 0.533208 0.204131
C9    C     C_R   0.632488 0.068349 0.467106 -0.298442
C10   C     C_R   0.368798 0.931263 0.533080 -0.290683
C11   C     C_R   0.496529 0.127345 0.500454 -0.105045
C12   C     C_R   0.504450 0.872338 0.498273 -0.102021
C13   C     C_R   0.959935 0.418284 0.445199 0.647044
C14   C     C_R   0.039997 0.581534 0.555017 0.630151
C15   C     C_R   0.104269 0.419642 0.444219 -0.318098
C16   C     C_R   0.896588 0.582171 0.554320 -0.283426
C17   C     C_R   0.407130 0.495079 0.677095 0.872459
C18   C     C_R   0.592919 0.500275 0.322822 0.869181
C19   C     C_R   0.349368 0.464290 0.778790 -0.162600
C20   C     C_R   0.654621 0.492851 0.218971 -0.120060
C21   C     C_R   0.200896 0.336197 0.913802 -0.219823
C22   C     C_R   0.847769 0.527030 0.063702 -0.249841
C23   C     C_R   0.225249 0.384691 0.823304 0.211238
C24   C     C_R   0.801037 0.528811 0.162332 0.199603
C25   C     C_R   0.443647 0.491430 0.824769 -0.256573
C26   C     C_R   0.561551 0.449217 0.175932 -0.264850
C27   C     C_R   0.435452 0.423833 0.904451 0.108650
C28   C     C_R   0.610441 0.438353 0.077645 0.086422
C29   C     C_R   0.306540 0.353104 0.953234 0.071100
C30   C     C_R   0.752272 0.485814 0.021463 0.091821
C31   C     C_R   0.549966 0.428968 0.938607 -0.008262
C32   C     C_R   0.515906 0.393908 0.033975 -0.013280
H1    H     H_    0.190693 0.237841 0.074978 0.152927
H2    H     H_    0.906953 0.526283 0.880579 0.157471
H3    H     H_    0.447489 0.430487 0.220028 0.197043
H4    H     H_    0.529609 0.560934 0.793777 0.186807
H5    H     H_    0.103441 0.280370 0.952158 0.155965
H6    H     H_    0.957721 0.560817 0.020222 0.149809
H7    H     H_    0.735196 0.121332 0.440715 0.215396
H8    H     H_    0.266066 0.878372 0.560797 0.217664
H9    H     H_    0.185114 0.356395 0.398812 0.185463
H10   H     H_    0.816677 0.647518 0.598059 0.189508
N1    N     N_R   0.142780 0.500030 0.500020 -0.136619
N2    N     N_R   0.857220 0.499970 0.499980 -0.135745
O1    O     O_R   0.385370 0.683250 0.500010 -0.577081
O2    O     O_R   0.614630 0.316750 0.499990 -0.584450
O3    O     O_R   0.614700 0.683220 0.500000 -0.594277
O4    O     O_R   0.385300 0.316780 0.500000 -0.590027
O5    O     O_R   0.319830 0.500020 0.632250 -0.574353
O6    O     O_R   0.680170 0.499980 0.367750 -0.542782
O7    O     O_R   0.549160 0.499990 0.632240 -0.620101
O8    O     O_R   0.450840 0.500010 0.367760 -0.630173
Zn1   Zn    Zn3+2 0.346870 0.500020 0.500000 0.997085
Zn2   Zn    Zn3+2 0.653130 0.499980 0.500000 1.003310
N3    N     N_2   0.897562 0.576551 0.203574 -0.299791
H11   H     H_    0.936605 0.664683 0.179098 0.210486
C33   C     C_3   0.016519 0.494737 0.196240 -0.696283
H12   H     H_    0.097446 0.491778 0.121864 0.216048
H13   H     H_    0.973626 0.399234 0.220224 0.284935
H14   H     H_    0.073485 0.530208 0.241359 0.234429
N4    N     N_2   0.132468 0.349211 0.774861 -0.284767
H15   H     H_    0.086721 0.421746 0.752387 0.251917
C34   C     C_3   0.038784 0.239375 0.805945 -0.808301
H16   H     H_    0.995354 0.213382 0.751733 0.243660
H17   H     H_    0.944034 0.257897 0.873202 0.245876
H18   H     H_    0.102783 0.159659 0.814906 0.244422
N5    N     N_2   0.368266 0.249816 0.165680 -0.322830
H19   H     H_    0.260215 0.225472 0.206181 0.236126
C35   C     C_3   0.467446 0.147365 0.153242 -0.780976
H20   H     H_    0.447415 0.075220 0.107488 0.240412
H21   H     H_    0.448348 0.105224 0.223283 0.238407
H22   H     H_    0.584024 0.180029 0.120896 0.253279
N6    N     N_2   0.752425 0.464806 0.780234 -0.313650
H23   H     H_    0.845754 0.518772 0.746659 0.241750
C36   C     C_3   0.755834 0.344568 0.736429 -0.745762
H24   H     H_    0.866533 0.329460 0.680231 0.216542
H25   H     H_    0.674820 0.341958 0.702623 0.271137
H26   H     H_    0.729500 0.266943 0.788689 0.237145
N7    N     N_2   0.777797 0.882250 0.428923 -0.279468
H27   H     H_    0.857906 0.929267 0.444311 0.225161
C37   C     C_3   0.828582 0.849835 0.329990 -0.752538
H28   H     H_    0.933892 0.799395 0.309241 0.236959
H29   H     H_    0.847569 0.935222 0.285645 0.226822
H30   H     H_    0.746552 0.788452 0.317092 0.238970
N8    N     N_2   0.223545 0.116837 0.570052 -0.279153
H31   H     H_    0.158627 0.084218 0.636713 0.225817
C38   C     C_3   0.145040 0.111739 0.507486 -0.729377
H32   H     H_    0.109842 0.014555 0.501229 0.226554
H33   H     H_    0.216110 0.147389 0.436008 0.247003
H34   H     H_    0.045424 0.169936 0.536589 0.234939
F1    F     F_    0.923469 0.334877 0.391387 -0.692715
F2    F     F_    0.075271 0.662354 0.611062 -0.687551

loop_
_geom_bond_atom_site_label_1
_geom_bond_atom_site_label_2
_ccdc_geom_bond_type
C38   H32   S    
C34   H17   S    
C27   C29   A    
N6    H23   S    
N3    H11   S    
C17   O7    A    
C37   H28   S    
C18   O8    A    
N8    H31   S    
C2    O2    A    
C24   N3    S    
O6    Zn2   S    
C22   C24   A    
C33   H13   S    
C22   H6    S    
C9    H7    S    
C10   H8    S    
C8    N8    S    
C35   H21   S    
N1    Zn1   S    
C20   C24   A    
C5    H1    S    
C16   N2    A    
N4    H15   S    
C34   H18   S    
O1    Zn1   S    
C13   F1    S    
N6    C36   S    
C35   H20   S    
C1    C12   S    
C2    C11   S    
C37   H29   S    
C5    C29   A    
N8    C38   S    
O4    Zn1   S    
C27   C31   A    
N5    H19   S    
C28   C32   A    
C15   H9    S    
C4    C6    A    
C17   O5    A    
N7    C37   S    
C1    O3    A    
C33   H14   S    
C2    O4    A    
C21   C29   A    
C6    H2    S    
N5    C35   S    
C35   H22   S    
C19   C23   A    
C36   H24   S    
C36   H25   S    
C31   C32   A    
O2    Zn2   S    
N4    C34   S    
N3    C33   S    
C9    C11   A    
C14   F2    S    
C4    N6    S    
C10   C12   A    
O3    Zn2   S    
C6    C30   A    
C13   C15   A    
C14   C16   A    
C7    C12   A    
C16   H10   S    
C37   H30   S    
O8    Zn1   S    
C18   O6    A    
C7    N7    S    
C7    C9    A    
C22   C30   A    
C3    N5    S    
C34   H16   S    
C3    C5    A    
C25   C27   A    
C26   C28   A    
O7    Zn2   S    
C21   C23   A    
C15   N1    A    
C1    O1    A    
C33   H12   S    
C20   C26   A    
C8    C11   A    
O5    Zn1   S    
C28   C30   A    
C17   C19   S    
C18   C20   S    
C3    C32   A    
C19   C25   A    
C36   H26   S    
C4    C31   A    
C25   H4    S    
N7    H27   S    
N2    Zn2   S    
C26   H3    S    
C23   N4    S    
C21   H5    S    
C8    C10   A    
C38   H34   S    
C38   H33   S    
C13   N2    A    
C14   N1    A    
