data_mof_unit_63117.cif
_audit_creation_date              2013-03-05T16:52:24-0500
_audit_creation_method            fapswitch 2.2
_symmetry_space_group_name_H-M    P1
_symmetry_Int_Tables_number       1
_space_group_crystal_system       triclinic
_cell_length_a                    15.828144
_cell_length_b                    15.095717
_cell_length_c                    27.553967
_cell_angle_alpha                 90.510813
_cell_angle_beta                  90.057982
_cell_angle_gamma                 89.736573
_cell_volume                      6583.33290937

loop_
_atom_site_label
_atom_site_type_symbol
_atom_site_description
_atom_site_fract_x
_atom_site_fract_y
_atom_site_fract_z
_atom_type_partial_charge
O1    O     O_R   0.378020 0.573650 0.500020 -0.592549
O2    O     O_R   0.621980 0.426350 0.499980 -0.605143
O3    O     O_R   0.621980 0.573650 0.499980 -0.594443
O4    O     O_R   0.378020 0.426350 0.500020 -0.607236
C1    C     C_R   0.338935 0.500143 0.499833 0.919440
C2    C     C_R   0.661097 0.499778 0.499813 0.914041
O5    O     O_R   0.500010 0.573660 0.428760 -0.593214
O6    O     O_R   0.499990 0.426340 0.571240 -0.619977
O7    O     O_R   0.499990 0.573660 0.571240 -0.594648
O8    O     O_R   0.500010 0.426340 0.428760 -0.621065
C3    C     C_R   0.500411 0.499566 0.405864 0.918865
C4    C     C_R   0.498367 0.500483 0.594171 0.915352
Zn1   Zn    Zn3+2 0.500000 0.598370 0.500000 1.031833
Zn2   Zn    Zn3+2 0.500000 0.401630 0.500000 0.990165
C5    C     C_R   0.424656 0.540966 0.179138 0.569300
C6    C     C_R   0.550112 0.570608 0.820548 0.568846
O9    O     O_2   0.356718 0.560774 0.206868 -0.543009
O10   O     O_2   0.620007 0.586038 0.793928 -0.548785
N1    N     N_R   0.498664 0.515004 0.200268 -0.341195
N2    N     N_R   0.476808 0.544858 0.798314 -0.341330
C7    C     C_R   0.570252 0.500696 0.173454 0.552182
C8    C     C_R   0.402195 0.541517 0.823409 0.551976
C9    C     C_R   0.557667 0.557456 0.278736 -0.178570
C10   C     C_R   0.425693 0.574437 0.716641 -0.179628
C11   C     C_R   0.560829 0.551731 0.328840 0.119817
C12   C     C_R   0.427771 0.560769 0.666959 0.124744
C13   C     C_R   0.444944 0.445034 0.326537 -0.130200
C14   C     C_R   0.541093 0.451721 0.677205 -0.129069
C15   C     C_R   0.448389 0.444571 0.275647 0.199493
C16   C     C_R   0.531977 0.459536 0.727818 0.197614
C17   C     C_R   0.501757 0.504854 0.251911 0.194332
C18   C     C_R   0.477769 0.525257 0.747293 0.191933
C19   C     C_R   0.492233 0.538466 0.100636 -0.086380
C20   C     C_R   0.478149 0.570876 0.897701 -0.088093
C21   C     C_R   0.418698 0.546140 0.128810 -0.049485
C22   C     C_R   0.553204 0.578940 0.870993 -0.046819
C23   C     C_R   0.339960 0.551429 0.106307 -0.133306
C24   C     C_R   0.628775 0.597803 0.895071 -0.134209
C25   C     C_R   0.570091 0.515993 0.123015 -0.093772
C26   C     C_R   0.400372 0.562207 0.873227 -0.091029
C27   C     C_R   0.502018 0.498573 0.353105 -0.171156
C28   C     C_R   0.488611 0.503008 0.646725 -0.172144
H1    H     H_    0.282913 0.547607 0.127889 0.216348
H2    H     H_    0.685311 0.613312 0.874781 0.213834
C29   C     C_R   0.404448 0.569504 0.975598 0.024861
C30   C     C_R   0.562638 0.553529 0.022574 0.026065
C31   C     C_R   0.559818 0.574202 0.972819 0.010393
C32   C     C_R   0.406722 0.558871 0.026794 0.010500
C33   C     C_R   0.480818 0.571247 0.948906 0.060715
C34   C     C_R   0.487155 0.551799 0.049941 0.060522
C35   C     C_R   0.329207 0.585551 0.949931 -0.206815
C36   C     C_R   0.637735 0.524124 0.044373 -0.205766
C37   C     C_R   0.325167 0.576380 0.899641 0.231009
C38   C     C_R   0.642929 0.506359 0.093664 0.232234
O11   O     O_2   0.331382 0.514872 0.800497 -0.506524
O12   O     O_2   0.640409 0.471412 0.195942 -0.509531
C39   C     C_R   0.333087 0.547892 0.056048 0.121145
C40   C     C_R   0.632289 0.598563 0.945535 0.120750
H3    H     H_    0.382439 0.623166 0.731706 0.182861
H4    H     H_    0.600172 0.601939 0.260286 0.181247
H5    H     H_    0.273314 0.608622 0.968233 0.193856
H6    H     H_    0.692645 0.509430 0.022531 0.194110
C41   C     C_R   0.955402 0.576431 0.480070 0.135098
C42   C     C_R   0.044552 0.418605 0.500649 0.125946
C43   C     C_R   0.043668 0.576861 0.480843 0.126486
C44   C     C_R   0.956407 0.417689 0.498607 0.129749
C45   C     C_R   0.912936 0.497120 0.489722 -0.056836
C46   C     C_R   0.087003 0.498290 0.491953 -0.062746
C47   C     C_1   0.823987 0.498155 0.493035 0.077512
C48   C     C_1   0.175915 0.499609 0.495055 0.069581
C49   C     C_1   0.250677 0.500253 0.497586 -0.110352
C50   C     C_1   0.749301 0.499074 0.496452 -0.115354
C51   C     C_R   0.514957 0.951774 0.456598 -0.031542
C52   C     C_R   0.480485 0.047958 0.543045 -0.028938
C53   C     C_R   0.481652 0.953238 0.543087 -0.032411
C54   C     C_R   0.515641 0.046452 0.456645 -0.029207
C55   C     C_R   0.498853 0.904884 0.499894 -0.051122
C56   C     C_R   0.498565 0.094990 0.499912 -0.049919
C57   C     C_1   0.499526 0.806870 0.499946 0.117612
C58   C     C_1   0.499364 0.193084 0.499987 0.062232
N3    N     N_1   0.500000 0.270550 0.500000 -0.089868
N4    N     N_1   0.500000 0.729450 0.500000 -0.072514
C59   C     C_R   0.377395 0.395233 0.351396 0.128339
C60   C     C_R   0.295781 0.431522 0.354866 -0.128574
C61   C     C_R   0.231754 0.384973 0.378358 -0.124110
C62   C     C_R   0.248909 0.302119 0.398464 -0.079584
C63   C     C_R   0.330209 0.266032 0.395512 -0.126955
C64   C     C_R   0.394220 0.312320 0.371924 -0.070321
H7    H     H_    0.281928 0.495705 0.339419 0.163519
H8    H     H_    0.168881 0.413107 0.381004 0.159780
H9    H     H_    0.199256 0.265886 0.416347 0.169873
H10   H     H_    0.343641 0.202363 0.411613 0.135956
H11   H     H_    0.457238 0.284820 0.370479 0.160601
C65   C     C_R   0.610286 0.396336 0.656921 0.123330
C66   C     C_R   0.694147 0.425815 0.660069 -0.129446
C67   C     C_R   0.759970 0.373387 0.641675 -0.113292
C68   C     C_R   0.742422 0.291451 0.620011 -0.076190
C69   C     C_R   0.659050 0.262266 0.616198 -0.133722
C70   C     C_R   0.593184 0.314273 0.634845 -0.073047
H12   H     H_    0.708392 0.489115 0.676918 0.165258
H13   H     H_    0.824569 0.396147 0.644317 0.162905
H14   H     H_    0.793390 0.250543 0.606167 0.170950
H15   H     H_    0.645583 0.199385 0.598781 0.138723
H16   H     H_    0.528830 0.291575 0.631462 0.163586
C71   C     C_R   0.533732 0.094528 0.410889 0.099187
C72   C     C_R   0.607019 0.146120 0.406846 -0.151782
C73   C     C_R   0.626674 0.186948 0.362942 -0.121177
C74   C     C_R   0.573819 0.175995 0.322682 -0.115066
C75   C     C_R   0.500643 0.125046 0.326429 -0.131212
C76   C     C_R   0.480219 0.085022 0.370432 -0.161625
H17   H     H_    0.649442 0.153610 0.437464 0.150503
H18   H     H_    0.683231 0.226563 0.360028 0.163898
H19   H     H_    0.589209 0.207496 0.288703 0.167300
H20   H     H_    0.459417 0.117121 0.295347 0.167140
H21   H     H_    0.423237 0.045889 0.372883 0.143645
C77   C     C_R   0.464078 0.904443 0.588619 0.105378
C78   C     C_R   0.528322 0.854686 0.610905 -0.158163
C79   C     C_R   0.513383 0.812918 0.655143 -0.105065
C80   C     C_R   0.434544 0.820995 0.677556 -0.086848
C81   C     C_R   0.370001 0.869474 0.655333 -0.088104
C82   C     C_R   0.384429 0.910691 0.610884 -0.102661
H22   H     H_    0.590205 0.849448 0.594360 0.140306
H23   H     H_    0.563105 0.774846 0.672244 0.152312
H24   H     H_    0.423255 0.789125 0.711958 0.137735
H25   H     H_    0.308794 0.875149 0.672580 0.153821
H26   H     H_    0.334098 0.948524 0.594156 0.143142
C83   C     C_R   0.459039 0.097616 0.588375 0.098586
C84   C     C_R   0.385638 0.150269 0.590506 -0.148991
C85   C     C_R   0.362269 0.192263 0.633931 -0.120423
C86   C     C_R   0.411481 0.181457 0.675625 -0.119046
C87   C     C_R   0.484750 0.129512 0.673804 -0.129162
C88   C     C_R   0.508861 0.088244 0.630313 -0.162905
H27   H     H_    0.345885 0.157605 0.558759 0.151112
H28   H     H_    0.305629 0.232643 0.635347 0.168148
H29   H     H_    0.393210 0.213845 0.709233 0.165281
H30   H     H_    0.523164 0.121691 0.706011 0.164895
H31   H     H_    0.565841 0.048289 0.629401 0.142101
C89   C     C_R   0.530884 0.901572 0.410791 0.103071
C90   C     C_R   0.465962 0.851380 0.389401 -0.154990
C91   C     C_R   0.479097 0.808461 0.344857 -0.104615
C92   C     C_R   0.556784 0.815820 0.321236 -0.086085
C93   C     C_R   0.622014 0.864736 0.342553 -0.083632
C94   C     C_R   0.609392 0.907139 0.387296 -0.101884
H32   H     H_    0.404904 0.846711 0.406880 0.144094
H33   H     H_    0.428860 0.770029 0.328467 0.153128
H34   H     H_    0.566715 0.782892 0.286639 0.141327
H35   H     H_    0.682356 0.869823 0.324379 0.155904
H36   H     H_    0.660213 0.945328 0.403306 0.143879
I1    I     I_    0.377672 0.348645 0.235128 -0.293130
I2    I     I_    0.595346 0.368058 0.774446 -0.296795
I3    I     I_    0.333176 0.626468 0.625442 -0.306432
I4    I     I_    0.660583 0.619671 0.365014 -0.298549
I5    I     I_    0.203866 0.597822 0.868168 -0.177678
I6    I     I_    0.765917 0.466406 0.117013 -0.156257
I7    I     I_    0.213577 0.495072 0.033750 -0.252634
I8    I     I_    0.742192 0.661001 0.974922 -0.271251
I9    I     I_    0.112698 0.695573 0.466555 -0.268320
I10   I     I_    0.887804 0.297302 0.508555 -0.343013
I11   I     I_    0.885013 0.694668 0.465038 -0.242352
I12   I     I_    0.114428 0.301516 0.518806 -0.342326

loop_
_geom_bond_atom_site_label_1
_geom_bond_atom_site_label_2
_geom_bond_distance
_ccdc_geom_bond_type
C67   H13   1.082328 S    
C71   C76   1.406064 A    
C41   C43   1.397278 A    
C37   I5    2.130494 S    
C54   C71   1.489021 S    
C1    C49   1.398268 S    
C13   C15   1.403293 A    
C73   H18   1.082297 S    
C66   C67   1.398236 A    
C35   H5    1.073876 S    
C41   I11   2.143027 S    
C63   C64   1.397558 A    
O3    C2    1.272987 A    
N1    C17   1.433313 S    
C84   C85   1.398410 A    
C68   C69   1.396694 A    
C89   C90   1.405477 A    
C32   C39   1.428867 A    
C31   C33   1.413506 A    
C80   H24   1.082224 S    
C74   C75   1.397701 A    
C5    N1    1.365019 A    
C39   I7    2.143425 S    
C19   C25   1.418567 A    
C11   I4    2.128793 S    
O1    C1    1.272892 A    
C42   C46   1.403128 A    
C12   I3    2.130057 S    
N1    C7    1.368595 A    
C10   C12   1.382963 A    
C62   H9    1.081281 S    
C56   C58   1.480895 S    
C16   I2    2.140078 S    
C25   C38   1.415141 A    
C72   C73   1.398556 A    
C29   C35   1.405636 A    
C69   H15   1.081821 S    
C30   C36   1.403252 A    
C77   C78   1.405429 A    
C14   C65   1.481668 S    
C30   C31   1.409351 A    
C14   C28   1.413895 A    
O7    Zn1   2.001334 S    
C79   C80   1.397225 A    
C4    C28   1.456572 S    
C19   C21   1.403490 A    
C24   C40   1.391494 A    
C86   H29   1.082324 S    
C73   C74   1.397833 A    
C48   C49   1.185399 T    
C68   H14   1.081448 S    
O3    Zn1   1.964762 S    
C6    N2    1.367895 A    
C51   C89   1.487519 S    
C32   C34   1.427332 A    
C59   C64   1.402389 A    
C63   H10   1.082276 S    
O2    C2    1.272178 A    
C5    C21   1.392702 A    
C36   C38   1.389033 A    
C72   H17   1.083172 S    
C55   C57   1.479585 S    
C9    H4    1.083034 S    
C90   C91   1.398046 A    
C41   C45   1.403345 A    
C52   C53   1.429914 A    
C70   H16   1.079871 S    
C44   C45   1.403019 A    
C91   C92   1.397188 A    
C43   I9    2.142822 S    
C87   H30   1.082254 S    
C77   C82   1.404999 A    
C11   C27   1.405407 A    
C62   C63   1.397229 A    
O4    C1    1.271765 A    
C19   C34   1.415208 A    
C61   C62   1.397830 A    
Zn1   N4    1.978748 S    
C82   H26   1.083070 S    
C45   C47   1.410947 S    
C9    C17   1.398094 A    
C74   H19   1.082357 S    
C23   H1    1.083729 S    
C47   C50   1.185986 T    
O5    C3    1.279240 A    
C78   H22   1.083067 S    
C10   C18   1.395739 A    
C24   H2    1.083225 S    
C57   N4    1.168722 T    
C90   H32   1.083102 S    
C13   C27   1.414214 A    
C52   C83   1.489640 S    
C7    C25   1.410868 A    
C29   C33   1.416068 A    
O6    C4    1.280524 A    
C43   C46   1.403404 A    
C8    C26   1.405342 A    
C67   C68   1.397495 A    
C42   I12   2.143452 S    
C2    C50   1.399254 S    
C60   C61   1.398492 A    
C80   C81   1.397857 A    
C53   C55   1.416592 A    
C40   I8    2.137453 S    
C75   H20   1.082289 S    
C92   H34   1.082427 S    
C6    O10   1.350280 S    
N2    C8    1.370497 A    
C26   C37   1.410347 A    
O8    Zn2   2.001339 S    
C51   C54   1.429321 A    
C20   C26   1.409120 A    
C59   C60   1.403848 A    
O1    Zn1   1.968136 S    
C60   H7    1.083142 S    
C83   C84   1.405635 A    
C44   I10   2.141151 S    
C81   C82   1.398137 A    
C12   C28   1.408246 A    
C85   C86   1.397696 A    
N2    C18   1.434114 S    
C29   C32   1.421586 A    
C5    O9    1.350623 S    
C64   H11   1.079275 S    
C20   C33   1.411453 A    
O6    Zn2   1.994800 S    
C21   C23   1.393724 A    
C66   H12   1.083204 S    
C93   H35   1.082221 S    
C54   C56   1.419325 A    
C58   N3    1.169487 T    
C91   H33   1.082426 S    
C38   I6    2.135590 S    
C7    O12   1.345894 S    
C61   H8    1.082478 S    
C8    O11   1.347146 S    
C71   C72   1.405231 A    
C30   C34   1.413938 A    
C78   C79   1.398181 A    
C89   C94   1.404942 A    
C22   C24   1.396479 A    
C86   C87   1.397630 A    
C88   H31   1.082861 S    
C14   C16   1.406021 A    
C15   C17   1.410039 A    
C36   H6    1.078731 S    
C84   H27   1.083212 S    
C6    C22   1.395343 A    
C31   C40   1.423639 A    
C16   C18   1.411395 A    
C65   C70   1.402568 A    
C10   H3    1.082880 S    
C13   C59   1.481726 S    
C81   H25   1.082214 S    
C3    C27   1.453899 S    
C20   C22   1.404420 A    
C79   H23   1.082423 S    
C9    C11   1.384888 A    
O4    Zn2   1.964765 S    
C65   C66   1.404267 A    
O2    Zn2   1.968133 S    
O7    C4    1.277856 A    
C94   H36   1.083062 S    
O8    C3    1.277682 A    
C15   I1    2.140064 S    
C85   H28   1.082331 S    
O5    Zn1   1.994805 S    
C46   C48   1.410045 S    
C69   C70   1.397709 A    
C52   C56   1.419889 A    
C75   C76   1.398304 A    
C51   C55   1.416524 A    
C93   C94   1.398142 A    
C53   C77   1.487614 S    
Zn2   N3    1.978748 S    
C35   C37   1.392801 A    
C92   C93   1.397973 A    
C76   H21   1.082923 S    
C23   C39   1.389562 A    
C87   C88   1.398299 A    
C42   C44   1.396379 A    
C83   C88   1.406133 A    
