data_mof_unit_67501.cif
_audit_creation_date              2012-12-10T16:46:44-0500
_audit_creation_method            fapswitch 2.2
_symmetry_space_group_name_H-M    P1
_symmetry_Int_Tables_number       1
_space_group_crystal_system       triclinic
_cell_length_a                    15.956582
_cell_length_b                    8.947825
_cell_length_c                    7.688557
_cell_angle_alpha                 102.916701
_cell_angle_beta                  94.514966
_cell_angle_gamma                 94.052292
_cell_volume                      1062.23946226

loop_
_atom_site_label
_atom_site_type_symbol
_atom_type_description
_atom_site_fract_x
_atom_site_fract_y
_atom_site_fract_z
_atom_type_partial_charge
C1    C     C_R   0.498407 0.201180 0.454572 0.886988
C2    C     C_3   0.964113 0.463344 0.700386 -0.171233
C3    C     C_3   0.919563 0.506380 0.527184 0.125757
C4    C     C_3   0.959810 0.671636 0.526814 -0.105676
C5    C     C_3   0.057523 0.679539 0.554583 -0.468383
C6    C     C_1   0.826242 0.513334 0.523641 -0.073893
C7    C     C_1   0.178919 0.518585 0.516294 -0.066269
C8    C     C_1   0.253459 0.513809 0.509093 -0.187954
C9    C     C_2   0.494291 0.033645 0.434335 -0.399607
C10   C     C_2   0.520073 0.966654 0.568753 -0.183063
C11   C     C_R   0.341617 0.503919 0.502299 0.809392
C12   C     C_R   0.505354 0.799209 0.545788 0.761486
C13   C     C_R   0.659426 0.505628 0.500925 0.817212
C14   C     C_3   0.058592 0.436019 0.674163 -0.036698
C15   C     C_3   0.041184 0.417401 0.338033 -0.193152
C16   C     C_3   0.941563 0.388612 0.349787 0.067119
C17   C     C_1   0.750062 0.513410 0.509313 -0.147137
C18   C     C_3   0.087104 0.512989 0.522568 0.210851
Cu1   Cu    Cu3+1 0.509300 0.517380 0.684380 0.947616
Cu2   Cu    Cu3+1 0.490700 0.482620 0.315620 0.934678
H1    H     H_    0.968430 0.559453 0.817147 0.136045
H2    H     H_    0.945493 0.690068 0.389553 0.122298
H3    H     H_    0.464472 0.963195 0.307774 0.161833
H4    H     H_    0.060913 0.311287 0.624681 0.163741
H5    H     H_    0.048581 0.499290 0.249646 0.126372
H6    H     H_    0.079951 0.749626 0.689353 0.191212
H7    H     H_    0.084630 0.742917 0.460024 0.152328
N1    N     N_2   0.476670 0.456430 0.038530 -0.104615
N2    N     N_2   0.523330 0.543570 0.961470 -0.108001
O1    O     O_R   0.506050 0.286130 0.619770 -0.566994
O2    O     O_R   0.490330 0.256780 0.308370 -0.607356
O3    O     O_R   0.387300 0.514690 0.655770 -0.613829
O4    O     O_R   0.371580 0.485340 0.344370 -0.597722
O5    O     O_R   0.509670 0.743220 0.691630 -0.621595
O6    O     O_R   0.493950 0.713870 0.380230 -0.596210
O7    O     O_R   0.628420 0.514660 0.655630 -0.570387
O8    O     O_R   0.612700 0.485310 0.344230 -0.593607
C19   C     C_2   0.916489 0.336669 0.761899 0.261582
H8    H     H_    0.849110 0.337773 0.771820 0.160960
O9    O     O_2   0.953441 0.235023 0.807707 -0.628302
C20   C     C_3   0.118056 0.468180 0.852304 -0.407262
C21   C     C_3   0.150822 0.636027 0.938954 -0.363663
C22   C     C_3   0.206641 0.648362 0.113416 -0.850198
H9    H     H_    0.167632 0.664438 0.227500 0.242553
H10   H     H_    0.240350 0.544045 0.111047 0.264501
H11   H     H_    0.254497 0.748720 0.135936 0.247302
H12   H     H_    0.189868 0.683823 0.847767 0.235556
H13   H     H_    0.097138 0.706558 0.969165 0.201793
H14   H     H_    0.084274 0.421293 0.951032 0.223856
H15   H     H_    0.173722 0.401189 0.826631 0.188359
C23   C     C_2   0.571149 0.053026 0.735238 0.409256
H16   H     H_    0.554242 0.038713 0.864250 0.065580
O10   O     O_2   0.634151 0.136539 0.728234 -0.529907
C24   C     C_3   0.399678 0.371149 0.940056 -0.062409
C25   C     C_3   0.377191 0.219434 0.994149 -0.379359
C26   C     C_3   0.306532 0.119591 0.864756 -0.981108
H17   H     H_    0.248009 0.179825 0.866912 0.259746
H18   H     H_    0.325460 0.092208 0.725920 0.261734
H19   H     H_    0.293179 0.009500 0.905594 0.265539
H20   H     H_    0.433392 0.152936 0.991572 0.232638
H21   H     H_    0.355295 0.241564 0.129513 0.251465
H22   H     H_    0.346695 0.444885 0.957465 0.152635
H23   H     H_    0.406816 0.333305 0.799703 0.221746
C27   C     C_3   0.597514 0.636592 0.058414 -0.054712
C28   C     C_3   0.604240 0.791832 0.008896 -0.397295
C29   C     C_3   0.660068 0.911188 0.144933 -0.979239
H24   H     H_    0.632472 0.933846 0.274896 0.283303
H25   H     H_    0.722328 0.866567 0.158887 0.278731
H26   H     H_    0.665469 0.019460 0.097581 0.285789
H27   H     H_    0.633058 0.780381 0.880460 0.254607
H28   H     H_    0.540644 0.834901 0.004250 0.246717
H29   H     H_    0.594343 0.664032 0.200652 0.225137
H30   H     H_    0.654833 0.576050 0.026877 0.179044
C30   C     C_3   0.087514 0.279587 0.233776 -0.394531
C31   C     C_3   0.118739 0.159807 0.334917 -0.356131
C32   C     C_3   0.171149 0.048379 0.220087 -0.887486
H31   H     H_    0.134117 0.988967 0.091850 0.262660
H32   H     H_    0.229076 0.110993 0.192113 0.263114
H33   H     H_    0.190137 0.961719 0.294927 0.247458
H34   H     H_    0.159700 0.215922 0.458589 0.223111
H35   H     H_    0.066043 0.089481 0.370568 0.209119
H36   H     H_    0.047493 0.219398 0.109917 0.230022
H37   H     H_    0.144473 0.330152 0.185692 0.213541
C33   C     C_3   0.916807 0.215338 0.351335 -0.338863
C34   C     C_3   0.823540 0.162651 0.362694 -0.286046
C35   C     C_3   0.816787 0.024158 0.444282 -0.962530
H38   H     H_    0.845512 0.927228 0.360593 0.244216
H39   H     H_    0.848815 0.055968 0.581316 0.304466
H40   H     H_    0.750578 0.990075 0.461492 0.279569
H41   H     H_    0.789625 0.245001 0.449404 0.248946
H42   H     H_    0.789366 0.135977 0.227655 0.265987
H43   H     H_    0.935295 0.140319 0.228602 0.191441
H44   H     H_    0.954389 0.184387 0.461091 0.212366
C36   C     C_2   0.895283 0.424135 0.182751 0.368805
H45   H     H_    0.925285 0.502433 0.112375 0.029222
O11   O     O_2   0.822085 0.375097 0.131427 -0.557758
C37   C     C_3   0.921212 0.808941 0.646596 -0.378198
C38   C     C_3   0.907744 0.806121 0.841259 -0.374300
C39   C     C_3   0.854894 0.932946 0.923592 -0.831112
H46   H     H_    0.887062 0.047049 0.930713 0.315899
H47   H     H_    0.791872 0.921625 0.846828 0.269669
H48   H     H_    0.846380 0.922121 0.061016 0.234267
H49   H     H_    0.869857 0.699139 0.847530 0.224941
H50   H     H_    0.969355 0.819309 0.923422 0.208836
H51   H     H_    0.958758 0.917763 0.643911 0.232632
H52   H     H_    0.857053 0.808176 0.581799 0.218448

loop_
_geom_bond_atom_site_label_1
_geom_bond_atom_site_label_2
_ccdc_geom_bond_type
C15   C18   S    
C29   H25   S    
C25   C26   S    
C20   C21   S    
C14   C18   S    
Cu1   Cu2   S    
C32   H33   S    
C1    O2    A    
C30   H37   S    
C22   H9    S    
C3    C6    S    
C37   C38   S    
C34   H42   S    
C7    C8    T    
C34   C35   S    
N1    N2    D    
C32   H32   S    
Cu1   O7    S    
C19   H8    S    
C35   H39   S    
C15   H5    S    
C29   H26   S    
C24   H23   S    
Cu1   O3    S    
C38   H49   S    
C16   C33   S    
C26   H17   S    
C14   H4    S    
C5    H7    S    
Cu2   O6    S    
C27   H30   S    
C9    C10   D    
C13   O8    A    
C33   H44   S    
C37   H51   S    
C29   H24   S    
N2    C27   S    
C4    C37   S    
C30   H36   S    
C10   C23   S    
C20   H14   S    
C30   C31   S    
C23   H16   S    
C11   O4    A    
C1    C9    S    
C33   C34   S    
C13   O7    A    
N1    C24   S    
C35   H38   S    
C31   H35   S    
C5    C18   S    
Cu2   N1    S    
C28   H28   S    
Cu1   O5    S    
C23   O10   D    
C31   C32   S    
C4    H2    S    
C2    C19   S    
C39   H46   S    
C7    C18   S    
C15   C30   S    
C2    H1    S    
C21   H13   S    
C32   H31   S    
C12   O6    A    
C36   O11   D    
C22   H10   S    
C10   C12   S    
C14   C20   S    
Cu2   O4    S    
C39   H47   S    
C11   O3    A    
C38   C39   S    
C21   C22   S    
C37   H52   S    
C12   O5    A    
C3    C4    S    
Cu1   N2    S    
C20   H15   S    
C31   H34   S    
C6    C17   T    
C24   C25   S    
C9    H3    S    
C4    C5    S    
C35   H40   S    
C34   H41   S    
C24   H22   S    
C16   C36   S    
C26   H19   S    
C13   C17   S    
C27   C28   S    
C2    C3    S    
C19   O9    D    
Cu2   O8    S    
C8    C11   S    
C38   H50   S    
C25   H21   S    
C1    O1    A    
C26   H18   S    
C21   H12   S    
C27   H29   S    
C36   H45   S    
C2    C14   S    
C22   H11   S    
C5    H6    S    
C39   H48   S    
C28   C29   S    
C33   H43   S    
C28   H27   S    
C25   H20   S    
Cu1   O1    S    
C3    C16   S    
C15   C16   S    
Cu2   O2    S    
