data_mof_unit_46853.cif
_audit_creation_date              2013-03-05T15:56:32-0500
_audit_creation_method            fapswitch 2.2
_symmetry_space_group_name_H-M    P1
_symmetry_Int_Tables_number       1
_space_group_crystal_system       triclinic
_cell_length_a                    12.359899
_cell_length_b                    13.169237
_cell_length_c                    27.777392
_cell_angle_alpha                 77.390881
_cell_angle_beta                  100.544489
_cell_angle_gamma                 116.740705
_cell_volume                      3921.72023934

loop_
_atom_site_label
_atom_site_type_symbol
_atom_site_description
_atom_site_fract_x
_atom_site_fract_y
_atom_site_fract_z
_atom_type_partial_charge
O1    O     O_R   0.972510 0.318140 0.514280 -0.578412
O2    O     O_R   0.806530 0.359640 0.495100 -0.606802
C1    C     C_R   0.855030 0.286558 0.504267 0.768415
O3    O     O_R   0.082990 0.479270 0.579320 -0.587106
O4    O     O_R   0.917010 0.520770 0.560140 -0.599427
C2    C     C_R   0.998125 0.498623 0.592360 0.816824
Cu1   Cu    Cu3+1 0.098270 0.475420 0.511360 1.007972
Cu2   Cu    Cu3+1 0.901730 0.524580 0.488640 0.935648
O5    O     O_R   0.193470 0.640360 0.504900 -0.539173
O6    O     O_R   0.027490 0.681860 0.485720 -0.595097
O7    O     O_R   0.082990 0.479230 0.439860 -0.510719
O8    O     O_R   0.917010 0.520730 0.420680 -0.601501
C3    C     C_R   0.145057 0.713512 0.492791 0.823778
C4    C     C_R   0.000030 0.499209 0.407820 0.809393
C5    C     C_R   0.935675 0.379539 0.829280 0.604386
O9    O     O_2   0.893583 0.279654 0.811422 -0.505898
N1    N     N_R   0.977658 0.481801 0.797866 -0.452292
C6    C     C_R   0.021734 0.584622 0.814695 0.596555
C7    C     C_R   0.888057 0.500702 0.710666 0.383734
C8    C     C_R   0.897155 0.507283 0.660366 -0.267214
C9    C     C_R   0.078519 0.473298 0.681219 -0.173512
C10   C     C_R   0.071282 0.467565 0.731214 -0.137738
C11   C     C_R   0.977339 0.481547 0.746269 0.238233
C12   C     C_R   0.979416 0.482930 0.898172 -0.039106
C13   C     C_R   0.935393 0.378187 0.879940 -0.027399
C14   C     C_R   0.891378 0.274592 0.912416 -0.127358
C15   C     C_R   0.023216 0.587092 0.865066 -0.028199
C16   C     C_R   0.991892 0.493777 0.645323 -0.104265
H1    H     H_    0.152269 0.462192 0.670723 0.187393
H2    H     H_    0.139822 0.453400 0.758517 0.170876
H3    H     H_    0.855901 0.192833 0.899231 0.192357
C17   C     C_R   0.997025 0.494818 0.355265 -0.048749
C18   C     C_R   0.940434 0.378426 0.033744 0.042743
C19   C     C_R   0.020556 0.590600 0.017827 0.043898
C20   C     C_R   0.980935 0.484869 0.051059 0.069945
C21   C     C_R   0.905264 0.276168 0.068816 -0.197148
C22   C     C_R   0.907366 0.278192 0.118751 -0.140599
C23   C     C_R   0.945015 0.382018 0.135954 -0.022844
C24   C     C_R   0.982001 0.485631 0.102292 -0.043220
C25   C     C_R   0.020237 0.590050 0.120030 -0.021469
C26   C     C_R   0.021330 0.589024 0.170745 0.536865
N2    N     N_R   0.985662 0.487366 0.202737 -0.467409
C27   C     C_R   0.947577 0.384788 0.186416 0.539277
C28   C     C_R   0.880873 0.447412 0.276407 -0.095318
C29   C     C_R   0.884688 0.450972 0.326523 -0.221862
C30   C     C_R   0.105239 0.536204 0.333089 -0.157783
C31   C     C_R   0.101416 0.533119 0.282949 -0.108772
C32   C     C_R   0.989268 0.488654 0.254470 0.348100
O10   O     O_2   0.913314 0.285974 0.218993 -0.535619
C33   C     C_R   0.937000 0.377573 0.982351 0.042695
C34   C     C_R   0.979804 0.483540 0.949364 0.073991
C35   C     C_R   0.023076 0.590136 0.966899 0.040827
C36   C     C_R   0.891733 0.273988 0.962488 -0.193618
H4    H     H_    0.800012 0.418744 0.342942 0.151678
H5    H     H_    0.793900 0.413468 0.254505 0.144351
H6    H     H_    0.879461 0.197389 0.143950 0.189212
H7    H     H_    0.876766 0.192343 0.059269 0.142888
H8    H     H_    0.854253 0.189997 0.984403 0.142874
O11   O     O_2   0.064011 0.684030 0.782727 -0.503930
C37   C     C_R   0.067991 0.691295 0.882821 -0.118976
H9    H     H_    0.828860 0.521421 0.632914 0.199419
H10   H     H_    0.103425 0.772619 0.858202 0.199600
C38   C     C_R   0.055923 0.693567 0.036910 -0.196728
C39   C     C_R   0.056028 0.693047 0.086932 -0.142741
O12   O     O_2   0.057198 0.688721 0.187973 -0.535765
C40   C     C_R   0.068377 0.693084 0.932621 -0.191724
H11   H     H_    0.083013 0.776824 0.014216 0.144062
H12   H     H_    0.192500 0.573978 0.353990 0.229226
H13   H     H_    0.084447 0.774394 0.099552 0.188411
H14   H     H_    0.185526 0.566020 0.266071 0.152369
H15   H     H_    0.106617 0.777469 0.942918 0.146207
C41   C     C_R   0.279125 0.023809 0.433958 -0.173376
H16   H     H_    0.097917 0.889204 0.435474 0.152934
H17   H     H_    0.462386 0.221326 0.403522 0.159443
H18   H     H_    0.249918 0.083258 0.408038 0.150756
C42   C     C_R   0.228628 0.835289 0.482657 -0.044709
C43   C     C_R   0.813561 0.083513 0.536176 -0.170111
C44   C     C_R   0.734000 0.968073 0.545740 -0.120119
C45   C     C_R   0.611521 0.931054 0.528439 -0.169342
C46   C     C_R   0.566508 0.009093 0.499198 0.082694
C47   C     C_R   0.650991 0.124024 0.484495 0.083353
C48   C     C_R   0.440694 0.976592 0.483555 0.077043
C49   C     C_R   0.402964 0.055009 0.449734 0.155925
C50   C     C_R   0.489367 0.162564 0.431051 -0.221555
C51   C     C_R   0.611614 0.195991 0.447532 -0.192233
C52   C     C_R   0.350809 0.868623 0.500855 -0.194349
C53   C     C_R   0.192286 0.913990 0.450055 -0.188190
C54   C     C_R   0.772936 0.163099 0.506760 -0.102082
H19   H     H_    0.373339 0.807547 0.528217 0.149571
H20   H     H_    0.906654 0.110900 0.552886 0.168768
H21   H     H_    0.555301 0.840318 0.537646 0.137999
H22   H     H_    0.766694 0.907254 0.568090 0.166539
H23   H     H_    0.674701 0.277888 0.429770 0.172125
C55   C     C_R   0.351845 0.341722 0.586108 0.257482
H24   H     H_    0.174915 0.328035 0.593287 0.190540
H25   H     H_    0.555691 0.305180 0.600040 0.228331
N3    N     N_R   0.246290 0.438210 0.528570 -0.256494
C56   C     C_R   0.765618 0.652151 0.435557 0.079376
C57   C     C_R   0.680003 0.696585 0.426970 -0.263628
C58   C     C_R   0.579356 0.643956 0.454113 -0.103905
C59   C     C_R   0.558665 0.541846 0.488242 0.043424
C60   C     C_R   0.654658 0.506633 0.499031 0.284431
C61   C     C_R   0.451162 0.478916 0.514524 -0.162287
C62   C     C_R   0.451981 0.396497 0.557035 0.002446
C63   C     C_R   0.551594 0.368851 0.568712 -0.158322
C64   C     C_R   0.647906 0.419592 0.539483 -0.208257
C65   C     C_R   0.340669 0.490770 0.498976 0.474104
C66   C     C_R   0.251405 0.367052 0.571288 -0.090739
N4    N     N_R   0.754320 0.561170 0.471730 -0.211664
H26   H     H_    0.845498 0.694713 0.415398 0.135019
H27   H     H_    0.523289 0.688792 0.449802 0.197717
H28   H     H_    0.693547 0.773913 0.400445 0.161567
H29   H     H_    0.717376 0.390228 0.551139 0.206312
N5    N     N_R   0.788564 0.513365 0.724724 0.150820
O13   O     O_R   0.728213 0.561189 0.692266 -0.322140
O14   O     O_R   0.751240 0.469749 0.768642 -0.311725
S1    S     S_3+6 0.348652 0.242373 0.641118 0.032477
O15   O     O_2   0.456211 0.299493 0.676801 -0.189427
O16   O     O_2   0.233863 0.202139 0.665274 -0.269084
O17   O     O_3   0.357036 0.127897 0.627552 -0.499682
H30   H     H_    0.290285 0.100203 0.601007 0.340307
N6    N     N_R   0.318901 0.538333 0.448754 0.110218
O18   O     O_R   0.324230 0.491503 0.413082 -0.399942
O19   O     O_R   0.312475 0.636803 0.438276 -0.407069

loop_
_geom_bond_atom_site_label_1
_geom_bond_atom_site_label_2
_geom_bond_distance
_ccdc_geom_bond_type
H25   C63   1.080007 S    
C59   C60   1.420168 A    
C56   H26   1.081588 S    
C26   N2    1.367175 A    
C20   C24   1.422945 A    
C7    C8    1.402925 A    
C12   C15   1.408384 A    
N5    O13   1.301791 A    
Cu1   Cu2   2.719241 S    
C31   H14   1.082879 S    
C43   C44   1.386624 A    
C28   C29   1.394584 A    
Cu1   O7    1.952035 S    
C55   C66   1.395544 A    
N1    C11   1.433257 S    
C21   C22   1.388400 A    
C15   C37   1.394555 A    
C41   H18   1.083853 S    
C23   C24   1.408275 A    
O7    C4    1.311201 A    
C5    C13   1.404073 A    
C5    O9    1.349664 S    
C18   C21   1.416671 A    
C37   H10   1.083621 S    
C19   C20   1.421752 A    
C17   C29   1.404537 A    
C8    H9    1.082855 S    
O5    C3    1.304938 A    
H16   C53   1.083171 S    
N3    C66   1.352967 A    
C51   H23   1.079970 S    
C2    C16   1.473257 S    
C49   C50   1.391660 A    
C43   C54   1.402784 A    
C10   H2    1.083028 S    
C45   H21   1.077265 S    
C12   C34   1.422863 A    
C37   C40   1.387748 A    
C14   H3    1.083606 S    
C59   C61   1.444032 A    
C56   N4    1.356400 A    
C9    C10   1.391370 A    
C22   H6    1.083582 S    
O3    Cu1   1.944928 S    
C62   C63   1.399750 A    
N1    C6    1.366786 A    
C38   H11   1.075524 S    
C43   H20   1.083335 S    
C33   C36   1.416721 A    
C64   H29   1.064909 S    
C34   C35   1.421783 A    
C41   C49   1.403868 A    
C31   C32   1.400194 A    
C12   C13   1.408524 A    
O3    C2    1.310087 A    
C21   H7    1.075507 S    
S1    O17   1.681785 S    
H17   C50   1.084126 S    
C24   C25   1.408140 A    
C44   C45   1.390030 A    
C27   O10   1.349734 S    
C26   O12   1.349881 S    
C8    C16   1.405803 A    
C7    N5    1.442644 S    
C44   H22   1.082851 S    
C18   C33   1.422747 A    
C48   C52   1.400865 A    
C9    H1    1.083117 S    
C52   H19   1.076726 S    
C38   C39   1.387773 A    
O1    C1    1.310715 A    
C7    C11   1.414777 A    
C40   H15   1.075542 S    
C30   H12   1.077906 S    
C22   C23   1.394894 A    
C57   C58   1.391251 A    
C3    C42   1.461741 S    
Cu2   O8    1.944923 S    
C33   C34   1.421861 A    
N2    C32   1.433118 S    
C39   H13   1.083601 S    
C50   C51   1.386586 A    
C42   C53   1.398682 A    
C55   S1    1.775104 S    
C46   C48   1.423061 A    
C25   C26   1.403491 A    
C9    C16   1.401784 A    
O8    C4    1.304197 A    
C29   H4    1.083478 S    
C56   C57   1.386727 A    
N2    C27   1.367118 A    
N6    O19   1.300798 A    
C14   C36   1.388393 A    
C42   C52   1.396321 A    
C41   C53   1.392821 A    
C35   C40   1.416536 A    
O17   H30   0.990633 S    
C61   C65   1.422149 A    
Cu1   O5    1.934415 S    
C30   C31   1.393755 A    
Cu1   N3    2.049432 S    
C1    C54   1.473004 S    
O1    Cu1   1.946358 S    
C17   C30   1.401552 A    
O2    Cu2   1.934415 S    
C6    C15   1.403246 A    
C4    C17   1.466612 S    
C46   C47   1.418434 A    
O6    C3    1.307699 A    
O4    Cu2   1.952040 S    
N5    O14   1.300979 A    
C36   H8    1.075509 S    
C5    N1    1.366777 A    
C63   C64   1.387010 A    
C19   C35   1.422062 A    
C25   C39   1.394695 A    
S1    O16   1.503535 D    
O2    C1    1.306446 A    
C13   C14   1.394756 A    
C23   C27   1.404324 A    
S1    O15   1.502988 D    
C28   H5    1.082814 S    
O4    C2    1.308424 A    
C57   H28   1.082615 S    
C19   C38   1.416477 A    
C18   C20   1.421846 A    
C60   C64   1.403356 A    
C47   C54   1.420853 A    
H24   C66   1.080947 S    
C55   C62   1.418584 A    
C45   C46   1.417798 A    
N3    C65   1.375330 A    
C6    O11   1.349834 S    
C58   H27   1.072458 S    
Cu2   O6    1.946357 S    
C48   C49   1.419856 A    
C61   C62   1.420741 A    
C10   C11   1.400260 A    
C60   N4    1.384280 A    
C58   C59   1.412459 A    
C65   N6    1.429561 S    
N6    O18   1.301450 A    
Cu2   N4    2.037260 S    
C47   C51   1.413033 A    
C28   C32   1.400247 A    
