data_mof_unit_46075.cif
_audit_creation_date              2012-12-10T16:49:23-0500
_audit_creation_method            fapswitch 2.2
_symmetry_space_group_name_H-M    P1
_symmetry_Int_Tables_number       1
_space_group_crystal_system       triclinic
_cell_length_a                    19.277095
_cell_length_b                    8.717334
_cell_length_c                    7.432929
_cell_angle_alpha                 101.974455
_cell_angle_beta                  94.92889
_cell_angle_gamma                 92.271355
_cell_volume                      1215.25039506

loop_
_atom_site_label
_atom_site_type_symbol
_atom_type_description
_atom_site_fract_x
_atom_site_fract_y
_atom_site_fract_z
_atom_type_partial_charge
C1    C     C_R   0.495187 0.200704 0.455780 0.861247
C2    C     C_R   0.504811 0.799296 0.544220 0.861224
C3    C     C_2   0.480939 0.036188 0.442059 -0.259954
C4    C     C_2   0.519058 0.963812 0.557941 -0.259955
C5    C     C_R   0.367333 0.497811 0.500821 0.787356
C6    C     C_R   0.632667 0.502189 0.499179 0.787349
C7    C     C_R   0.259220 0.524841 0.664386 -0.180270
C8    C     C_R   0.740780 0.475160 0.335614 -0.180270
C9    C     C_R   0.186803 0.518474 0.659984 -0.176736
C10   C     C_R   0.813197 0.481529 0.340016 -0.176738
C11   C     C_R   0.144961 0.475417 0.491232 0.048251
C12   C     C_R   0.855039 0.524586 0.508769 0.048251
C13   C     C_R   0.176611 0.432559 0.324278 -0.006464
C14   C     C_R   0.823389 0.567443 0.675723 -0.006462
C15   C     C_R   0.249355 0.443669 0.330645 -0.242713
C16   C     C_R   0.750645 0.556331 0.669355 -0.242723
C17   C     C_R   0.290995 0.489844 0.499499 -0.022685
C18   C     C_R   0.709005 0.510157 0.500502 -0.022688
C19   C     C_R   0.930620 0.513906 0.505994 0.455567
C20   C     C_R   0.069380 0.486097 0.494007 0.455568
Cu1   Cu    Cu3+1 0.507710 0.517380 0.684380 0.989624
Cu2   Cu    Cu3+1 0.492290 0.482620 0.315620 0.989624
H1    H     H_    0.163285 0.551695 0.788632 0.154235
H2    H     H_    0.836715 0.448308 0.211369 0.154235
H3    H     H_    0.273630 0.411977 0.202821 0.153827
H4    H     H_    0.726370 0.588023 0.797179 0.153825
H5    H     H_    0.445442 0.379246 0.948721 0.236719
H6    H     H_    0.554558 0.620753 0.051279 0.236717
N1    N     N_R   0.032973 0.558826 0.374765 -0.168661
N2    N     N_R   0.967027 0.441178 0.625236 -0.168662
N3    N     N_R   0.964625 0.571522 0.379736 -0.198507
N4    N     N_R   0.035375 0.428482 0.620265 -0.198507
N5    N     N_2   0.480680 0.456420 0.038530 -0.211621
N6    N     N_2   0.519320 0.543580 0.961470 -0.211623
O1    O     O_R   0.505010 0.286130 0.619770 -0.613649
O2    O     O_R   0.494990 0.713870 0.380230 -0.613657
O3    O     O_R   0.491990 0.256780 0.308370 -0.523231
O4    O     O_R   0.508010 0.743220 0.691630 -0.523230
O5    O     O_R   0.406650 0.514660 0.655750 -0.594637
O6    O     O_R   0.593350 0.485340 0.344250 -0.594634
O7    O     O_R   0.393640 0.485310 0.344340 -0.581993
O8    O     O_R   0.606360 0.514690 0.655660 -0.581993
H7    H     H_    0.290220 0.559961 0.796366 0.158992
H8    H     H_    0.709780 0.440040 0.203634 0.158994
C21   C     C_2   0.137045 0.369304 0.141594 0.408721
H9    H     H_    0.161797 0.370820 0.016163 0.061201
O9    O     O_2   0.078285 0.307894 0.128098 -0.490391
C22   C     C_2   0.862954 0.630698 0.858407 0.408718
H10   H     H_    0.838203 0.629180 0.983838 0.061201
O10   O     O_2   0.921714 0.692110 0.871903 -0.490391
C23   C     C_2   0.415919 0.962809 0.325672 0.402096
H11   H     H_    0.390525 0.856040 0.348114 0.082628
O11   O     O_2   0.388760 0.023808 0.205614 -0.528926
C24   C     C_2   0.584078 0.037193 0.674328 0.402114
H12   H     H_    0.609480 0.143940 0.651853 0.082608
O12   O     O_2   0.611225 0.976221 0.794423 -0.528921

loop_
_geom_bond_atom_site_label_1
_geom_bond_atom_site_label_2
_ccdc_geom_bond_type
C13   C21   S    
C15   C17   A    
Cu1   O1    S    
C7    H7    S    
C11   C13   A    
C19   N3    A    
C2    O4    A    
C2    C4    S    
Cu1   O5    S    
C13   C15   A    
C1    O3    A    
Cu2   O6    S    
C22   O10   D    
N5    N6    D    
C3    C4    D    
H6    N6    S    
N1    N3    A    
C21   H9    S    
H5    N5    S    
N2    N4    A    
C9    C11   A    
C10   C12   A    
C12   C19   S    
C8    C10   A    
C22   H10   S    
C12   C14   A    
C24   O12   D    
C20   N1    A    
C5    O5    A    
C16   H4    S    
C6    C18   S    
C14   C16   A    
C11   C20   S    
C15   H3    S    
Cu2   O7    S    
C5    C17   S    
C3    C23   S    
C23   H11   S    
C8    H8    S    
C6    O6    A    
Cu2   O2    S    
C1    O1    A    
C16   C18   A    
C20   N4    A    
C21   O9    D    
C2    O2    A    
C1    C3    S    
C7    C9    A    
Cu2   N5    S    
C5    O7    A    
C24   H12   S    
C9    H1    S    
C10   H2    S    
C14   C22   S    
Cu1   N6    S    
C4    C24   S    
Cu1   Cu2   S    
C19   N2    A    
C6    O8    A    
Cu2   O3    S    
C8    C18   A    
Cu1   O4    S    
Cu1   O8    S    
C23   O11   D    
C7    C17   A    
