data_mof_unit_44105.cif
_audit_creation_date              2012-12-11T14:17:34-0500
_audit_creation_method            fapswitch 2.2
_symmetry_space_group_name_H-M    P1
_symmetry_Int_Tables_number       1
_space_group_crystal_system       triclinic
_cell_length_a                    6.948185
_cell_length_b                    13.735848
_cell_length_c                    20.388219
_cell_angle_alpha                 102.275677
_cell_angle_beta                  90.587916
_cell_angle_gamma                 90.131948
_cell_volume                      1901.22571821

loop_
_atom_site_label
_atom_site_type_symbol
_atom_type_description
_atom_site_fract_x
_atom_site_fract_y
_atom_site_fract_z
_atom_type_partial_charge
O1    O     O_R   0.506860 0.599390 0.449240 -0.536872
O2    O     O_R   0.180220 0.594600 0.586780 -0.545544
O3    O     O_R   0.004500 0.400610 0.550760 -0.538689
C1    C     C_R   0.349435 0.614273 0.614050 0.740867
O4    O     O_R   0.177490 0.611290 0.451970 -0.544509
O5    O     O_R   0.001750 0.417420 0.414990 -0.539360
C2    C     C_R   0.346068 0.637815 0.435367 0.707681
O6    O     O_R   0.509610 0.582580 0.585010 -0.544093
O7    O     O_3   0.337420 0.436370 0.488020 -0.361110
V1    V     V_3+5 0.064680 0.511800 0.502220 1.493124
O8    O     O_R   0.671710 0.405400 0.413220 -0.526623
C3    C     C_R   0.839931 0.384914 0.386138 0.764046
O9    O     O_R   0.674440 0.388710 0.548030 -0.539869
C4    C     C_R   0.844343 0.363070 0.565099 0.701246
V2    V     V_3+5 0.564010 0.488200 0.497780 1.517071
O10   O     O_3   0.841140 0.563630 0.511980 -0.378352
C5    C     C_R   0.970002 0.121320 0.609651 -0.101824
H1    H     H_    0.962274 0.175789 0.518784 0.121586
H2    H     H_    0.014901 0.048534 0.582712 0.139630
C6    C     C_R   0.861711 0.285232 0.603256 -0.039189
C7    C     C_R   0.842869 0.309126 0.925795 -0.185359
C8    C     C_R   0.859550 0.387093 0.892657 -0.057034
C9    C     C_R   0.893208 0.367424 0.822892 -0.040986
C10   C     C_R   0.885968 0.266576 0.784809 0.019072
C11   C     C_R   0.873858 0.187243 0.819975 -0.005166
C12   C     C_R   0.890153 0.241083 0.712941 0.086828
C13   C     C_R   0.941286 0.142806 0.679738 0.052729
C14   C     C_R   0.944504 0.066218 0.715778 -0.068535
C15   C     C_R   0.882100 0.087186 0.782692 -0.107318
C16   C     C_R   0.834823 0.308377 0.672593 -0.147903
C17   C     C_R   0.935508 0.193008 0.572282 -0.134704
C18   C     C_R   0.857491 0.210531 0.891389 -0.075746
H3    H     H_    0.768856 0.378955 0.693895 0.114574
H4    H     H_    0.828867 0.325472 0.979975 0.129558
C19   C     C_2   0.005977 0.291305 0.282148 -0.061815
C20   C     C_2   0.844164 0.325719 0.315993 -0.333287
H5    H     H_    0.707378 0.315912 0.289213 0.154302
C21   C     C_2   0.001206 0.245417 0.209097 -0.074288
C22   C     C_2   0.864669 0.178108 0.182070 -0.334228
H6    H     H_    0.746854 0.162909 0.213076 0.154452
C23   C     C_2   0.210399 0.764568 0.790814 -0.070407
C24   C     C_2   0.363001 0.818338 0.818876 -0.215068
H7    H     H_    0.080367 0.765363 0.819777 0.145261
H8    H     H_    0.495682 0.815899 0.791257 0.143855
C25   C     C_2   0.206001 0.704255 0.720734 -0.100135
C26   C     C_2   0.362722 0.677527 0.682498 -0.274938
H9    H     H_    0.065002 0.678821 0.700660 0.142377
H10   H     H_    0.505994 0.697964 0.702203 0.144748
C27   C     C_R   0.420746 0.889409 0.395476 -0.023348
H11   H     H_    0.412197 0.831753 0.485825 0.123380
H12   H     H_    0.432515 0.017416 0.313210 0.142797
C28   C     C_R   0.357945 0.717163 0.397957 -0.051560
C29   C     C_R   0.354266 0.689187 0.076280 -0.120693
C30   C     C_R   0.392773 0.613926 0.111746 -0.058637
C31   C     C_R   0.430509 0.640054 0.181545 -0.082076
C32   C     C_R   0.398845 0.739777 0.217686 0.019175
C33   C     C_R   0.384692 0.817358 0.180956 0.021583
C34   C     C_R   0.387780 0.765006 0.289584 0.091251
C35   C     C_R   0.410940 0.865458 0.324246 0.079665
C36   C     C_R   0.418419 0.940012 0.287389 -0.224011
C37   C     C_R   0.395979 0.918366 0.217831 -0.067317
C38   C     C_R   0.344396 0.693655 0.328075 -0.168159
C39   C     C_R   0.399581 0.814342 0.431485 -0.201240
C40   C     C_R   0.363507 0.790303 0.109384 -0.137711
H13   H     H_    0.297347 0.619278 0.304732 0.122383
O11   O     O_R   0.203230 0.917310 0.915020 -0.528987
O12   O     O_R   0.535500 0.888690 0.048040 -0.544973
O13   O     O_R   0.711080 0.082610 0.085000 -0.529626
C41   C     C_R   0.367913 0.865120 0.067186 0.705736
O14   O     O_R   0.532630 0.905370 0.913230 -0.547441
O15   O     O_R   0.708190 0.099410 0.949230 -0.531353
C42   C     C_R   0.363854 0.882801 0.886999 0.803382
O16   O     O_R   0.206120 0.900510 0.050790 -0.542719
O17   O     O_3   0.375360 0.063570 0.011990 -0.357959
V3    V     V_3+5 0.648170 0.988200 0.997780 1.524115
O18   O     O_R   0.038240 0.111390 0.951940 -0.535463
C43   C     C_R   0.868922 0.135170 0.932981 0.705961
O19   O     O_R   0.041120 0.094710 0.086750 -0.532799
C44   C     C_R   0.872901 0.116410 0.113131 0.748347
V4    V     V_3+5 0.148810 0.011930 0.002180 1.548801
O20   O     O_3   0.871750 0.936430 0.988010 -0.381246
C45   C     C_1   0.152608 0.272698 0.167841 0.420755
N1    N     N_1   0.272809 0.293650 0.134415 -0.294563
C46   C     C_1   0.453875 0.989940 0.433143 0.290490
N2    N     N_1   0.480390 0.070321 0.463344 -0.345401
C47   C     C_2   0.992428 0.962334 0.681660 0.782438
O21   O     O_2   0.868720 0.897232 0.672859 -0.557713
O22   O     O_R   0.179388 0.940153 0.658666 -0.648118
H14   H     H_    0.194784 0.867593 0.635628 0.292930
C48   C     C_1   0.325124 0.663131 0.003894 0.358029
N3    N     N_1   0.302267 0.642550 0.946274 -0.328863
C49   C     C_2   0.529444 0.566714 0.214234 0.789455
O23   O     O_2   0.681171 0.589450 0.244647 -0.548381
O24   O     O_R   0.446859 0.473220 0.211788 -0.652332
H15   H     H_    0.526623 0.430820 0.236712 0.298055
C50   C     C_2   0.404299 0.508381 0.074591 0.838766
O25   O     O_2   0.267323 0.470044 0.040443 -0.545009
O26   O     O_R   0.571994 0.453549 0.077954 -0.647398
H16   H     H_    0.559716 0.382315 0.051704 0.299687
C51   C     C_1   0.386778 0.004828 0.188376 0.259191
N4    N     N_1   0.379780 0.075409 0.166102 -0.328356
C52   C     C_2   0.962053 0.451462 0.793714 0.740002
O27   O     O_2   0.110100 0.442964 0.761069 -0.546268
O28   O     O_R   0.857250 0.540077 0.803686 -0.661470
H17   H     H_    0.917259 0.591300 0.780972 0.284367
C53   C     C_1   0.855022 0.487381 0.933010 0.451532
N5    N     N_1   0.850835 0.567478 0.965444 -0.310745
C54   C     C_2   0.789611 0.005839 0.807369 0.785907
O29   O     O_2   0.615096 0.006728 0.813852 -0.551993
O30   O     O_R   0.899100 0.927142 0.820396 -0.659751
H18   H     H_    0.817822 0.874376 0.834864 0.281703
C55   C     C_1   0.192146 0.296054 0.315270 0.346726
N6    N     N_1   0.341043 0.298885 0.341477 -0.352981

loop_
_geom_bond_atom_site_label_1
_geom_bond_atom_site_label_2
_ccdc_geom_bond_type
C34   C38   A    
C31   C32   A    
C27   C39   A    
C23   C24   D    
C19   C20   D    
C51   N4    T    
C1    O6    A    
C1    C26   S    
C29   C30   A    
C54   O29   D    
O13   V3    S    
C12   C13   A    
C27   C46   S    
C14   C15   A    
C10   C12   A    
C2    C28   S    
O5    C3    A    
C21   C22   D    
C29   C40   A    
O19   V4    S    
C9    C52   S    
C53   N5    T    
V2    O10   S    
C32   C33   A    
O30   H18   S    
C55   N6    T    
C18   C43   S    
O8    V2    S    
C46   N2    T    
O11   C42   A    
C54   O30   S    
C50   O26   S    
C9    C10   A    
C15   C54   S    
C41   O16   A    
O1    V2    S    
C3    C20   S    
O7    V1    S    
C30   C50   S    
C16   H3    S    
O13   C44   A    
C35   C36   A    
O17   V4    S    
O9    C4    A    
C21   C45   S    
H11   C39   S    
C23   H7    S    
C52   O27   D    
C24   H8    S    
C24   C42   S    
O28   H17   S    
C25   H9    S    
C11   C15   A    
C7    C18   A    
C26   H10   S    
O17   V3    S    
C5    C13   A    
C4    C6    S    
C19   C21   S    
C10   C11   A    
C22   H6    S    
O4    C2    A    
O19   C44   A    
V3    O20   S    
C6    C16   A    
C7    H4    S    
C34   C35   A    
C8    C53   S    
C45   N1    T    
C36   C37   A    
O12   C41   A    
C22   C44   S    
O2    C1    A    
C31   C49   S    
C50   O25   D    
C49   O24   S    
C29   C48   S    
C40   C41   S    
O18   C43   A    
C52   O28   S    
O3    C4    A    
C12   C16   A    
O6    V2    S    
O9    V2    S    
C14   C47   S    
C5    C17   A    
C37   C51   S    
O12   V3    S    
O2    V1    S    
O15   C43   A    
C47   O21   D    
C33   C40   A    
C30   C31   A    
C20   H5    S    
C38   H13   S    
O1    C2    A    
O18   V4    S    
V4    O20   S    
C28   C39   A    
O5    V1    S    
O14   C42   A    
O8    C3    A    
C33   C37   A    
H1    C17   S    
O11   V4    S    
C27   C35   A    
O7    V2    S    
O4    V1    S    
O3    V1    S    
C28   C38   A    
O15   V3    S    
C48   N3    T    
C11   C18   A    
C49   O23   D    
C5    H2    S    
O16   V4    S    
C32   C34   A    
C47   O22   S    
O24   H15   S    
C25   C26   D    
O22   H14   S    
O26   H16   S    
O14   V3    S    
C23   C25   S    
C8    C9    A    
V1    O10   S    
H12   C36   S    
C7    C8    A    
C19   C55   S    
C13   C14   A    
C6    C17   A    
