data_mof_unit_5241.cif
_audit_creation_date              2012-10-26T19:14:52-0400
_audit_creation_method            fapswitch 2.2
_symmetry_space_group_name_H-M    P1
_symmetry_Int_Tables_number       1
_space_group_crystal_system       triclinic
_cell_length_a                    19.42724
_cell_length_b                    18.131799
_cell_length_c                    10.63635
_cell_angle_alpha                 89.761492
_cell_angle_beta                  90.067133
_cell_angle_gamma                 90.21078
_cell_volume                      3746.60259179

loop_
_atom_site_label
_atom_site_type_symbol
_atom_type_description
_atom_site_fract_x
_atom_site_fract_y
_atom_site_fract_z
_atom_type_partial_charge
C1    C     C_R   0.367481 0.499897 0.499423 0.553350
C2    C     C_R   0.549647 0.279243 0.564413 0.024592
C3    C     C_R   0.549379 0.720996 0.564829 0.028084
C4    C     C_R   0.450612 0.279008 0.435185 0.028131
C5    C     C_R   0.447399 0.798742 0.437440 0.197003
C6    C     C_R   0.552608 0.201254 0.562513 0.197006
C7    C     C_R   0.551751 0.799014 0.563681 0.197332
C8    C     C_R   0.448239 0.200992 0.436325 0.197312
C9    C     C_R   0.499588 0.838556 0.500392 0.042095
C10   C     C_R   0.500409 0.161442 0.499582 0.042048
C11   C     C_R   0.557705 0.961355 0.458452 -0.081510
C12   C     C_R   0.632519 0.500103 0.500587 0.553348
C13   C     C_R   0.442290 0.038641 0.541513 -0.081544
C14   C     C_R   0.442014 0.961129 0.541567 -0.080124
C15   C     C_R   0.557980 0.038867 0.458393 -0.080120
C16   C     C_R   0.500266 0.078584 0.499895 0.103159
C17   C     C_R   0.499729 0.921414 0.500068 0.103189
C18   C     C_R   0.499953 0.500182 0.258974 0.556356
C19   C     C_R   0.500047 0.499818 0.741026 0.556351
C20   C     C_3   0.499628 0.570215 0.039917 -0.110242
C21   C     C_3   0.500372 0.429785 0.960083 -0.110236
C22   C     C_3   0.556389 0.535347 0.957857 -0.125090
C23   C     C_R   0.964883 0.539083 0.593053 -0.080504
C24   C     C_3   0.443610 0.464653 0.042143 -0.125091
C25   C     C_3   0.443270 0.534229 0.957551 -0.123411
C26   C     C_3   0.556730 0.465771 0.042449 -0.123405
C27   C     C_3   0.500030 0.499428 0.877774 0.041729
C28   C     C_3   0.499970 0.500572 0.122226 0.041727
C29   C     C_R   0.743999 0.433859 0.517266 -0.145622
C30   C     C_R   0.255994 0.566135 0.482789 -0.145654
C31   C     C_R   0.255312 0.433541 0.512041 -0.147608
C32   C     C_R   0.744693 0.566453 0.488008 -0.147592
C33   C     C_R   0.816244 0.432746 0.514579 0.224786
C34   C     C_R   0.035116 0.460890 0.407042 -0.080491
C35   C     C_R   0.183749 0.567241 0.485496 0.224798
C36   C     C_R   0.183087 0.432854 0.508491 0.225603
C37   C     C_R   0.816918 0.567132 0.491575 0.225597
C38   C     C_R   0.852422 0.499852 0.502863 0.051360
C39   C     C_R   0.147577 0.500131 0.497218 0.051391
C40   C     C_R   0.708125 0.500192 0.501870 -0.071772
C41   C     C_R   0.291875 0.499805 0.498168 -0.071753
C42   C     C_3   0.830901 0.311631 0.453524 -0.012768
C43   C     C_3   0.886942 0.253578 0.444941 -0.370917
C44   C     C_3   0.169139 0.688393 0.546429 -0.012784
C45   C     C_R   0.036546 0.539436 0.591272 -0.081231
C46   C     C_3   0.113084 0.746425 0.555131 -0.370925
C47   C     C_3   0.166314 0.313014 0.442280 -0.014499
C48   C     C_3   0.107557 0.258237 0.425969 -0.369943
C49   C     C_3   0.833750 0.686941 0.557861 -0.014494
C50   C     C_3   0.892515 0.741721 0.574061 -0.369912
C51   C     C_3   0.331070 0.813291 0.403353 -0.020757
C52   C     C_3   0.279438 0.872369 0.366200 -0.364448
C53   C     C_3   0.668940 0.186669 0.596462 -0.020753
C54   C     C_3   0.720572 0.127603 0.633671 -0.364430
C55   C     C_3   0.667606 0.816422 0.599509 -0.021821
C56   C     C_R   0.963453 0.460538 0.408821 -0.081247
C57   C     C_3   0.717715 0.876751 0.638720 -0.366424
C58   C     C_3   0.332378 0.183508 0.400817 -0.021798
C59   C     C_3   0.282262 0.123227 0.361431 -0.366466
C60   C     C_R   0.071938 0.500287 0.498319 0.104563
C61   C     C_R   0.928061 0.499688 0.501773 0.104557
C62   C     C_R   0.450361 0.720752 0.435557 0.024582
Cu1   Cu    Cu3+1 0.500000 0.573360 0.500000 0.921338
Cu2   Cu    Cu3+1 0.500000 0.426640 0.500000 0.921342
H1    H     H_    0.499303 0.627746 0.075244 0.130068
H2    H     H_    0.397381 0.067523 0.575524 0.111241
H3    H     H_    0.396911 0.932079 0.575616 0.112679
H4    H     H_    0.603082 0.067918 0.424341 0.112673
H5    H     H_    0.396877 0.562167 0.919613 0.113629
H6    H     H_    0.603122 0.437833 0.080387 0.113631
H7    H     H_    0.820689 0.332765 0.356609 0.119260
H8    H     H_    0.783843 0.284538 0.491179 0.117528
H9    H     H_    0.898217 0.230717 0.539769 0.162436
H10   H     H_    0.869755 0.208045 0.382716 0.087603
H11   H     H_    0.934532 0.278538 0.405486 0.149245
H12   H     H_    0.500697 0.372254 0.924756 0.130074
H13   H     H_    0.216146 0.715491 0.508575 0.117553
H14   H     H_    0.179457 0.667305 0.643335 0.119276
H15   H     H_    0.065550 0.721463 0.594804 0.149174
H16   H     H_    0.130324 0.791999 0.617223 0.087615
H17   H     H_    0.101693 0.769229 0.460311 0.162468
H18   H     H_    0.211488 0.282890 0.480482 0.121545
H19   H     H_    0.179134 0.335902 0.347512 0.114742
H20   H     H_    0.061574 0.286933 0.388090 0.148053
H21   H     H_    0.122815 0.214411 0.359099 0.086794
H22   H     H_    0.094396 0.232491 0.517814 0.163189
H23   H     H_    0.602493 0.564204 0.920135 0.110159
H24   H     H_    0.821005 0.664027 0.652643 0.114718
H25   H     H_    0.788542 0.717069 0.519802 0.121520
H26   H     H_    0.905616 0.767479 0.482196 0.163210
H27   H     H_    0.877298 0.785539 0.640978 0.086762
H28   H     H_    0.938524 0.713024 0.611829 0.148079
H29   H     H_    0.938078 0.569038 0.665908 0.108165
H30   H     H_    0.061921 0.430935 0.334186 0.108206
H31   H     H_    0.064465 0.569643 0.662809 0.107822
H32   H     H_    0.935534 0.430334 0.337281 0.107782
H33   H     H_    0.413072 0.689557 0.382032 0.128326
H34   H     H_    0.397507 0.435796 0.079865 0.110176
H35   H     H_    0.586945 0.310434 0.617926 0.128341
H36   H     H_    0.586813 0.690005 0.618347 0.128256
H37   H     H_    0.413170 0.309999 0.381688 0.128322
H38   H     H_    0.326135 0.803703 0.506698 0.106675
H39   H     H_    0.317530 0.761906 0.352169 0.127049
H40   H     H_    0.281903 0.882703 0.263307 0.168078
H41   H     H_    0.226587 0.853929 0.391110 0.090748
H42   H     H_    0.291020 0.924443 0.416716 0.144617
H43   H     H_    0.682507 0.238083 0.647535 0.127036
H44   H     H_    0.673844 0.196190 0.493095 0.106695
H45   H     H_    0.715776 0.383085 0.532768 0.119074
H46   H     H_    0.708962 0.075497 0.583270 0.144663
H47   H     H_    0.773419 0.146013 0.608667 0.090736
H48   H     H_    0.718139 0.117338 0.736587 0.168069
H49   H     H_    0.672976 0.808499 0.495958 0.112187
H50   H     H_    0.682120 0.764740 0.649319 0.115836
H51   H     H_    0.715675 0.884584 0.742151 0.166185
H52   H     H_    0.770856 0.861259 0.611630 0.084051
H53   H     H_    0.704248 0.929448 0.591309 0.150414
H54   H     H_    0.317797 0.235272 0.351323 0.115724
H55   H     H_    0.327092 0.191241 0.504425 0.112215
H56   H     H_    0.284216 0.616910 0.467283 0.119039
H57   H     H_    0.295855 0.070425 0.408370 0.150611
H58   H     H_    0.229151 0.138589 0.388939 0.084050
H59   H     H_    0.284139 0.115665 0.257929 0.166045
H60   H     H_    0.282839 0.382448 0.526961 0.125848
H61   H     H_    0.717174 0.617549 0.473079 0.125878
H62   H     H_    0.602617 0.932471 0.424453 0.111282
N1    N     N_R   0.500000 0.683620 0.500000 -0.277295
N2    N     N_R   0.500000 0.316380 0.500000 -0.277316
O1    O     O_R   0.400190 0.561980 0.499980 -0.509416
O2    O     O_3   0.147005 0.631785 0.464607 -0.552728
O3    O     O_3   0.145771 0.368293 0.527646 -0.550951
O4    O     O_3   0.854236 0.631688 0.472402 -0.550936
O5    O     O_3   0.397957 0.837139 0.369567 -0.557517
O6    O     O_3   0.602060 0.162857 0.630360 -0.557511
O7    O     O_3   0.600216 0.837588 0.633533 -0.556051
O8    O     O_3   0.399750 0.162437 0.366503 -0.556032
O9    O     O_R   0.599810 0.438020 0.500020 -0.509418
O10   O     O_R   0.599810 0.561980 0.500020 -0.509302
O11   O     O_R   0.400190 0.438020 0.499980 -0.509316
O12   O     O_R   0.499980 0.561940 0.316860 -0.502421
O13   O     O_R   0.500020 0.438060 0.683140 -0.502416
O14   O     O_R   0.500020 0.561940 0.683140 -0.498565
O15   O     O_R   0.499980 0.438060 0.316860 -0.498557
O16   O     O_3   0.852974 0.368197 0.535485 -0.552716

loop_
_geom_bond_atom_site_label_1
_geom_bond_atom_site_label_2
_ccdc_geom_bond_type
C43   H9    S    
C21   C26   S    
C45   C60   A    
C34   C56   A    
C20   C25   S    
C23   C45   A    
C8    O8    S    
Cu1   O12   S    
C49   H24   S    
C4    C8    A    
C57   H51   S    
C53   C54   S    
C51   H38   S    
C5    O5    S    
C21   H12   S    
C30   C35   A    
C24   H34   S    
C29   H45   S    
C18   O15   A    
C31   H60   S    
C3    C7    A    
C31   C36   A    
C62   N1    A    
C3    N1    A    
Cu2   O13   S    
C15   H4    S    
C51   H39   S    
C15   C16   A    
C46   H17   S    
C29   C33   A    
C58   H54   S    
C54   H46   S    
C7    C9    A    
C47   H18   S    
C42   H7    S    
C11   C15   A    
C3    H36   S    
C50   H26   S    
C11   C17   A    
Cu2   N2    S    
C5    C62   A    
C14   H3    S    
C30   C41   A    
C47   H19   S    
C19   C27   S    
C1    O11   A    
Cu2   O9    S    
C38   C61   S    
C59   H58   S    
Cu1   O1    S    
C21   C27   S    
C52   H42   S    
C19   O13   A    
C13   C14   A    
C34   C60   A    
C14   C17   A    
C2    C6    A    
C44   C46   S    
C57   H52   S    
C13   H2    S    
C33   O16   S    
C59   H59   S    
C49   O4    S    
C4    N2    A    
C51   C52   S    
C34   H30   S    
C20   H1    S    
C11   H62   S    
C18   C28   S    
C24   C25   S    
C36   O3    S    
C55   H49   S    
C58   O8    S    
C58   C59   S    
C32   C37   A    
C48   H20   S    
C47   O3    S    
C32   H61   S    
C12   C40   S    
C35   C39   A    
C6    C10   A    
C5    C9    A    
C37   C38   A    
C62   H33   S    
C53   H43   S    
C47   C48   S    
C4    H37   S    
C42   H8    S    
C54   H48   S    
C22   H23   S    
C18   O12   A    
C35   O2    S    
C9    C17   S    
Cu2   O15   S    
C20   C22   S    
C2    H35   S    
C19   O14   A    
C22   C27   S    
C55   C57   S    
C42   O16   S    
C26   H6    S    
Cu1   O10   S    
C48   H22   S    
C21   C24   S    
C25   H5    S    
C42   C43   S    
C45   H31   S    
C43   H11   S    
C57   H53   S    
C50   H28   S    
C56   H32   S    
C44   H13   S    
C31   C41   A    
C48   H21   S    
C26   C28   S    
C12   O9    A    
C36   C39   A    
C53   O6    S    
C24   C28   S    
C49   H25   S    
C52   H41   S    
C1    C41   S    
C55   H50   S    
C25   C27   S    
C20   C28   S    
C1    O1    A    
C33   C38   A    
C37   O4    S    
C44   H14   S    
C6    O6    S    
C10   C16   S    
C46   H16   S    
C51   O5    S    
C53   H44   S    
C46   H15   S    
C30   H56   S    
C43   H10   S    
C55   O7    S    
C39   C60   S    
C29   C40   A    
C58   H55   S    
Cu1   O14   S    
C52   H40   S    
C54   H47   S    
C12   O10   A    
C32   C40   A    
C7    O7    S    
Cu1   Cu2   S    
C23   H29   S    
C50   H27   S    
C23   C61   A    
C8    C10   A    
C49   C50   S    
C22   C26   S    
C13   C16   A    
C56   C61   A    
C59   H57   S    
C44   O2    S    
Cu1   N1    S    
Cu2   O11   S    
C2    N2    A    
