data_mof_unit_41482.cif
_audit_creation_date              2013-03-05T16:11:19-0500
_audit_creation_method            fapswitch 2.2
_symmetry_space_group_name_H-M    P1
_symmetry_Int_Tables_number       1
_space_group_crystal_system       triclinic
_cell_length_a                    15.845798
_cell_length_b                    10.79292
_cell_length_c                    9.511549
_cell_angle_alpha                 87.633192
_cell_angle_beta                  90.535837
_cell_angle_gamma                 89.679496
_cell_volume                      1625.20034381

loop_
_atom_site_label
_atom_site_type_symbol
_atom_site_description
_atom_site_fract_x
_atom_site_fract_y
_atom_site_fract_z
_atom_type_partial_charge
O1    O     O_R   0.500050 0.317570 0.620260 -0.506192
O2    O     O_R   0.499980 0.317810 0.379740 -0.629545
C1    C     C_R   0.499748 0.259804 0.501521 0.812502
O3    O     O_R   0.379110 0.499870 0.620240 -0.596895
O4    O     O_R   0.379040 0.500110 0.379720 -0.533743
C2    C     C_R   0.340081 0.499759 0.499522 0.882734
Cu1   Cu    Cu3+1 0.500040 0.499860 0.642410 0.999719
Cu2   Cu    Cu3+1 0.499960 0.500140 0.357590 1.023984
O5    O     O_R   0.500020 0.682190 0.620260 -0.617269
O6    O     O_R   0.499950 0.682430 0.379740 -0.547189
O7    O     O_R   0.620960 0.499890 0.620280 -0.581301
O8    O     O_R   0.620890 0.500130 0.379760 -0.549863
C3    C     C_R   0.500714 0.739781 0.497815 0.833530
C4    C     C_R   0.659951 0.499810 0.500536 0.834959
C5    C     C_3   0.972415 0.397120 0.575291 -0.193776
C6    C     C_3   0.026766 0.396089 0.442532 0.367371
H1    H     H_    0.949331 0.314183 0.635914 0.182348
H2    H     H_    0.945331 0.488866 0.256665 0.183854
C7    C     C_1   0.250390 0.499083 0.498683 0.008855
C8    C     C_1   0.749702 0.499179 0.501457 -0.112808
C9    C     C_3   0.029280 0.501081 0.632244 -0.187134
C10   C     C_3   0.083110 0.497282 0.498488 0.044284
C11   C     C_3   0.972106 0.601252 0.557546 -0.114202
C12   C     C_3   0.917011 0.497512 0.500161 0.094682
C13   C     C_3   0.027085 0.597175 0.423634 -0.156236
C14   C     C_3   0.970212 0.493620 0.365801 -0.195697
C15   C     C_1   0.174817 0.498358 0.498428 0.097531
C16   C     C_1   0.825313 0.498461 0.501244 0.014721
H3    H     H_    0.050510 0.679348 0.362026 0.203820
H4    H     H_    0.947996 0.686463 0.605357 0.172841
C17   C     C_3   0.560099 0.064060 0.613589 -0.291446
H5    H     H_    0.541806 0.091161 0.718875 0.292643
H6    H     H_    0.625268 0.098066 0.593736 0.196448
C18   C     C_3   0.559082 0.921912 0.613595 -0.462315
H7    H     H_    0.624345 0.886300 0.598644 0.194769
H8    H     H_    0.537983 0.885394 0.718638 0.208200
H9    H     H_    0.391619 0.889157 0.632672 0.162065
C19   C     C_3   0.407040 0.070732 0.523102 0.113950
C20   C     C_3   0.528338 0.077202 0.355362 -0.431390
C21   C     C_3   0.498441 0.121228 0.501234 -0.059115
C22   C     C_3   0.499492 0.877595 0.495483 -0.042363
C23   C     C_3   0.408343 0.925855 0.525402 0.109075
C24   C     C_3   0.533428 0.935220 0.355196 -0.298987
H10   H     H_    0.368673 0.106127 0.431018 0.163615
C25   C     C_3   0.530719 0.622737 0.078103 0.287110
C26   C     C_3   0.519976 0.627693 0.911444 -0.337643
H11   H     H_    0.468407 0.694294 0.881116 0.188512
H12   H     H_    0.577342 0.666047 0.859731 0.202838
H13   H     H_    0.630209 0.455593 0.898268 0.158955
C27   C     C_3   0.560379 0.405850 0.090528 -0.312744
C28   C     C_3   0.416588 0.469651 0.080109 0.218715
N1    N     N_3   0.501840 0.500250 0.143650 -0.258102
H14   H     H_    0.399395 0.374394 0.119463 0.140819
N2    N     N_3   0.501160 0.503300 0.856280 -0.229540
C29   C     C_3   0.567083 0.417017 0.924268 0.326113
C30   C     C_3   0.418092 0.467443 0.914665 -0.231994
H15   H     H_    0.368750 0.531392 0.869469 0.207129
H16   H     H_    0.539380 0.312032 0.126841 0.189855
N3    N     N_R   0.055333 0.282809 0.379054 0.143291
O9    O     O_R   0.000241 0.203904 0.335386 -0.317511
O10   O     O_R   0.135419 0.259645 0.365758 -0.290482
N4    N     N_R   0.367253 0.117026 0.649814 0.130707
O11   O     O_R   0.388397 0.073131 0.774738 -0.306257
O12   O     O_R   0.305167 0.196226 0.637034 -0.330491
H17   H     H_    0.483953 0.110387 0.270280 0.221989
H18   H     H_    0.591414 0.116773 0.329779 0.195674
H19   H     H_    0.600886 0.909340 0.345096 0.223458
H20   H     H_    0.499326 0.900853 0.262201 0.238477
N5    N     N_R   0.345451 0.878390 0.426927 0.126837
O13   O     O_R   0.286020 0.805486 0.473895 -0.339012
O14   O     O_R   0.345358 0.912848 0.294178 -0.302069
N6    N     N_R   0.618733 0.651201 0.118368 0.131085
O15   O     O_R   0.633387 0.733808 0.210617 -0.382315
O16   O     O_R   0.682640 0.611197 0.047814 -0.399366
H21   H     H_    0.491516 0.698228 0.118540 0.166200
H22   H     H_    0.623910 0.413154 0.139127 0.207457
N7    N     N_R   0.347565 0.552797 0.120535 0.145873
O17   O     O_R   0.275677 0.503522 0.156395 -0.321871
O18   O     O_R   0.348133 0.670463 0.084968 -0.339770
H23   H     H_    0.399555 0.374779 0.879119 0.221320
N8    N     N_R   0.566014 0.292702 0.870309 0.123001
O19   O     O_R   0.634899 0.249590 0.816458 -0.401268
O20   O     O_R   0.507157 0.215347 0.909226 -0.374126
H24   H     H_    0.054477 0.504656 0.741297 0.188112

loop_
_geom_bond_atom_site_label_1
_geom_bond_atom_site_label_2
_geom_bond_distance
_ccdc_geom_bond_type
C22   C24   1.550836 S    
C22   C23   1.565202 S    
H2    C14   1.110225 S    
C3    C22   1.486680 S    
N8    O19   1.301836 A    
Cu1   Cu2   2.708944 S    
N7    O17   1.302244 A    
C17   C21   1.548093 S    
Cu1   O7    1.929555 S    
C2    C7    1.421236 S    
C12   C14   1.539433 S    
C19   C23   1.562909 S    
O4    C2    1.300930 A    
O7    C4    1.300841 A    
C5    C6    1.535494 S    
C30   H15   1.111589 S    
Cu1   O5    1.970448 S    
C18   H7    1.113651 S    
H9    C23   1.113986 S    
N5    O14   1.301452 A    
O5    C3    1.297458 A    
N4    O12   1.301192 A    
C26   H11   1.113352 S    
C24   H20   1.110125 S    
C10   C13   1.539961 S    
C27   N1    1.481390 S    
C11   C12   1.538255 S    
C17   H6    1.113071 S    
C29   N8    1.456318 S    
C7    C15   1.197566 T    
Cu2   N1    2.035349 S    
N3    O9    1.300236 A    
C9    C10   1.540147 S    
C25   N6    1.480085 S    
C13   H3    1.110202 S    
C20   H17   1.113749 S    
C18   C22   1.553086 S    
O3    Cu1   1.925839 S    
N8    O20   1.301350 A    
N2    C30   1.480670 S    
N7    O18   1.300776 A    
C6    C14   1.535426 S    
C26   H12   1.111463 S    
N3    O10   1.300368 A    
C28   N1    1.518363 S    
C27   H16   1.110112 S    
C11   H4    1.110142 S    
C4    C8    1.422085 S    
N6    O16   1.301532 A    
C20   C21   1.561887 S    
C20   C24   1.534139 S    
C8    C16   1.198129 T    
C25   N1    1.513206 S    
C13   C14   1.554578 S    
H13   C29   1.111686 S    
C23   N5    1.469973 S    
C28   H14   1.115609 S    
C6    N3    1.457444 S    
C28   C30   1.575193 S    
C28   N7    1.474711 S    
C24   H19   1.109336 S    
C19   H10   1.114671 S    
N4    O11   1.301099 A    
C27   H22   1.108388 S    
C17   H5    1.095956 S    
C9    H24   1.110202 S    
Cu2   O8    1.925839 S    
C26   N2    1.492124 S    
C17   C18   1.534357 S    
O3    C2    1.299113 A    
C5    C12   1.539184 S    
O8    C4    1.299668 A    
C1    C21   1.496014 S    
C10   C15   1.453282 S    
C9    C11   1.551766 S    
C20   H18   1.114154 S    
C5    H1    1.110191 S    
N2    C29   1.517671 S    
C6    C10   1.524225 S    
O1    Cu1   1.987320 S    
O2    Cu2   1.970446 S    
C12   C16   1.453144 S    
N6    O15   1.296851 A    
O6    C3    1.304544 A    
O4    Cu2   1.929557 S    
C27   C29   1.585607 S    
C30   H23   1.109136 S    
C25   H21   1.105603 S    
O2    C1    1.293791 A    
C19   C21   1.563016 S    
C18   H8    1.113800 S    
C11   C13   1.551838 S    
N5    O13   1.301024 A    
C25   C26   1.591380 S    
C5    C9    1.554586 S    
Cu2   O6    1.987322 S    
Cu1   N2    2.036020 S    
O1    C1    1.312382 A    
C19   N4    1.469740 S    
