data_mof_unit_22270.cif
_audit_creation_date              2012-12-10T19:05:35-0500
_audit_creation_method            fapswitch 2.2
_symmetry_space_group_name_H-M    P1
_symmetry_Int_Tables_number       1
_space_group_crystal_system       triclinic
_cell_length_a                    10.512606
_cell_length_b                    13.074275
_cell_length_c                    13.599614
_cell_angle_alpha                 86.080785
_cell_angle_beta                  90.411653
_cell_angle_gamma                 92.041438
_cell_volume                      1863.61891075

loop_
_atom_site_label
_atom_site_type_symbol
_atom_type_description
_atom_site_fract_x
_atom_site_fract_y
_atom_site_fract_z
_atom_type_partial_charge
C1    C     C_R   0.500748 0.481535 0.684915 0.895375
C2    C     C_3   0.040642 0.598757 0.490918 0.199471
C3    C     C_3   0.042361 0.455200 0.584976 0.178058
C4    C     C_3   0.957638 0.544799 0.415043 0.178017
C5    C     C_3   0.122837 0.503973 0.499763 -0.158564
C6    C     C_3   0.877161 0.496025 0.500256 -0.158558
C7    C     C_3   0.041137 0.449781 0.423213 -0.265373
C8    C     C_3   0.958861 0.550216 0.576806 -0.265368
C9    C     C_1   0.487230 0.532443 0.212607 -0.183579
C10   C     C_1   0.512799 0.467554 0.787392 -0.183530
C11   C     C_2   0.468016 0.536156 0.021907 -0.031468
C12   C     C_R   0.499254 0.518464 0.315085 0.895378
C13   C     C_2   0.532073 0.463813 0.978093 -0.031474
C14   C     C_1   0.523591 0.461275 0.874377 -0.047883
C15   C     C_1   0.476468 0.538708 0.125620 -0.047836
C16   C     C_3   0.100604 0.411935 0.681994 -0.401222
C17   C     C_3   0.998967 0.379037 0.758252 -0.881420
C18   C     C_3   0.899396 0.588081 0.318031 -0.401186
C19   C     C_3   0.001029 0.620891 0.241743 -0.881304
C20   C     C_3   0.906742 0.290259 0.513493 -0.379453
C21   C     C_3   0.011989 0.212693 0.519352 -0.887885
C22   C     C_3   0.093257 0.709738 0.486538 -0.379436
C23   C     C_2   0.477857 0.034902 0.464478 -0.103272
C24   C     C_3   0.988017 0.787310 0.480728 -0.887880
C25   C     C_R   0.617593 0.390049 0.031438 0.158754
C26   C     C_R   0.599655 0.284222 0.021280 -0.144788
C27   C     C_R   0.680616 0.214542 0.069878 -0.160257
C28   C     C_R   0.780413 0.249809 0.128476 -0.109410
C29   C     C_R   0.800339 0.354922 0.137804 -0.144459
C30   C     C_R   0.719933 0.424951 0.089082 -0.149136
C31   C     C_R   0.382336 0.609792 0.968569 0.158794
C32   C     C_R   0.400228 0.715660 0.978508 -0.144707
C33   C     C_R   0.319051 0.785198 0.929946 -0.160130
C34   C     C_2   0.522148 0.965105 0.535498 -0.103287
C35   C     C_R   0.219087 0.749744 0.871613 -0.109381
C36   C     C_R   0.199223 0.644589 0.862503 -0.144622
C37   C     C_R   0.279852 0.574705 0.911178 -0.149191
C38   C     C_R   0.575642 0.998458 0.629920 0.142004
C39   C     C_R   0.523961 0.957917 0.719979 -0.143250
C40   C     C_R   0.575236 0.987994 0.809168 -0.146370
C41   C     C_R   0.679010 0.057797 0.809186 -0.112536
C42   C     C_R   0.732147 0.097290 0.720057 -0.133741
C43   C     C_R   0.680953 0.067802 0.630669 -0.143987
C44   C     C_R   0.424278 0.001560 0.370078 0.141962
C45   C     C_1   0.520991 0.853901 0.522822 0.081714
C46   C     C_R   0.475798 0.042177 0.279988 -0.143256
C47   C     C_R   0.424372 0.012161 0.190827 -0.146320
C48   C     C_R   0.320609 0.942347 0.190866 -0.112532
C49   C     C_R   0.267630 0.902780 0.280025 -0.133810
C50   C     C_R   0.318976 0.932207 0.369384 -0.143941
C51   C     C_1   0.479012 0.146101 0.477166 0.081757
C52   C     C_R   0.742743 0.498524 0.501058 0.881904
C53   C     C_R   0.257257 0.501475 0.498951 0.881925
C54   C     C_3   0.959356 0.401240 0.509102 0.199498
H1    H     H_    0.079483 0.409620 0.361059 0.153098
H2    H     H_    0.954570 0.649925 0.172276 0.250429
H3    H     H_    0.835830 0.527936 0.288093 0.188330
H4    H     H_    0.840168 0.654068 0.331820 0.217890
H5    H     H_    0.081591 0.229814 0.458896 0.270352
H6    H     H_    0.061865 0.213142 0.591343 0.263852
H7    H     H_    0.969577 0.134523 0.512288 0.243118
H8    H     H_    0.843200 0.276251 0.578063 0.206991
H9    H     H_    0.849411 0.279121 0.445864 0.212834
H10   H     H_    0.938118 0.786895 0.408745 0.263825
H11   H     H_    0.918431 0.770171 0.541195 0.270336
H12   H     H_    0.920514 0.590374 0.638962 0.153081
H13   H     H_    0.030438 0.865473 0.487816 0.243118
H14   H     H_    0.150619 0.720857 0.554155 0.212870
H15   H     H_    0.156771 0.723759 0.421954 0.206964
H16   H     H_    0.522606 0.255700 0.976210 0.127481
H17   H     H_    0.666223 0.133158 0.061949 0.116454
H18   H     H_    0.842829 0.195718 0.166123 0.124183
H19   H     H_    0.878622 0.382109 0.182322 0.132613
H20   H     H_    0.737901 0.506262 0.095839 0.129113
H21   H     H_    0.477394 0.744321 0.023382 0.127430
H22   H     H_    0.333398 0.866615 0.937704 0.116459
H23   H     H_    0.940653 0.445065 0.774170 0.256961
H24   H     H_    0.156493 0.803722 0.834005 0.124188
H25   H     H_    0.120812 0.617257 0.818196 0.132728
H26   H     H_    0.261942 0.493359 0.904595 0.129133
H27   H     H_    0.443573 0.903648 0.721086 0.131650
H28   H     H_    0.534860 0.957033 0.878336 0.120966
H29   H     H_    0.718756 0.080806 0.878254 0.124519
H30   H     H_    0.813544 0.150213 0.720368 0.127310
H31   H     H_    0.723997 0.098092 0.562160 0.127837
H32   H     H_    0.556161 0.096472 0.278835 0.131712
H33   H     H_    0.464608 0.043190 0.121633 0.121044
H34   H     H_    0.936137 0.316868 0.731549 0.257958
H35   H     H_    0.280745 0.919395 0.121815 0.124518
H36   H     H_    0.186224 0.849861 0.279761 0.127351
H37   H     H_    0.276038 0.901877 0.437919 0.127842
H38   H     H_    0.045430 0.350113 0.827756 0.250425
H39   H     H_    0.159919 0.345998 0.668208 0.217889
H40   H     H_    0.164090 0.472118 0.711957 0.188403
H41   H     H_    0.064024 0.682954 0.268456 0.257944
H42   H     H_    0.059172 0.554787 0.225755 0.256968
N1    N     N_1   0.479750 0.234530 0.484780 -0.094914
N2    N     N_1   0.520250 0.765470 0.515220 -0.094916
O1    O     O_R   0.492590 0.402510 0.634760 -0.609638
O2    O     O_R   0.507410 0.597490 0.365240 -0.609625
O3    O     O_R   0.505590 0.572960 0.644530 -0.601039
O4    O     O_R   0.494410 0.427040 0.355470 -0.601037
O5    O     O_R   0.679550 0.414790 0.495140 -0.632805
O6    O     O_R   0.320450 0.585210 0.504860 -0.632799
O7    O     O_R   0.692550 0.585240 0.504910 -0.611216
O8    O     O_R   0.307450 0.414760 0.495090 -0.611219
Zn1   Zn    Zn3+2 0.491320 0.386190 0.493470 0.956114
Zn2   Zn    Zn3+2 0.508680 0.613810 0.506530 0.956118

loop_
_geom_bond_atom_site_label_1
_geom_bond_atom_site_label_2
_ccdc_geom_bond_type
C19   H2    S    
C51   N1    T    
C52   O5    A    
C8    H12   S    
C17   H34   S    
C41   C42   A    
C35   C36   A    
C7    H1    S    
C49   H36   S    
C1    O1    A    
C32   H21   S    
C19   H41   S    
C16   H39   S    
C5    C53   S    
C36   C37   A    
C21   H5    S    
C45   N2    T    
C38   C39   A    
C30   H20   S    
C3    C54   S    
C29   H19   S    
O8    Zn1   S    
C53   O6    A    
C41   H29   S    
N2    Zn2   S    
C18   C19   S    
C18   H3    S    
C24   H13   S    
C11   C15   S    
C53   O8    A    
C18   H4    S    
C31   C32   A    
C16   C17   S    
C2    C22   S    
C22   H15   S    
C21   H7    S    
C4    C18   S    
O3    Zn2   S    
C11   C31   S    
C24   H10   S    
C13   C14   S    
C13   C25   S    
C28   H18   S    
C17   H38   S    
C6    C54   S    
C4    C7    S    
O7    Zn2   S    
C44   C46   A    
C37   H26   S    
O2    Zn2   S    
C43   H31   S    
C40   H28   S    
C42   H30   S    
C39   H27   S    
C21   H6    S    
C20   C54   S    
C3    C8    S    
C10   C14   T    
C39   C40   A    
C5    C7    S    
C40   C41   A    
C6    C8    S    
C25   C26   A    
C23   C44   S    
C31   C37   A    
C47   H33   S    
C2    C4    S    
C12   O4    A    
C29   C30   A    
C33   H22   S    
C23   C51   S    
C47   C48   A    
C23   C34   D    
C17   H23   S    
C26   C27   A    
O4    Zn1   S    
C34   C45   S    
C22   H14   S    
C24   H11   S    
C4    C6    S    
C48   C49   A    
C52   O7    A    
C48   H35   S    
C26   H16   S    
C22   C24   S    
C2    C5    S    
C42   C43   A    
C1    O3    A    
O6    Zn2   S    
C27   H17   S    
C44   C50   A    
C25   C30   A    
C46   C47   A    
C28   C29   A    
C34   C38   S    
C2    C8    S    
C1    C10   S    
C3    C5    S    
C36   H25   S    
O1    Zn1   S    
C35   H24   S    
C16   H40   S    
C32   C33   A    
C20   H9    S    
C9    C15   T    
C38   C43   A    
C11   C13   D    
C33   C35   A    
C20   H8    S    
C9    C12   S    
C12   O2    A    
C19   H42   S    
N1    Zn1   S    
C50   H37   S    
C20   C21   S    
C49   C50   A    
C27   C28   A    
O5    Zn1   S    
C7    C54   S    
C6    C52   S    
C3    C16   S    
C46   H32   S    
