data_mof_unit_42374.cif
_audit_creation_date              2012-12-10T19:43:24-0500
_audit_creation_method            fapswitch 2.2
_symmetry_space_group_name_H-M    P1
_symmetry_Int_Tables_number       1
_space_group_crystal_system       triclinic
_cell_length_a                    10.887331
_cell_length_b                    10.847582
_cell_length_c                    9.613372
_cell_angle_alpha                 89.708237
_cell_angle_beta                  91.733621
_cell_angle_gamma                 91.568055
_cell_volume                      1134.39595307

loop_
_atom_site_label
_atom_site_type_symbol
_atom_type_description
_atom_site_fract_x
_atom_site_fract_y
_atom_site_fract_z
_atom_type_partial_charge
C1    C     C_R   0.506453 0.262268 0.501806 0.825758
C2    C     C_R   0.172969 0.566986 0.959960 -0.158638
C3    C     C_R   0.930570 0.533151 0.385203 -0.180348
C4    C     C_R   0.871210 0.495742 0.505493 -0.066494
C5    C     C_R   0.940815 0.452838 0.621264 0.021678
C6    C     C_R   0.068321 0.454179 0.615365 -0.191785
C7    C     C_R   0.127740 0.493121 0.495039 -0.033653
C8    C     C_R   0.056857 0.526829 0.376491 0.050700
C9    C     C_R   0.876930 0.471111 0.866628 -0.205367
C10   C     C_R   0.830775 0.418739 0.988023 -0.151330
C11   C     C_R   0.794159 0.294307 0.990921 0.479079
C12   C     C_R   0.262195 0.497203 0.497950 0.851916
C13   C     C_R   0.803797 0.221958 0.871889 -0.205740
C14   C     C_R   0.848205 0.274570 0.749507 -0.194715
C15   C     C_R   0.885178 0.399481 0.746639 0.124116
C16   C     C_R   0.509704 0.108188 0.768738 -0.186995
C17   C     C_R   0.465242 0.044723 0.884043 -0.208039
C18   C     C_R   0.397602 0.935364 0.865077 -0.154466
C19   C     C_R   0.387334 0.882173 0.733214 0.394441
C20   C     C_R   0.451947 0.935351 0.621339 0.033369
C21   C     C_R   0.492571 0.059128 0.632740 0.045276
C22   C     C_R   0.510775 0.127193 0.507211 -0.095836
C23   C     C_R   0.490155 0.736958 0.499240 0.830851
C24   C     C_R   0.516389 0.064048 0.380804 -0.141851
C25   C     C_R   0.506311 0.936785 0.377748 -0.216011
C26   C     C_R   0.476629 0.870899 0.498216 -0.084409
C27   C     C_R   0.653319 0.671490 0.147168 -0.187707
C28   C     C_R   0.726066 0.756684 0.076729 -0.211279
C29   C     C_R   0.726363 0.755929 0.933511 -0.206487
C30   C     C_R   0.654145 0.669739 0.860031 -0.144467
C31   C     C_R   0.574070 0.585026 0.927082 0.222831
C32   C     C_R   0.573806 0.585406 0.076518 0.215015
C33   C     C_R   0.434175 0.415457 0.072053 -0.009172
C34   C     C_R   0.737411 0.497831 0.502190 0.785047
C35   C     C_R   0.433782 0.415811 0.924263 -0.079949
C36   C     C_R   0.162459 0.671219 0.042929 -0.107478
C37   C     C_R   0.128723 0.658096 0.181170 -0.211147
C38   C     C_R   0.106399 0.540217 0.236724 0.047075
C39   C     C_R   0.116989 0.435334 0.152567 0.420819
C40   C     C_R   0.149441 0.449582 0.014216 -0.237102
Cu1   Cu    Cu3+1 0.499990 0.499990 0.640660 0.959177
Cu2   Cu    Cu3+1 0.500010 0.500010 0.359340 0.981641
H1    H     H_    0.198757 0.576361 0.853288 0.223248
H2    H     H_    0.776829 0.125148 0.874041 0.164948
H3    H     H_    0.855612 0.217816 0.657893 0.165993
H4    H     H_    0.530940 0.112749 0.283927 0.204253
H5    H     H_    0.477231 0.084119 0.987004 0.175613
H6    H     H_    0.351511 0.893517 0.952232 0.153667
H7    H     H_    0.521619 0.890221 0.280625 0.174265
H8    H     H_    0.379707 0.346298 0.125579 0.158581
H9    H     H_    0.178293 0.762163 0.999656 0.176183
H10   H     H_    0.666642 0.675327 0.256704 0.198774
H11   H     H_    0.785398 0.821464 0.134136 0.178035
H12   H     H_    0.786166 0.819836 0.878845 0.163628
H13   H     H_    0.378553 0.347271 0.867738 0.141536
H14   H     H_    0.117908 0.739395 0.244112 0.163649
H15   H     H_    0.156550 0.369417 0.948719 0.159825
H16   H     H_    0.878092 0.563698 0.294586 0.145187
H17   H     H_    0.121189 0.419487 0.703527 0.142429
H18   H     H_    0.907224 0.567038 0.866324 0.165847
H19   H     H_    0.824618 0.474638 0.079998 0.162171
N1    N     N_R   0.501190 0.501210 0.147910 -0.192513
N2    N     N_R   0.501230 0.501290 0.852040 -0.195562
O1    O     O_R   0.499990 0.319640 0.618810 -0.605255
O2    O     O_R   0.500000 0.319660 0.381240 -0.555328
O3    O     O_R   0.319640 0.500000 0.618780 -0.564026
O4    O     O_R   0.319650 0.500020 0.381210 -0.575174
O5    O     O_R   0.500000 0.680340 0.618760 -0.575459
O6    O     O_R   0.500010 0.680360 0.381190 -0.613455
O7    O     O_R   0.680350 0.499980 0.618790 -0.605613
O8    O     O_R   0.680360 0.500000 0.381220 -0.582312
Cl1   Cl    Cl    0.737816 0.229096 0.144255 -0.645837
H20   H     H_    0.560570 0.192747 0.789918 0.189006
Cl2   Cl    Cl    0.268645 0.771928 0.702563 -0.696840
H21   H     H_    0.668982 0.670278 0.751533 0.196505
Cl3   Cl    Cl    0.087114 0.285402 0.216472 -0.614296

loop_
_geom_bond_atom_site_label_1
_geom_bond_atom_site_label_2
_ccdc_geom_bond_type
C16   C21   A    
Cu1   Cu2   S    
C23   O6    A    
C19   C20   A    
C7    C8    A    
C37   C38   A    
C28   C29   A    
C38   C39   A    
C29   H12   S    
C18   C19   A    
C23   C26   S    
C37   H14   S    
C33   N1    A    
Cu2   O2    S    
C1    O2    A    
C14   H3    S    
C9    C10   A    
Cu2   N1    S    
C1    C22   S    
C13   C14   A    
C8    C38   S    
C25   C26   A    
Cu1   O5    S    
C7    C12   S    
C12   O4    A    
C4    C34   S    
C35   H13   S    
C16   H20   S    
C31   N2    A    
C24   C25   A    
C3    C8    A    
C39   C40   A    
C11   Cl1   S    
C16   C17   A    
C33   H8    S    
C12   O3    A    
Cu2   O6    S    
C23   O5    A    
C29   C30   A    
C31   C32   A    
C2    H1    S    
C17   C18   A    
C39   Cl3   S    
Cu1   O3    S    
C36   H9    S    
Cu2   O4    S    
C22   C24   A    
C10   H19   S    
Cu1   N2    S    
C3    C4    A    
C1    O1    A    
C27   H10   S    
C2    C36   A    
C34   O7    A    
C36   C37   A    
C40   H15   S    
C27   C32   A    
C6    H17   S    
C19   Cl2   S    
C17   H5    S    
C4    C5    A    
C18   H6    S    
C28   H11   S    
C6    C7    A    
C9    H18   S    
C24   H4    S    
C9    C15   A    
C32   N1    A    
C30   H21   S    
C11   C13   A    
C30   C31   A    
C5    C6    A    
C20   C26   A    
Cu2   O8    S    
C33   C35   A    
C25   H7    S    
C5    C15   S    
C10   C11   A    
C3    H16   S    
C2    C40   A    
C20   C21   A    
C27   C28   A    
C14   C15   A    
C35   N2    A    
Cu1   O1    S    
C21   C22   A    
C34   O8    A    
C13   H2    S    
Cu1   O7    S    
