data_mof_unit_64024.cif
_audit_creation_date              2012-12-10T18:01:25-0500
_audit_creation_method            fapswitch 2.2
_symmetry_space_group_name_H-M    P1
_symmetry_Int_Tables_number       1
_space_group_crystal_system       triclinic
_cell_length_a                    18.269615
_cell_length_b                    18.270225
_cell_length_c                    25.847544
_cell_angle_alpha                 89.985634
_cell_angle_beta                  89.892565
_cell_angle_gamma                 90.059309
_cell_volume                      8627.63104483

loop_
_atom_site_label
_atom_site_type_symbol
_atom_type_description
_atom_site_fract_x
_atom_site_fract_y
_atom_site_fract_z
_atom_type_partial_charge
C1    C     C_R   0.859717 0.139834 0.750302 0.498302
C2    C     C_R   0.194381 0.197732 0.251278 0.036175
C3    C     C_R   0.285558 0.731119 0.206760 -0.118566
C4    C     C_3   0.924498 0.124726 0.546867 -0.378320
C5    C     C_3   0.057573 0.134471 0.560484 -0.367795
C6    C     C_3   0.089374 0.115626 0.453646 -0.377877
C7    C     C_3   0.958247 0.140194 0.439780 -0.375019
C8    C     C_3   0.417070 0.620128 0.047036 -0.375666
C9    C     C_3   0.549465 0.637798 0.060118 -0.370922
C10   C     C_3   0.580968 0.621579 0.952879 -0.375171
C11   C     C_3   0.448298 0.636852 0.939822 -0.368598
C12   C     C_3   0.907387 0.291407 0.269330 -0.372798
C13   C     C_R   0.193638 0.198452 0.747250 0.033290
C14   C     C_3   0.123892 0.257611 0.323771 -0.384965
C15   C     C_3   0.097963 0.289631 0.715368 -0.374938
C16   C     C_3   0.779501 0.164422 0.845904 -0.348465
C17   C     C_3   0.275270 0.662693 0.652796 -0.372325
C18   C     C_3   0.709615 0.674930 0.650196 -0.368465
C19   C     C_3   0.597283 0.790350 0.217238 -0.371543
C20   C     C_3   0.281642 0.665514 0.347206 -0.367478
C21   C     C_3   0.166232 0.783967 0.653053 -0.382193
C22   C     C_3   0.833372 0.781197 0.651753 -0.382039
C23   C     C_3   0.713005 0.905347 0.222633 -0.367086
C24   C     C_R   0.802154 0.194716 0.751934 0.030478
C25   C     C_3   0.160001 0.774224 0.345903 -0.373719
C26   C     C_3   0.791136 0.405261 0.276325 -0.373951
C27   C     C_3   0.236920 0.376011 0.322980 -0.370540
C28   C     C_3   0.213872 0.404601 0.720097 -0.373652
C29   C     C_3   0.658385 0.273116 0.844781 -0.368170
C30   C     C_R   0.301102 0.693116 0.747454 0.032507
C31   C     C_R   0.698359 0.693796 0.747068 0.028789
C32   C     C_R   0.693563 0.698488 0.247208 0.035372
C33   C     C_R   0.301861 0.694136 0.252406 0.030727
C34   C     C_R   0.827208 0.272730 0.260671 0.004010
C35   C     C_R   0.188715 0.255907 0.286951 0.010139
C36   C     C_R   0.174813 0.270934 0.733224 0.010117
C37   C     C_R   0.139498 0.140496 0.749422 0.499844
C38   C     C_R   0.762527 0.208734 0.797908 -0.007285
C39   C     C_R   0.262398 0.707943 0.701221 0.006704
C40   C     C_R   0.732844 0.712905 0.699878 0.004054
C41   C     C_R   0.674439 0.771285 0.234239 0.007341
C42   C     C_R   0.263177 0.708750 0.298712 0.002835
C43   C     C_R   0.209245 0.764361 0.701438 -0.009515
C44   C     C_R   0.789642 0.765709 0.700618 -0.004217
C45   C     C_R   0.729497 0.825887 0.235704 -0.015633
C46   C     C_R   0.206919 0.762075 0.298091 -0.000475
C47   C     C_R   0.771773 0.326874 0.262229 -0.008549
C48   C     C_R   0.139961 0.139988 0.249955 0.501037
C49   C     C_R   0.243200 0.311158 0.286691 -0.004468
C50   C     C_R   0.229893 0.325533 0.734518 -0.006537
C51   C     C_R   0.706312 0.261935 0.797310 -0.002348
C52   C     C_R   0.194877 0.802296 0.748272 0.057201
C53   C     C_R   0.806553 0.801099 0.748061 0.055723
C54   C     C_R   0.802078 0.805431 0.248628 0.058964
C55   C     C_R   0.193893 0.801619 0.251698 0.065712
C56   C     C_R   0.698180 0.305752 0.252526 0.054844
C57   C     C_R   0.302020 0.305617 0.250971 0.067244
C58   C     C_R   0.302128 0.305425 0.748555 0.061603
C59   C     C_R   0.860786 0.140788 0.250688 0.506060
C60   C     C_R   0.694188 0.302180 0.751215 0.068352
C61   C     C_R   0.931756 0.012100 0.973534 0.104135
C62   C     C_R   0.932285 0.012979 0.027755 0.100926
C63   C     C_R   0.445966 0.452450 0.473257 0.101668
C64   C     C_R   0.445260 0.453349 0.527464 0.102101
C65   C     C_R   0.998489 0.999852 0.053635 0.037454
C66   C     C_R   0.997658 0.999586 0.946682 0.038955
C67   C     C_R   0.494389 0.499924 0.553582 0.035209
C68   C     C_R   0.494479 0.499526 0.446646 0.031259
C69   C     C_R   0.063042 0.985402 0.026603 -0.139903
C70   C     C_R   0.359561 0.639584 0.250520 0.494001
C71   C     C_R   0.062682 0.985559 0.973086 -0.139184
C72   C     C_R   0.540276 0.547701 0.526632 -0.155060
C73   C     C_R   0.540053 0.547752 0.473334 -0.159040
C74   C     C_R   0.139997 0.859877 0.749840 0.525620
C75   C     C_R   0.860275 0.859677 0.749841 0.523952
C76   C     C_R   0.859837 0.860100 0.249965 0.528978
C77   C     C_R   0.139784 0.859769 0.250134 0.530576
C78   C     C_R   0.640217 0.360098 0.250227 0.525809
C79   C     C_R   0.359902 0.360100 0.249974 0.535610
C80   C     C_R   0.359831 0.360124 0.749932 0.528519
C81   C     C_R   0.639459 0.640520 0.249393 0.491870
C82   C     C_R   0.640005 0.360086 0.749845 0.529111
C83   C     C_R   0.999542 0.999922 0.890946 0.541899
C84   C     C_R   0.000765 0.999974 0.109156 0.535079
C85   C     C_R   0.498226 0.499864 0.390936 0.519821
C86   C     C_R   0.498417 0.499970 0.609137 0.527291
C87   C     C_R   0.999947 0.999905 0.608689 0.488658
C88   C     C_R   0.000084 0.000124 0.391333 0.495370
C89   C     C_R   0.499943 0.500047 0.108678 0.505970
C90   C     C_R   0.500053 0.500022 0.891323 0.496792
C91   C     C_3   0.931850 0.963123 0.529583 -0.251707
C92   C     C_R   0.640628 0.639333 0.749189 0.503679
C93   C     C_3   0.068039 0.963691 0.529464 -0.245736
C94   C     C_3   0.063053 0.955556 0.470421 -0.252335
C95   C     C_3   0.927883 0.971954 0.470600 -0.243850
C96   C     C_3   0.434633 0.458840 0.029608 -0.248090
C97   C     C_3   0.570483 0.468432 0.029422 -0.244059
C98   C     C_3   0.566112 0.460076 0.970414 -0.252584
C99   C     C_3   0.430117 0.467095 0.970590 -0.246133
C100  C     C_3   0.998781 0.087977 0.531238 0.052347
C101  C     C_3   0.011277 0.087352 0.469007 0.054652
C102  C     C_3   0.493315 0.587862 0.031134 0.048404
C103  C     C_R   0.359360 0.639349 0.749430 0.495825
C104  C     C_3   0.505262 0.587958 0.968823 0.049730
C105  C     C_3   0.999735 0.004965 0.551015 0.083672
C106  C     C_3   0.000614 0.005052 0.449059 0.081077
C107  C     C_3   0.499600 0.505103 0.050978 0.072253
C108  C     C_3   0.500364 0.505092 0.949020 0.076733
C109  C     C_R   0.232193 0.784399 0.793978 0.066151
C110  C     C_R   0.771974 0.779978 0.794362 0.066788
C111  C     C_R   0.819882 0.732339 0.259495 0.064166
C112  C     C_R   0.232785 0.785302 0.206199 0.066303
C113  C     C_R   0.679671 0.231713 0.245443 0.067389
C114  C     C_R   0.806784 0.198926 0.252387 0.030726
C115  C     C_R   0.304364 0.248803 0.214503 0.070262
C116  C     C_R   0.319690 0.232631 0.760490 0.066177
C117  C     C_R   0.733940 0.286737 0.705920 0.065450
C118  C     C_R   0.733828 0.179076 0.246085 -0.115317
C119  C     C_R   0.250941 0.195025 0.215164 -0.112669
C120  C     C_R   0.265433 0.179849 0.759717 -0.112967
C121  C     C_R   0.786781 0.232536 0.706461 -0.118777
C122  C     C_R   0.284868 0.730147 0.793174 -0.118527
C123  C     C_R   0.719166 0.725938 0.793545 -0.121569
C124  C     C_R   0.765609 0.679590 0.258679 -0.119433
H1    H     H_    0.879643 0.981743 0.547283 0.147008
H2    H     H_    0.071758 0.908116 0.546999 0.113219
H3    H     H_    0.692004 0.294279 0.877256 0.136094
H4    H     H_    0.051567 0.897298 0.460608 0.113876
H5    H     H_    0.917665 0.917192 0.453091 0.129729
H6    H     H_    0.443019 0.400090 0.039493 0.143872
H7    H     H_    0.577760 0.413171 0.046877 0.140644
H8    H     H_    0.558730 0.401173 0.960554 0.124203
H9    H     H_    0.423763 0.411709 0.953151 0.136578
H10   H     H_    0.719140 0.122182 0.240101 0.145651
H11   H     H_    0.253269 0.150935 0.187159 0.145228
H12   H     H_    0.279038 0.123961 0.769981 0.153350
H13   H     H_    0.119562 0.992278 0.539794 0.137171
H14   H     H_    0.817523 0.221084 0.671475 0.133775
H15   H     H_    0.314642 0.717755 0.828348 0.141534
H16   H     H_    0.692375 0.710356 0.829370 0.140204
H17   H     H_    0.779414 0.623466 0.268160 0.137965
H18   H     H_    0.315671 0.719105 0.171593 0.137013
H19   H     H_    0.113689 0.974700 0.047018 0.152313
H20   H     H_    0.113081 0.975063 0.952184 0.152458
H21   H     H_    0.577318 0.584054 0.546952 0.133548
H22   H     H_    0.576835 0.584254 0.452815 0.138343
H23   H     H_    0.876725 0.100666 0.526846 0.128106
H24   H     H_    0.117051 0.968085 0.452670 0.144317
H25   H     H_    0.914241 0.120274 0.589059 0.151069
H26   H     H_    0.924944 0.184244 0.538164 0.128804
H27   H     H_    0.058631 0.191519 0.545669 0.124620
H28   H     H_    0.044733 0.138681 0.602419 0.132822
H29   H     H_    0.113386 0.111402 0.557562 0.138999
H30   H     H_    0.133986 0.085952 0.473500 0.129151
H31   H     H_    0.099261 0.110873 0.411520 0.153756
H32   H     H_    0.095817 0.174695 0.462651 0.125364
H33   H     H_    0.963903 0.196998 0.454532 0.123564
H34   H     H_    0.971322 0.142623 0.397801 0.124810
H35   H     H_    0.880074 0.006301 0.460264 0.137308
H36   H     H_    0.900121 0.123744 0.442841 0.134135
H37   H     H_    0.370639 0.592651 0.027629 0.130013
H38   H     H_    0.407697 0.616154 0.089330 0.153307
H39   H     H_    0.413616 0.679373 0.037807 0.135720
H40   H     H_    0.546544 0.694922 0.045584 0.131589
H41   H     H_    0.537153 0.640666 0.102189 0.129435
H42   H     H_    0.606627 0.618540 0.056589 0.136225
H43   H     H_    0.627831 0.595063 0.972375 0.128251
H44   H     H_    0.590436 0.617512 0.910595 0.154262
H45   H     H_    0.583427 0.680918 0.961970 0.135734
H46   H     H_    0.381330 0.474084 0.047290 0.153159
H47   H     H_    0.450288 0.694025 0.954327 0.135441
H48   H     H_    0.460568 0.639966 0.897757 0.134606
H49   H     H_    0.391456 0.616542 0.943359 0.135771
H50   H     H_    0.939287 0.279425 0.233770 0.170568
H51   H     H_    0.918049 0.349453 0.278732 0.124569
H52   H     H_    0.929153 0.258234 0.301859 0.110921
H53   H     H_    0.072270 0.258583 0.301201 0.124336
H54   H     H_    0.124431 0.207825 0.348326 0.130921
H55   H     H_    0.122798 0.305373 0.350008 0.126475
H56   H     H_    0.060668 0.241958 0.713253 0.137177
H57   H     H_    0.620058 0.500238 0.039801 0.139335
H58   H     H_    0.073069 0.330015 0.742221 0.143814
H59   H     H_    0.100074 0.312695 0.675646 0.125946
H60   H     H_    0.836425 0.175529 0.858563 0.177784
H61   H     H_    0.743926 0.176133 0.879520 0.146086
H62   H     H_    0.773345 0.105385 0.836754 0.166082
H63   H     H_    0.314327 0.617061 0.658075 0.147646
H64   H     H_    0.223129 0.636833 0.640469 0.122356
H65   H     H_    0.296677 0.698240 0.621369 0.141687
H66   H     H_    0.713596 0.614667 0.655069 0.137389
H67   H     H_    0.652305 0.689798 0.640810 0.163709
H68   H     H_    0.619157 0.476322 0.952735 0.147427
H69   H     H_    0.742626 0.689512 0.615834 0.118216
H70   H     H_    0.560086 0.742662 0.214559 0.140493
H71   H     H_    0.572671 0.829800 0.244904 0.147683
H72   H     H_    0.598760 0.814671 0.177879 0.131896
H73   H     H_    0.338445 0.678088 0.359450 0.165515
H74   H     H_    0.246117 0.677364 0.380824 0.120426
H75   H     H_    0.276913 0.605982 0.339156 0.130203
H76   H     H_    0.180060 0.840485 0.640717 0.161840
H77   H     H_    0.177045 0.748248 0.619405 0.118530
H78   H     H_    0.106631 0.780479 0.661234 0.118005
H79   H     H_    0.380018 0.497969 0.960205 0.140431
H80   H     H_    0.881445 0.817057 0.657697 0.135728
H81   H     H_    0.856064 0.729270 0.636269 0.121457
H82   H     H_    0.797617 0.807210 0.622345 0.140183
H83   H     H_    0.721807 0.940089 0.257267 0.162262
H84   H     H_    0.749775 0.924114 0.191026 0.149311
H85   H     H_    0.656308 0.915558 0.209686 0.138122
H86   H     H_    0.113948 0.812606 0.340064 0.147840
H87   H     H_    0.134466 0.721702 0.357878 0.139036
H88   H     H_    0.194297 0.795975 0.377819 0.130148
H89   H     H_    0.743264 0.441559 0.281560 0.140261
H90   H     H_    0.936380 0.903902 0.539345 0.112640
H91   H     H_    0.820132 0.406207 0.314043 0.126512
H92   H     H_    0.826574 0.429401 0.245800 0.151230
H93   H     H_    0.282595 0.415638 0.319582 0.140716
H94   H     H_    0.185733 0.406460 0.314609 0.130565
H95   H     H_    0.235857 0.356509 0.363601 0.167596
H96   H     H_    0.222310 0.440378 0.754248 0.161919
H97   H     H_    0.251214 0.422245 0.688498 0.141844
H98   H     H_    0.157410 0.414547 0.706543 0.124914
H99   H     H_    0.612399 0.311573 0.838904 0.147588
H100  H     H_    0.632644 0.220345 0.855979 0.152367
I1    I     I_    0.215591 0.840349 0.865257 -0.339944
I2    I     I_    0.834232 0.031719 0.071378 -0.285811
I3    I     I_    0.370988 0.383595 0.432218 -0.324647
I4    I     I_    0.365947 0.389981 0.569720 -0.300700
I5    I     I_    0.793447 0.828892 0.867405 -0.276111
I6    I     I_    0.927005 0.698087 0.280806 -0.382937
I7    I     I_    0.217575 0.842779 0.135382 -0.342839
I8    I     I_    0.571410 0.194200 0.231211 -0.271417
I9    I     I_    0.385665 0.242744 0.155778 -0.305574
I10   I     I_    0.426444 0.199060 0.783185 -0.331166
I11   I     I_    0.719615 0.345478 0.635567 -0.359431
I12   I     I_    0.831973 0.025164 0.932255 -0.301964
O1    O     O_3   1.000000 0.000000 0.749970 -0.450982
O2    O     O_R   0.646190 0.585480 0.219360 -0.547166
O3    O     O_R   0.646190 0.585480 0.780640 -0.540583
O4    O     O_R   0.353810 0.585480 0.780640 -0.548661
O5    O     O_R   0.146170 0.914530 0.719320 -0.546392
O6    O     O_R   0.853830 0.914530 0.719320 -0.540430
O7    O     O_R   0.853830 0.914530 0.280680 -0.549845
O8    O     O_R   0.146170 0.914530 0.280680 -0.543431
O9    O     O_R   0.646170 0.414530 0.219320 -0.541730
O10   O     O_R   0.353830 0.414530 0.219320 -0.530280
O11   O     O_R   0.353830 0.414530 0.780680 -0.550312
O12   O     O_3   1.000000 0.000000 0.250030 -0.452170
O13   O     O_R   0.646170 0.414530 0.780680 -0.545734
O14   O     O_R   0.085450 0.146180 0.780600 -0.536731
O15   O     O_R   0.914550 0.146180 0.780600 -0.545942
O16   O     O_R   0.914550 0.146180 0.219400 -0.533924
O17   O     O_R   0.085450 0.146180 0.219400 -0.543149
O18   O     O_R   0.585450 0.646180 0.280600 -0.540689
O19   O     O_R   0.414550 0.646180 0.280600 -0.548335
O20   O     O_R   0.414550 0.646180 0.719400 -0.536068
O21   O     O_R   0.585450 0.646180 0.719400 -0.543395
O22   O     O_R   0.914560 0.853830 0.780620 -0.512273
O23   O     O_3   0.500000 0.500000 0.249970 -0.451469
O24   O     O_R   0.085440 0.853830 0.780620 -0.514617
O25   O     O_R   0.085440 0.853830 0.219380 -0.499077
O26   O     O_R   0.914560 0.853830 0.219380 -0.503540
O27   O     O_R   0.414560 0.353830 0.280620 -0.498930
O28   O     O_R   0.585440 0.353830 0.280620 -0.507465
O29   O     O_R   0.585440 0.353830 0.719380 -0.495770
O30   O     O_R   0.414560 0.353830 0.719380 -0.496945
O31   O     O_R   1.000000 0.060730 0.866830 -0.530326
O32   O     O_R   0.000000 0.060730 0.133170 -0.521858
O33   O     O_R   0.500000 0.560730 0.366830 -0.552246
O34   O     O_3   0.500000 0.500000 0.750030 -0.450714
O35   O     O_R   0.500000 0.560730 0.633170 -0.558525
O36   O     O_R   0.939250 0.000010 0.633130 -0.562207
O37   O     O_R   0.060750 0.000010 0.633130 -0.557073
O38   O     O_R   0.060750 0.000010 0.366870 -0.562520
O39   O     O_R   0.939250 0.000010 0.366870 -0.548184
O40   O     O_R   0.439250 0.500010 0.133130 -0.547987
O41   O     O_R   0.560750 0.500010 0.133130 -0.544975
O42   O     O_R   0.560750 0.500010 0.866870 -0.559798
O43   O     O_R   0.439250 0.500010 0.866870 -0.546807
O44   O     O_R   0.000000 0.939270 0.866820 -0.497723
O45   O     O_R   0.853810 0.085480 0.719360 -0.533952
O46   O     O_R   1.000000 0.939270 0.133180 -0.512755
O47   O     O_R   0.500000 0.439270 0.366820 -0.508912
O48   O     O_R   0.500000 0.439270 0.633180 -0.493662
O49   O     O_R   0.146190 0.085480 0.719360 -0.537528
O50   O     O_R   0.146190 0.085480 0.280640 -0.535977
O51   O     O_R   0.853810 0.085480 0.280640 -0.549345
O52   O     O_R   0.353810 0.585480 0.219360 -0.543850
Zn1   Zn    Zn3+2 0.086750 0.999990 0.706190 0.921770
Zn2   Zn    Zn3+2 1.000000 0.086770 0.206250 0.955402
Zn3   Zn    Zn3+2 0.500000 0.586770 0.293750 0.918727
Zn4   Zn    Zn3+2 0.500000 0.586770 0.706250 0.930625
Zn5   Zn    Zn3+2 0.000000 0.913230 0.793740 1.002262
Zn6   Zn    Zn3+2 1.000000 0.913230 0.206260 1.008884
Zn7   Zn    Zn3+2 0.500000 0.413230 0.293740 1.003522
Zn8   Zn    Zn3+2 0.500000 0.413230 0.706260 1.014696
Zn9   Zn    Zn3+2 0.913250 0.999990 0.706190 0.926471
Zn10  Zn    Zn3+2 0.913250 0.999990 0.293810 0.925006
Zn11  Zn    Zn3+2 0.086750 0.999990 0.293810 0.928123
Zn12  Zn    Zn3+2 0.586750 0.499990 0.206190 0.934715
Zn13  Zn    Zn3+2 0.413250 0.499990 0.206190 0.944030
Zn14  Zn    Zn3+2 0.413250 0.499990 0.793810 0.924984
Zn15  Zn    Zn3+2 0.586750 0.499990 0.793810 0.930487
Zn16  Zn    Zn3+2 0.000000 0.086770 0.793750 0.952368

loop_
_geom_bond_atom_site_label_1
_geom_bond_atom_site_label_2
_ccdc_geom_bond_type
C92   O3    A    
C11   H47   S    
C77   O8    A    
C82   O13   A    
C115  I9    S    
O1    Zn16  S    
C32   C81   S    
C77   O25   A    
C122  H15   S    
C96   C99   S    
C78   O9    A    
C98   C108  S    
C81   O2    A    
C17   C39   S    
C25   H87   S    
C18   C40   S    
C44   C53   A    
C30   C122  A    
C46   C55   A    
O12   Zn11  S    
C6    H31   S    
C28   H96   S    
C103  O20   A    
C53   C75   S    
O37   Zn1   S    
C79   O10   A    
C21   H77   S    
C97   H7    S    
C37   O49   A    
C63   I3    S    
C59   O51   A    
O23   Zn13  S    
O29   Zn8   S    
C90   O43   A    
C9    H40   S    
C110  C123  A    
C75   O22   A    
C3    C112  A    
C80   O11   A    
C60   C117  A    
C20   H74   S    
C26   C47   S    
C36   C50   A    
C113  I8    S    
C12   H50   S    
C76   O26   A    
C18   H66   S    
C91   H1    S    
C23   H83   S    
C111  C124  A    
C78   O28   A    
C72   C73   A    
C20   C42   S    
C16   H60   S    
O34   Zn15  S    
C7    H33   S    
C74   O24   A    
C4    H26   S    
C5    H27   S    
O1    Zn1   S    
O38   Zn11  S    
C1    O45   A    
O13   Zn15  S    
O7    Zn10  S    
O14   Zn16  S    
C24   C121  A    
C82   O29   A    
O5    Zn1   S    
C97   C107  S    
C27   H94   S    
C28   H98   S    
C85   O47   A    
C117  I11   S    
C8    H38   S    
C48   O17   A    
C29   H100  S    
O4    Zn14  S    
O51   Zn10  S    
O52   Zn13  S    
C91   C105  S    
C92   O21   A    
C10   H45   S    
C99   C108  S    
C112  I7    S    
C26   H89   S    
C95   H35   S    
C33   C42   A    
O30   Zn8   S    
C9    H42   S    
C86   O35   A    
C52   C74   S    
C43   C52   A    
C17   H64   S    
C72   H21   S    
C15   H58   S    
O49   Zn1   S    
C49   C57   A    
C22   H82   S    
C67   C72   A    
C93   H2    S    
O19   Zn3   S    
O10   Zn13  S    
O47   Zn7   S    
C103  O4    A    
C35   C49   A    
C32   C41   A    
O28   Zn7   S    
O40   Zn13  S    
C118  H10   S    
C12   H52   S    
O42   Zn15  S    
C19   H72   S    
O43   Zn14  S    
C58   C116  A    
C68   C85   S    
O12   Zn10  S    
O15   Zn16  S    
C94   H24   S    
C76   O7    A    
C65   C84   S    
C38   C51   A    
O34   Zn8   S    
C116  C120  A    
C95   C106  S    
C87   O36   A    
C87   C105  S    
C89   O41   A    
C102  C107  S    
C14   H54   S    
O3    Zn15  S    
C10   H44   S    
C116  I10   S    
C115  C119  A    
C29   H3    S    
O50   Zn11  S    
C15   C36   S    
C13   C120  A    
C29   C51   S    
C101  C106  S    
C63   C68   A    
C41   C45   A    
C99   H79   S    
C1    O15   A    
C22   H80   S    
C90   C108  S    
O22   Zn5   S    
C100  C101  S    
C30   C39   A    
O16   Zn2   S    
C61   C62   A    
C124  H17   S    
C91   C95   S    
C63   C64   A    
C40   C44   A    
C19   H70   S    
C7    C101  S    
C98   H8    S    
O27   Zn7   S    
C51   C60   A    
C87   O37   A    
C6    H32   S    
C27   C49   S    
C47   C56   A    
C2    C35   A    
O6    Zn9   S    
C27   H95   S    
C23   C45   S    
C79   O27   A    
O17   Zn2   S    
C64   I4    S    
C57   C115  A    
C88   O39   A    
O33   Zn3   S    
C16   H61   S    
O34   Zn4   S    
C23   H84   S    
C3    C33   A    
C37   O14   A    
C31   C40   A    
C84   O32   A    
C26   H92   S    
C42   C46   A    
C85   O33   A    
C57   C79   S    
C66   C83   S    
C48   O50   A    
C9    C102  S    
C15   H59   S    
C30   C103  S    
C56   C113  A    
O26   Zn6   S    
C11   C104  S    
C58   C80   S    
O23   Zn7   S    
C11   H48   S    
O31   Zn16  S    
O1    Zn9   S    
C97   C98   S    
C18   H67   S    
C50   C58   A    
C83   O44   A    
O45   Zn9   S    
O46   Zn6   S    
C7    H36   S    
C2    C48   S    
C62   I2    S    
C4    H23   S    
C84   O46   A    
C119  H11   S    
C120  H12   S    
C25   H88   S    
C110  I5    S    
O41   Zn12  S    
C66   C71   A    
C89   C107  S    
O12   Zn6   S    
C6    H30   S    
C33   C70   S    
C96   C107  S    
C27   H93   S    
C70   O52   A    
C80   O30   A    
C12   C34   S    
O18   Zn3   S    
O35   Zn4   S    
C104  C108  S    
C96   H6    S    
C29   H99   S    
C67   C86   S    
C21   H78   S    
C70   O19   A    
C94   H4    S    
C69   H19   S    
C90   O42   A    
C9    H41   S    
C75   O6    A    
C52   C109  A    
C17   H63   S    
C59   C114  S    
C65   C69   A    
C83   O31   A    
C54   C111  A    
C20   H73   S    
C95   H5    S    
C26   H91   S    
C34   C47   A    
C19   C41   S    
C71   H20   S    
O2    Zn12  S    
C53   C110  A    
C19   H71   S    
C93   C94   S    
C55   C112  A    
C32   C124  A    
O9    Zn12  S    
C56   C78   S    
O34   Zn14  S    
C7    H34   S    
C4    H25   S    
C100  C105  S    
C5    H28   S    
C91   H90   S    
C8    H37   S    
C55   C77   S    
C109  C122  A    
C99   H9    S    
C6    C101  S    
C69   C71   A    
C88   O38   A    
C117  C121  A    
C93   C105  S    
C21   C43   S    
C74   O5    A    
C28   C50   S    
C61   C66   A    
C22   C44   S    
C10   H43   S    
C89   O40   A    
C24   C38   A    
C5    C100  S    
C81   O18   A    
C13   C37   S    
C14   H55   S    
O39   Zn10  S    
C96   H46   S    
C15   H56   S    
C18   H69   S    
C25   H86   S    
C3    H18   S    
C60   C82   S    
O23   Zn12  S    
C11   H49   S    
C64   C67   A    
C13   C36   A    
C98   H68   S    
C14   C35   S    
C109  I1    S    
C28   H97   S    
C39   C43   A    
C23   H85   S    
C17   H65   S    
C68   C73   A    
C123  H16   S    
C22   H81   S    
C121  H14   S    
C20   H75   S    
C88   C106  S    
O23   Zn3   S    
O44   Zn5   S    
C86   O48   A    
C102  C104  S    
C114  C118  A    
O1    Zn5   S    
C1    C24   S    
C12   H51   S    
C54   C76   S    
C45   C54   A    
C4    C100  S    
O11   Zn14  S    
C21   H76   S    
O32   Zn2   S    
O20   Zn4   S    
C61   I12   S    
C94   C106  S    
C62   C65   A    
C8    H39   S    
C2    C119  A    
C97   H57   S    
O48   Zn8   S    
C34   C114  A    
O12   Zn2   S    
C73   H22   S    
C10   C104  S    
C31   C123  A    
C16   H62   S    
C5    H29   S    
C25   C46   S    
C14   H53   S    
C93   H13   S    
C113  C118  A    
O24   Zn5   S    
O21   Zn4   S    
C31   C92   S    
C59   O16   A    
C111  I6    S    
O25   Zn6   S    
C8    C102  S    
O36   Zn9   S    
O8    Zn11  S    
C16   C38   S    
