data_mof_unit_7666.cif
_audit_creation_date              2012-12-11T15:45:00-0500
_audit_creation_method            fapswitch 2.2
_symmetry_space_group_name_H-M    P1
_symmetry_Int_Tables_number       1
_space_group_crystal_system       triclinic
_cell_length_a                    19.018312
_cell_length_b                    10.995481
_cell_length_c                    18.663252
_cell_angle_alpha                 89.540616
_cell_angle_beta                  90.504161
_cell_angle_gamma                 90.186637
_cell_volume                      3902.4787063

loop_
_atom_site_label
_atom_site_type_symbol
_atom_type_description
_atom_site_fract_x
_atom_site_fract_y
_atom_site_fract_z
_atom_type_partial_charge
C1    C     C_R   0.760450 0.535401 0.647204 0.534505
C2    C     C_R   0.280678 0.009838 0.520694 -0.127604
C3    C     C_R   0.516210 0.767804 0.956059 0.018955
C4    C     C_R   0.913394 0.381207 0.986837 -0.134302
C5    C     C_R   0.933406 0.378120 0.058901 -0.097993
C6    C     C_R   0.413393 0.881207 0.986837 -0.134303
C7    C     C_R   0.433406 0.878121 0.058902 -0.098008
C8    C     C_3   0.112720 0.265541 0.008651 -0.263107
C9    C     C_3   0.090135 0.260631 0.930560 -0.242411
C10   C     C_3   0.612719 0.765538 0.008651 -0.263118
C11   C     C_3   0.590134 0.760629 0.930560 -0.242419
C12   C     C_R   0.761921 0.527471 0.854808 0.534435
C13   C     C_R   0.326597 0.589391 0.447839 -0.161492
C14   C     C_R   0.237444 0.528214 0.145541 0.547843
C15   C     C_R   0.261921 0.027471 0.854808 0.534409
C16   C     C_R   0.737444 0.028213 0.145541 0.547844
C17   C     C_R   0.771499 0.121947 0.851264 0.581158
C18   C     C_R   0.229617 0.122446 0.149061 0.569747
C19   C     C_R   0.271498 0.621946 0.851264 0.581136
C20   C     C_R   0.729617 0.622446 0.149061 0.569747
C21   C     C_R   0.939029 0.350284 0.860719 0.555344
C22   C     C_R   0.029277 0.346101 0.147284 0.553354
C23   C     C_R   0.439029 0.850284 0.860719 0.555344
C24   C     C_R   0.780678 0.509838 0.520694 -0.127602
C25   C     C_R   0.529276 0.846101 0.147284 0.553355
C26   C     C_R   0.759812 0.107345 0.416111 0.005918
C27   C     C_R   0.251767 0.079433 0.575740 0.034457
C28   C     C_R   0.259812 0.607345 0.416111 0.005921
C29   C     C_R   0.751767 0.579433 0.575740 0.034461
C30   C     C_R   0.711158 0.176954 0.453589 0.013806
C31   C     C_R   0.202789 0.169295 0.559670 0.008563
C32   C     C_R   0.211158 0.676954 0.453589 0.013805
C33   C     C_R   0.702790 0.669295 0.559670 0.008564
C34   C     C_R   0.722684 0.203637 0.525224 0.021573
C35   C     C_3   0.634099 0.160028 0.464220 -0.256553
C36   C     C_R   0.189445 0.200125 0.488934 0.011712
C37   C     C_R   0.222684 0.703637 0.525224 0.021560
C38   C     C_R   0.689445 0.700125 0.488934 0.011713
C39   C     C_3   0.203029 0.299183 0.582409 -0.274452
C40   C     C_3   0.134099 0.660028 0.464220 -0.256565
C41   C     C_3   0.703030 0.799183 0.582409 -0.274455
C42   C     C_3   0.647063 0.186255 0.543007 -0.261089
C43   C     C_3   0.188610 0.332637 0.504770 -0.283219
C44   C     C_3   0.147063 0.686255 0.543007 -0.261068
C45   C     C_R   0.240192 0.535475 0.353229 0.524906
C46   C     C_3   0.688610 0.832638 0.504770 -0.283219
C47   C     C_R   0.783236 0.163143 0.561259 -0.002268
C48   C     C_R   0.223434 0.139642 0.433908 0.033567
C49   C     C_R   0.283236 0.663143 0.561259 -0.002274
C50   C     C_R   0.723434 0.639642 0.433908 0.033567
C51   C     C_R   0.989697 0.329217 0.420745 -0.041028
C52   C     C_R   0.996812 0.347279 0.571248 -0.046305
C53   C     C_R   0.489697 0.829217 0.420745 -0.041029
C54   C     C_R   0.496813 0.847279 0.571248 -0.046302
C55   C     C_R   0.007468 0.106304 0.432838 -0.082938
C56   C     C_R   0.260450 0.035401 0.647204 0.534484
C57   C     C_R   0.032800 0.132379 0.578930 -0.086072
C58   C     C_R   0.507468 0.606304 0.432838 -0.082939
C59   C     C_R   0.532800 0.632379 0.578930 -0.086074
C60   C     C_R   0.026000 0.005530 0.474549 -0.131426
C61   C     C_R   0.040054 0.019140 0.547190 -0.120375
C62   C     C_R   0.526000 0.505530 0.474550 -0.131421
C63   C     C_R   0.540054 0.519140 0.547190 -0.120375
C64   C     C_R   0.010489 0.234605 0.538382 -0.010096
C65   C     C_R   0.002624 0.223530 0.463233 0.008073
C66   C     C_R   0.510489 0.734605 0.538382 -0.010094
C67   C     C_R   0.740192 0.035475 0.353229 0.524906
C68   C     C_R   0.502624 0.723530 0.463233 0.008072
C69   C     C_R   0.983672 0.452524 0.527135 0.001932
C70   C     C_R   0.968664 0.436902 0.454017 -0.002612
C71   C     C_R   0.483672 0.952525 0.527135 0.001943
C72   C     C_R   0.468664 0.936903 0.454017 -0.002613
C73   C     C_R   0.791854 0.173074 0.638946 0.560900
C74   C     C_R   0.208345 0.171265 0.361034 0.558602
C75   C     C_R   0.291854 0.673074 0.638946 0.560870
C76   C     C_R   0.708345 0.671265 0.361034 0.558602
C77   C     C_R   0.984420 0.573939 0.552978 -0.077368
C78   C     C_R   0.837927 0.116137 0.520035 -0.165786
C79   C     C_R   0.938643 0.533685 0.413877 -0.081494
C80   C     C_R   0.484420 0.073939 0.552978 -0.077364
C81   C     C_R   0.438643 0.033685 0.413877 -0.081495
C82   C     C_R   0.957709 0.670077 0.511950 -0.133611
C83   C     C_R   0.932372 0.649020 0.443227 -0.115690
C84   C     C_R   0.457709 0.170078 0.511950 -0.133609
C85   C     C_R   0.432372 0.149020 0.443227 -0.115687
C86   C     C_R   0.741500 0.060825 0.069870 -0.049735
C87   C     C_R   0.257486 0.054228 0.931657 -0.049149
C88   C     C_R   0.241500 0.560825 0.069870 -0.049730
C89   C     C_R   0.265842 0.039072 0.449659 -0.126781
C90   C     C_R   0.757486 0.554228 0.931657 -0.049137
C91   C     C_R   0.802177 0.025222 0.036125 0.083766
C92   C     C_R   0.218382 0.974937 0.974834 -0.023815
C93   C     C_R   0.302177 0.525222 0.036125 0.083765
C94   C     C_R   0.718382 0.474938 0.974834 -0.023875
C95   C     C_R   0.806767 0.023426 0.963154 -0.008996
C96   C     C_R   0.217118 0.983107 0.047555 -0.054287
C97   C     C_R   0.306767 0.523425 0.963154 -0.008985
C98   C     C_R   0.717118 0.483107 0.047555 -0.054313
C99   C     C_R   0.685559 0.088318 0.950942 0.178985
C100  C     C_R   0.337927 0.616137 0.520035 -0.165782
C101  C     C_R   0.311633 0.126826 0.043760 0.225047
C102  C     C_R   0.185558 0.588318 0.950942 0.178960
C103  C     C_R   0.811633 0.626825 0.043760 0.225068
C104  C     C_R   0.680754 0.084327 0.026814 -0.190125
C105  C     C_R   0.308953 0.125117 0.967646 -0.148719
C106  C     C_R   0.180755 0.584328 0.026815 -0.190128
C107  C     C_R   0.808954 0.625117 0.967646 -0.148720
C108  C     C_3   0.874606 0.073785 0.046732 -0.249632
C109  C     C_3   0.147354 0.918534 0.971969 -0.213379
C110  C     C_3   0.374607 0.573784 0.046732 -0.249640
C111  C     C_R   0.765842 0.539072 0.449659 -0.126781
C112  C     C_3   0.647355 0.418534 0.971969 -0.213241
C113  C     C_3   0.882314 0.061845 0.967129 -0.245982
C114  C     C_3   0.144633 0.931194 0.052782 -0.260587
C115  C     C_3   0.382314 0.561845 0.967128 -0.245961
C116  C     C_3   0.644633 0.431191 0.052782 -0.260582
C117  C     C_R   0.752049 0.070180 0.920139 0.000756
C118  C     C_R   0.256413 0.070566 0.082990 -0.002823
C119  C     C_R   0.252049 0.570179 0.920138 0.000739
C120  C     C_R   0.756413 0.570566 0.082990 -0.002814
C121  C     C_R   0.970896 0.347986 0.646065 0.536812
C122  C     C_R   0.826597 0.089392 0.447839 -0.161494
C123  C     C_R   0.026349 0.343979 0.351522 0.520903
C124  C     C_R   0.470896 0.847986 0.646065 0.536804
C125  C     C_R   0.526349 0.843979 0.351522 0.520904
C126  C     C_R   0.999254 0.331799 0.077460 0.041301
C127  C     C_R   0.959455 0.339607 0.934471 0.067993
C128  C     C_R   0.499254 0.831799 0.077460 0.041290
C129  C     C_R   0.459455 0.839606 0.934471 0.067983
C130  C     C_R   0.036604 0.266959 0.026570 0.001028
C131  C     C_R   0.016211 0.267805 0.956058 0.018954
C132  C     C_R   0.536604 0.766958 0.026571 0.001028
Cr1   Cr    Cr6+3 0.885860 0.491680 0.749630 1.036336
Cr2   Cr    Cr6+3 0.112430 0.179310 0.249850 0.996428
Cr3   Cr    Cr6+3 0.387570 0.679310 0.750150 1.000649
Cr4   Cr    Cr6+3 0.612430 0.679310 0.249850 0.996430
Cr5   Cr    Cr6+3 0.114140 0.491680 0.250370 1.041273
Cr6   Cr    Cr6+3 0.385860 0.991680 0.749630 1.036287
Cr7   Cr    Cr6+3 0.614140 0.991680 0.250370 1.041273
Cr8   Cr    Cr6+3 0.730490 0.332970 0.748720 1.062257
Cr9   Cr    Cr6+3 0.269510 0.332970 0.251280 1.055396
Cr10  Cr    Cr6+3 0.230490 0.832970 0.748720 1.062574
Cr11  Cr    Cr6+3 0.769510 0.832970 0.251280 1.055396
Cr12  Cr    Cr6+3 0.887570 0.179310 0.750150 1.000629
H1    H     H_    0.887140 0.089886 0.544932 0.158303
H2    H     H_    0.152301 0.822647 0.957896 0.226799
H3    H     H_    0.412112 0.516394 0.076909 0.188090
H4    H     H_    0.652301 0.322647 0.957895 0.226873
H5    H     H_    0.872993 0.168726 0.065569 0.110611
H6    H     H_    0.107371 0.972768 0.942321 0.157764
H7    H     H_    0.372993 0.668725 0.065568 0.110612
H8    H     H_    0.607371 0.472768 0.942322 0.157856
H9    H     H_    0.890834 0.149031 0.940202 0.146295
H10   H     H_    0.103609 0.996291 0.069685 0.167552
H11   H     H_    0.390833 0.649031 0.940202 0.146287
H12   H     H_    0.288454 0.985515 0.407240 0.132024
H13   H     H_    0.603609 0.496287 0.069686 0.167553
H14   H     H_    0.862254 0.413185 0.971800 0.103366
H15   H     H_    0.897750 0.409100 0.099334 0.164381
H16   H     H_    0.362254 0.913185 0.971800 0.103365
H17   H     H_    0.397750 0.909100 0.099334 0.164383
H18   H     H_    0.138947 0.182246 0.027234 0.142841
H19   H     H_    0.107272 0.339934 0.899402 0.226938
H20   H     H_    0.638946 0.682243 0.027234 0.142844
H21   H     H_    0.607270 0.839932 0.899403 0.226958
H22   H     H_    0.867296 0.040987 0.419859 0.140007
H23   H     H_    0.387140 0.589886 0.544932 0.158302
H24   H     H_    0.314536 0.933117 0.532811 0.120837
H25   H     H_    0.367296 0.540987 0.419859 0.140006
H26   H     H_    0.814535 0.433117 0.532810 0.120838
H27   H     H_    0.603001 0.231871 0.436441 0.143805
H28   H     H_    0.158394 0.320166 0.618282 0.146587
H29   H     H_    0.103001 0.731871 0.436441 0.143805
H30   H     H_    0.658395 0.820167 0.618282 0.146582
H31   H     H_    0.622376 0.271679 0.561041 0.139174
H32   H     H_    0.135823 0.372563 0.495816 0.135227
H33   H     H_    0.122376 0.771679 0.561041 0.139196
H34   H     H_    0.788454 0.485515 0.407240 0.132023
H35   H     H_    0.635823 0.872563 0.495816 0.135226
H36   H     H_    0.638278 0.105815 0.578357 0.148732
H37   H     H_    0.232857 0.382128 0.479354 0.147857
H38   H     H_    0.138278 0.605815 0.578357 0.148758
H39   H     H_    0.732858 0.882128 0.479354 0.147858
H40   H     H_    0.993801 0.090066 0.377396 0.132326
H41   H     H_    0.046279 0.139597 0.635166 0.136563
H42   H     H_    0.493801 0.590066 0.377396 0.132325
H43   H     H_    0.546280 0.639597 0.635166 0.136557
H44   H     H_    0.921251 0.520377 0.359044 0.142192
H45   H     H_    0.957026 0.761134 0.533535 0.107810
H46   H     H_    0.008104 0.597762 0.603773 0.146257
H47   H     H_    0.421251 0.020377 0.359044 0.142193
H48   H     H_    0.508104 0.097762 0.603773 0.146190
H49   H     H_    0.550544 0.236160 0.834880 0.360421
H50   H     H_    0.417026 0.334676 0.149621 0.347541
H51   H     H_    0.050236 0.736441 0.835415 0.360405
H52   H     H_    0.917025 0.834676 0.149622 0.347542
H53   H     H_    0.630042 0.095955 0.051714 0.195029
H54   H     H_    0.349507 0.171151 0.937285 0.180762
H55   H     H_    0.130043 0.595959 0.051715 0.195035
H56   H     H_    0.910461 0.722962 0.411658 0.127387
H57   H     H_    0.849507 0.671150 0.937285 0.180686
H58   H     H_    0.918605 0.987857 0.951222 0.173147
H59   H     H_    0.143998 0.842325 0.081616 0.155580
H60   H     H_    0.418605 0.487857 0.951222 0.173249
H61   H     H_    0.644000 0.342322 0.081615 0.155584
H62   H     H_    0.140125 0.350845 0.023488 0.154741
H63   H     H_    0.101403 0.172425 0.904720 0.130139
H64   H     H_    0.640125 0.850842 0.023488 0.154732
H65   H     H_    0.601402 0.672422 0.904720 0.130150
H66   H     H_    0.115758 0.565956 0.453882 0.159630
H67   H     H_    0.457026 0.261134 0.533536 0.107796
H68   H     H_    0.755419 0.830357 0.602029 0.157783
H69   H     H_    0.615758 0.065956 0.453882 0.159629
H70   H     H_    0.255419 0.330358 0.602030 0.157783
H71   H     H_    0.029386 0.916704 0.450349 0.104904
H72   H     H_    0.055514 0.941704 0.579545 0.110192
H73   H     H_    0.529386 0.416704 0.450349 0.104905
H74   H     H_    0.555514 0.441704 0.579545 0.110159
H75   H     H_    0.410462 0.222962 0.411658 0.127387
H76   H     H_    0.912111 0.016395 0.076910 0.188083
O1    O     O_R   0.957020 0.451640 0.669920 -0.514137
O2    O     O_R   0.168040 0.093290 0.169870 -0.533513
O3    O     O_R   0.331960 0.593290 0.830130 -0.537671
O4    O     O_R   0.668040 0.593290 0.169870 -0.533513
O5    O     O_R   0.945600 0.250580 0.824860 -0.517719
O6    O     O_R   0.054400 0.250580 0.175140 -0.520290
O7    O     O_R   0.445600 0.750580 0.824860 -0.517710
O8    O     O_R   0.554400 0.750580 0.175140 -0.520286
O9    O     O_3   0.834640 0.334650 0.749500 -0.309511
O10   O     O_3   0.165360 0.334650 0.250500 -0.281444
O11   O     O_3   0.334640 0.834650 0.749500 -0.309547
O12   O     O_R   0.042980 0.451640 0.330080 -0.512224
O13   O     O_3   0.665360 0.834650 0.250500 -0.281444
O14   O     O_R   0.821450 0.543440 0.674610 -0.502777
O15   O     O_R   0.178550 0.543440 0.325390 -0.499275
O16   O     O_R   0.321450 0.043440 0.674610 -0.502790
O17   O     O_R   0.678550 0.043440 0.325390 -0.499275
O18   O     O_R   0.715320 0.458650 0.668100 -0.525480
O19   O     O_R   0.284680 0.458650 0.331900 -0.541323
O20   O     O_R   0.215320 0.958650 0.668100 -0.525450
O21   O     O_R   0.784680 0.958650 0.331900 -0.541323
O22   O     O_R   0.737170 0.209590 0.674530 -0.485693
O23   O     O_R   0.457020 0.951640 0.669920 -0.514190
O24   O     O_R   0.262830 0.209590 0.325470 -0.505605
O25   O     O_R   0.237170 0.709590 0.674530 -0.485620
O26   O     O_R   0.762830 0.709590 0.325470 -0.505605
O27   O     O_R   0.832710 0.092740 0.669580 -0.516622
O28   O     O_R   0.167290 0.092740 0.330420 -0.511364
O29   O     O_R   0.332710 0.592740 0.669580 -0.516632
O30   O     O_R   0.667290 0.592740 0.330420 -0.511364
O31   O     O_R   0.946290 0.250060 0.676040 -0.516736
O32   O     O_R   0.053710 0.250060 0.323960 -0.524903
O33   O     O_R   0.446290 0.750060 0.676040 -0.516735
O34   O     O_R   0.542980 0.951640 0.330080 -0.512224
O35   O     O_R   0.553710 0.750060 0.323960 -0.524903
O36   O     O_R   0.956270 0.452200 0.830470 -0.425126
O37   O     O_R   0.043730 0.452200 0.169530 -0.458414
O38   O     O_R   0.456270 0.952200 0.830470 -0.425136
O39   O     O_R   0.543730 0.952200 0.169530 -0.458419
O40   O     O_R   0.820760 0.543950 0.823440 -0.520994
O41   O     O_R   0.179240 0.543950 0.176560 -0.510257
O42   O     O_R   0.320760 0.043950 0.823440 -0.520976
O43   O     O_R   0.679240 0.043950 0.176560 -0.510256
O44   O     O_R   0.714570 0.459210 0.828640 -0.488621
O45   O     O_R   0.736470 0.210100 0.823360 -0.427819
O46   O     O_R   0.285430 0.459210 0.171360 -0.468706
O47   O     O_R   0.214570 0.959210 0.828640 -0.488580
O48   O     O_R   0.785430 0.959210 0.171360 -0.468705
O49   O     O_2   0.615846 0.018026 0.832370 -0.306511
O50   O     O_2   0.545551 0.065274 0.938414 -0.256930
O51   O     O_3   0.595730 0.241262 0.861508 -0.531821
O52   O     O_2   0.402336 0.103563 0.154520 -0.323672
O53   O     O_2   0.451215 0.168502 0.038959 -0.248235
O54   O     O_3   0.380273 0.321956 0.112434 -0.512494
O55   O     O_2   0.115832 0.518033 0.832369 -0.306074
O56   O     O_R   0.263530 0.210100 0.176640 -0.422532
O57   O     O_2   0.045555 0.565273 0.938426 -0.257328
O58   O     O_3   0.095730 0.741263 0.861508 -0.531812
O59   O     O_2   0.902336 0.603562 0.154521 -0.323657
O60   O     O_2   0.951215 0.668502 0.038959 -0.248349
O61   O     O_3   0.880273 0.821956 0.112434 -0.512499
O62   O     O_R   0.236470 0.710100 0.823360 -0.427671
O63   O     O_R   0.763530 0.710100 0.176640 -0.422532
O64   O     O_R   0.831960 0.093290 0.830130 -0.537669
S1    S     S_3+6 0.608747 0.101006 0.895466 -0.012096
S2    S     S_3+6 0.389163 0.177871 0.087805 -0.004265
S3    S     S_3+6 0.108745 0.601007 0.895468 -0.012104
S4    S     S_3+6 0.889162 0.677871 0.087805 -0.004298

loop_
_geom_bond_atom_site_label_1
_geom_bond_atom_site_label_2
_ccdc_geom_bond_type
C41   H30   S    
C58   H42   S    
C51   C123  S    
C34   C42   S    
Cr2   O32   S    
C76   O30   A    
C77   H46   S    
C60   H71   S    
C90   C107  A    
C59   C66   A    
C92   C109  S    
C121  O31   A    
Cr7   O17   S    
C29   C33   A    
C125  O35   A    
C53   C68   A    
C42   H36   S    
C5    C126  A    
C61   H72   S    
C7    C128  A    
C97   C115  S    
C18   C118  S    
C57   H41   S    
C93   C110  S    
C74   O24   A    
Cr4   O8    S    
O55   S3    D    
Cr8   O9    S    
Cr9   O19   S    
C80   H48   S    
Cr4   O30   S    
Cr2   O28   S    
C55   C65   A    
C9    C131  S    
C22   O37   A    
H50   O54   S    
O58   S3    S    
C27   C31   A    
C48   C74   S    
Cr12  O9    S    
C28   C32   A    
C9    H63   S    
C124  O33   A    
Cr9   O10   S    
C108  C113  S    
C50   C76   S    
C1    C29   S    
C20   O4    A    
C98   C120  A    
C20   C120  S    
C4    C127  A    
C70   C79   A    
C3    C129  A    
C59   C63   A    
C46   H35   S    
C56   O20   A    
Cr5   O10   S    
C6    H16   S    
C57   C61   A    
C6    C7    A    
C73   O27   A    
Cr5   O37   S    
Cr3   O3    S    
Cr11  O63   S    
C33   C38   A    
C37   C44   S    
C130  C131  A    
C14   C88   S    
C8    H18   S    
Cr10  O62   S    
C21   O36   A    
C77   C82   A    
Cr1   O14   S    
C69   C70   A    
C127  C131  A    
C3    C11   S    
C11   H21   S    
C94   C98   A    
C31   C36   A    
C103  C107  A    
C114  H10   S    
Cr6   O23   S    
C102  S3    S    
Cr6   O38   S    
Cr7   O43   S    
C69   C77   A    
C86   C104  A    
C84   H67   S    
C95   C117  A    
C7    H17   S    
Cr3   O7    S    
C101  C118  A    
C12   C90   S    
C25   C128  S    
C92   C96   A    
C12   O44   A    
C35   C42   S    
C10   H64   S    
C81   H47   S    
C17   O64   A    
Cr1   O40   S    
C73   O22   A    
Cr2   O2    S    
C87   C105  A    
Cr7   O13   S    
C55   H40   S    
C49   C75   S    
C59   H43   S    
O54   S2    S    
C20   O63   A    
C24   H26   S    
O61   S4    S    
C13   H25   S    
C41   H68   S    
Cr5   O12   S    
C18   O56   A    
Cr9   O24   S    
C79   H44   S    
C30   C34   A    
C62   H73   S    
Cr7   O34   S    
C43   H37   S    
C97   C119  A    
C45   O19   A    
C99   C117  A    
C74   O28   A    
Cr4   O4    S    
Cr11  O21   S    
C32   C37   A    
C53   C125  S    
C109  C114  S    
Cr12  O31   S    
C26   C30   A    
C82   H45   S    
H49   O51   S    
Cr12  O5    S    
Cr5   O15   S    
C2    H24   S    
C112  C116  S    
C54   C66   A    
Cr11  O26   S    
Cr9   O46   S    
C109  H6    S    
C123  O32   A    
C94   C112  S    
C50   C111  A    
C36   C48   A    
Cr2   O10   S    
C125  O34   A    
C10   C132  S    
C38   C46   S    
C10   C11   S    
C102  C119  A    
C91   C95   A    
C25   O39   A    
C40   C44   S    
Cr8   O44   S    
Cr12  O27   S    
C56   O16   A    
C47   C78   A    
C83   H56   S    
C55   C60   A    
C81   C85   A    
Cr5   O41   S    
C58   C62   A    
C93   C97   A    
C35   H27   S    
Cr4   O35   S    
Cr6   O16   S    
C103  C120  A    
C80   C84   A    
C96   C114  S    
Cr10  O20   S    
O57   S3    D    
C100  H23   S    
C107  H57   S    
C15   O47   A    
C86   C91   A    
C126  C130  A    
C40   H66   S    
C23   C129  S    
Cr11  O48   S    
C51   C65   A    
C9    H19   S    
C24   C29   A    
C52   C69   A    
C16   O43   A    
C54   C71   A    
Cr6   O42   S    
C23   O38   A    
Cr7   O39   S    
Cr1   O1    S    
C112  H8    S    
C13   C28   A    
C2    C27   A    
C72   C81   A    
C17   C117  S    
C99   C104  A    
C19   C119  S    
Cr3   O11   S    
C87   C92   A    
C16   C86   S    
O53   S2    D    
Cr3   O29   S    
C90   C94   A    
C3    C132  A    
C19   O3    A    
C84   C85   A    
C47   C73   S    
C110  H7    S    
C52   C64   A    
C27   C56   S    
C89   H12   S    
C67   O17   A    
C60   C61   A    
C2    C89   A    
O60   S4    D    
C62   C63   A    
C37   C49   A    
C43   H32   S    
C1    O14   A    
Cr10  O25   S    
C115  H60   S    
C113  H58   S    
C124  O23   A    
C8    H62   S    
C35   H69   S    
C22   O6    A    
C58   C68   A    
C105  H54   S    
H52   O61   S    
C8    C130  S    
O50   S1    D    
C44   H38   S    
O49   S1    D    
C54   C124  S    
C91   C108  S    
C45   O15   A    
C33   C41   S    
C64   C65   A    
C79   C83   A    
Cr10  O11   S    
C4    C5    A    
C101  S2    S    
C18   O2    A    
Cr1   O9    S    
C103  S4    S    
C108  H76   S    
C71   C72   A    
C82   C83   A    
C121  O1    A    
C36   C43   S    
C34   C47   A    
C26   C122  A    
C75   O29   A    
C53   C72   A    
C110  C115  S    
C66   C68   A    
C122  H22   S    
C104  H53   S    
C109  H2    S    
C67   O21   A    
C39   H28   S    
C30   C35   S    
C26   C67   S    
Cr2   O6    S    
C63   H74   S    
C96   C118  A    
Cr6   O11   S    
C42   H31   S    
C40   H29   S    
C22   C126  S    
O52   S2    D    
C52   C121  S    
C17   O45   A    
C78   H1    S    
C4    H14   S    
C8    C9    S    
C5    H15   S    
Cr12  O64   S    
C111  H34   S    
C41   C46   S    
C51   C70   A    
C21   C127  S    
C116  H61   S    
C75   O25   A    
H51   O58   S    
C24   C111  A    
C6    C129  A    
C128  C132  A    
Cr1   O36   S    
C71   C80   A    
O51   S1    S    
C99   S1    S    
C101  C105  A    
C28   C45   S    
C123  O12   A    
Cr10  O47   S    
C39   C43   S    
C112  H4    S    
C46   H39   S    
C14   O41   A    
C88   C106  A    
C98   C116  S    
Cr4   O13   S    
Cr8   O18   S    
Cr3   O33   S    
C16   O48   A    
C48   C89   A    
C110  H3    S    
C57   C64   A    
C15   C87   S    
C19   O62   A    
C88   C93   A    
C10   H20   S    
C39   H70   S    
C115  H11   S    
C114  H59   S    
C76   O26   A    
C113  H9    S    
C44   H33   S    
C23   O7    A    
C38   C50   A    
C1    O18   A    
C21   O5    A    
C25   O8    A    
O59   S4    D    
Cr11  O13   S    
C13   C100  A    
C85   H75   S    
C116  H13   S    
C15   O42   A    
C11   H65   S    
C49   C100  A    
C95   C113  S    
C31   C39   S    
C102  C106  A    
Cr8   O22   S    
C32   C40   S    
C78   C122  A    
C108  H5    S    
Cr8   O45   S    
C12   O40   A    
Cr9   O56   S    
C14   O46   A    
C106  H55   S    
