data_mof_unit_60121.cif
_audit_creation_date              2013-03-05T16:53:33-0500
_audit_creation_method            fapswitch 2.2
_symmetry_space_group_name_H-M    P1
_symmetry_Int_Tables_number       1
_space_group_crystal_system       triclinic
_cell_length_a                    17.587749
_cell_length_b                    16.779822
_cell_length_c                    10.75589
_cell_angle_alpha                 90.000653
_cell_angle_beta                  90.648527
_cell_angle_gamma                 90.037451
_cell_volume                      3174.06668448

loop_
_atom_site_label
_atom_site_type_symbol
_atom_site_description
_atom_site_fract_x
_atom_site_fract_y
_atom_site_fract_z
_atom_type_partial_charge
O1    O     O_R   0.389110 0.566570 0.499990 -0.534929
O2    O     O_R   0.610890 0.566570 0.500010 -0.534216
O3    O     O_R   0.389090 0.433480 0.499980 -0.638753
O4    O     O_R   0.610910 0.433480 0.500020 -0.638431
C1    C     C_R   0.353299 0.500060 0.501444 0.923015
C2    C     C_R   0.646660 0.500121 0.497508 0.922823
O5    O     O_R   0.500000 0.566530 0.319070 -0.567971
O6    O     O_R   0.500000 0.566530 0.680930 -0.569116
O7    O     O_R   0.499970 0.433440 0.319070 -0.635278
O8    O     O_R   0.500030 0.433440 0.680930 -0.634470
C3    C     C_R   0.498196 0.499915 0.262166 0.954542
C4    C     C_R   0.501820 0.499919 0.737834 0.954938
Zn1   Zn    Zn3+2 0.500000 0.588860 0.500000 1.112694
Zn2   Zn    Zn3+2 0.500000 0.411140 0.500000 0.961925
C5    C     C_2   0.498010 0.432673 0.933071 -0.152375
C6    C     C_2   0.502155 0.432684 0.066937 -0.152645
C7    C     C_2   0.509058 0.499817 0.869254 -0.286349
C8    C     C_2   0.491004 0.499799 0.130744 -0.285393
H1    H     H_    0.486404 0.376245 0.886980 0.190381
H2    H     H_    0.513826 0.376291 0.113039 0.190364
C9    C     C_R   0.848507 0.557501 0.429683 -0.173169
C10   C     C_R   0.149208 0.558794 0.544622 -0.172440
H3    H     H_    0.880370 0.604823 0.385454 0.184374
H4    H     H_    0.115746 0.606320 0.584895 0.184085
C11   C     C_R   0.769752 0.561602 0.433593 0.398527
C12   C     C_R   0.228012 0.562114 0.551134 0.400804
C13   C     C_R   0.729065 0.499639 0.492015 -0.130057
C14   C     C_R   0.270786 0.499494 0.499026 -0.130375
C15   C     C_R   0.767998 0.434370 0.543788 -0.227840
C16   C     C_R   0.233789 0.434451 0.442641 -0.227816
H5    H     H_    0.737676 0.386331 0.588895 0.182204
H6    H     H_    0.265715 0.386006 0.401843 0.182325
C17   C     C_R   0.846552 0.430963 0.539152 -0.130488
C18   C     C_R   0.155166 0.431808 0.436870 -0.130901
C19   C     C_R   0.886173 0.492564 0.482362 0.067944
C20   C     C_R   0.113520 0.494016 0.487659 0.068383
C21   C     C_1   0.966140 0.490811 0.481748 -0.004535
C22   C     C_1   0.033583 0.491300 0.483293 -0.004502
C23   C     C_R   0.451261 0.833029 0.421266 -0.244561
C24   C     C_R   0.548750 0.833094 0.578723 -0.244894
C25   C     C_R   0.451883 0.748924 0.422218 0.493250
C26   C     C_R   0.548129 0.748987 0.577761 0.492320
N1    N     N_R   0.500000 0.707230 0.500000 -0.156946
C27   C     C_R   0.500003 0.876141 0.500000 -0.009812
C28   C     C_1   0.500002 0.963761 0.499999 0.104593
C29   C     C_1   0.500000 0.036731 0.499995 0.167179
C30   C     C_R   0.451604 0.168058 0.419426 0.292209
C31   C     C_R   0.548392 0.168122 0.580567 0.291991
C32   C     C_R   0.452660 0.252119 0.421217 -0.061773
C33   C     C_R   0.547338 0.252181 0.578782 -0.061629
N2    N     N_R   0.500000 0.292770 0.500000 -0.138407
C34   C     C_R   0.499999 0.124614 0.499995 -0.065737
H7    H     H_    0.415424 0.285171 0.359272 0.170371
H8    H     H_    0.584573 0.285282 0.640731 0.171059
H9    H     H_    0.525381 0.555791 0.912239 0.182796
H10   H     H_    0.474627 0.555730 0.087751 0.182577
Cl1   Cl    Cl    0.725485 0.643219 0.358956 -0.534769
Cl2   Cl    Cl    0.269514 0.643515 0.630551 -0.533635
H11   H     H_    0.876349 0.380812 0.580435 0.163860
H12   H     H_    0.126934 0.381523 0.393005 0.164093
H13   H     H_    0.412771 0.864450 0.359062 0.213723
H14   H     H_    0.587249 0.864566 0.640916 0.213730
Cl3   Cl    Cl    0.389126 0.699474 0.320458 -0.523273
Cl4   Cl    Cl    0.610924 0.699609 0.679432 -0.523482
Cl5   Cl    Cl    0.389183 0.119282 0.315455 -0.561160
Cl6   Cl    Cl    0.610812 0.119430 0.684538 -0.560951

loop_
_geom_bond_atom_site_label_1
_geom_bond_atom_site_label_2
_geom_bond_distance
_ccdc_geom_bond_type
C4    C7    1.417825 S    
C30   C34   1.411017 A    
C16   H6    1.083886 S    
O7    Zn2   1.981711 S    
C26   Cl4   1.753858 S    
C3    C8    1.417785 S    
C21   C22   1.186131 T    
C9    C19   1.392713 A    
C8    H10   1.083949 S    
C13   C15   1.403868 A    
C1    C14   1.451196 S    
C10   C20   1.393289 A    
C7    H9    1.083952 S    
C12   C14   1.412344 A    
C2    C13   1.451215 S    
O1    C1    1.281303 A    
O5    Zn1   1.981803 S    
O6    C4    1.274581 A    
C31   Cl6   1.759762 S    
O3    C1    1.282879 A    
Zn1   N1    1.986228 S    
C31   C33   1.410760 A    
C33   N2    1.363760 A    
C24   H14   1.083557 S    
C17   H11   1.084104 S    
C6    C8    1.334563 D    
O2    C2    1.281026 A    
C28   C29   1.224432 T    
C18   H12   1.084085 S    
C25   N1    1.374888 A    
C33   H8    1.082114 S    
O3    Zn2   1.986588 S    
O8    C4    1.272577 A    
C15   H5    1.083904 S    
C32   H7    1.082123 S    
C5    C6    1.440866 S    
C14   C16   1.404455 A    
C6    H2    1.086927 S    
C17   C19   1.391354 A    
C30   Cl5   1.759757 S    
O5    C3    1.274577 A    
C31   C34   1.411004 A    
C18   C20   1.390882 A    
O7    C3    1.272571 A    
C9    H3    1.084593 S    
O4    Zn2   1.986105 S    
C23   H13   1.083558 S    
C10   H4    1.084597 S    
O4    C2    1.282953 A    
C11   C13   1.413221 A    
C26   N1    1.374849 A    
C25   Cl3   1.753906 S    
C23   C27   1.399324 A    
C20   C22   1.406864 S    
C11   Cl1   1.764505 S    
O6    Zn1   1.981811 S    
C29   C34   1.474658 S    
C24   C27   1.399340 A    
O1    Zn1   1.985606 S    
C27   C28   1.470248 S    
C23   C25   1.411351 A    
C30   C32   1.410770 A    
C10   C12   1.388035 A    
C5    C7    1.334557 D    
O2    Zn1   1.986085 S    
C16   C18   1.384170 A    
C9    C11   1.387987 A    
C19   C21   1.406860 S    
C5    H1    1.086924 S    
C12   Cl2   1.764277 S    
Zn2   N2    1.986228 S    
C15   C17   1.384262 A    
O8    Zn2   1.981701 S    
C24   C26   1.411368 A    
C32   N2    1.363762 A    
