data_mof_unit_53715.cif
_audit_creation_date              2012-12-10T21:07:47-0500
_audit_creation_method            fapswitch 2.2
_symmetry_space_group_name_H-M    P1
_symmetry_Int_Tables_number       1
_space_group_crystal_system       triclinic
_cell_length_a                    8.58613
_cell_length_b                    17.519116
_cell_length_c                    16.88541
_cell_angle_alpha                 90.256418
_cell_angle_beta                  98.738154
_cell_angle_gamma                 91.554158
_cell_volume                      2509.4275786

loop_
_atom_site_label
_atom_site_type_symbol
_atom_type_description
_atom_site_fract_x
_atom_site_fract_y
_atom_site_fract_z
_atom_type_partial_charge
C1    C     C_R   0.497555 0.353161 0.499707 0.889649
C2    C     C_R   0.391259 0.454486 0.243092 0.145595
C3    C     C_R   0.601076 0.543563 0.843025 0.036202
C4    C     C_R   0.390875 0.450747 0.158940 0.034778
C5    C     C_R   0.492543 0.495648 0.875011 -0.003358
C6    C     C_R   0.497889 0.495330 0.123076 0.014084
C7    C     C_1   0.491387 0.493829 0.962459 -0.046178
C8    C     C_1   0.493879 0.493955 0.035224 0.001969
C9    C     C_R   0.200891 0.498972 0.479104 0.985768
C10   C     C_R   0.799136 0.500007 0.520932 0.976320
C11   C     C_2   0.035867 0.495847 0.467980 -0.394772
C12   C     C_R   0.497596 0.646780 0.499920 0.883557
C13   C     C_2   0.964254 0.501127 0.532242 -0.385837
C14   C     C_R   0.444769 0.846940 0.568905 0.102132
C15   C     C_R   0.437482 0.151663 0.422643 0.126060
C16   C     C_R   0.472251 0.768876 0.570194 -0.236097
C17   C     C_R   0.464780 0.230525 0.425114 -0.249421
C18   C     C_R   0.478467 0.729061 0.498647 -0.088229
C19   C     C_R   0.479731 0.270332 0.498195 -0.110998
C20   C     C_R   0.456448 0.767322 0.425240 -0.240333
C21   C     C_R   0.468123 0.231157 0.569318 -0.178319
C22   C     C_R   0.428790 0.845320 0.422842 0.107714
C23   C     C_1   0.412721 0.964900 0.493888 -0.004602
C24   C     C_R   0.441554 0.152736 0.567943 0.083264
C25   C     C_R   0.423775 0.884542 0.494980 0.107401
C26   C     C_R   0.426193 0.113255 0.494417 0.082544
C27   C     C_1   0.413462 0.032630 0.493625 -0.039113
C28   C     C_R   0.387849 0.449585 0.821096 -0.033037
C29   C     C_R   0.604633 0.543364 0.173014 0.009622
C30   C     C_R   0.393985 0.452559 0.737338 0.216927
C31   C     C_R   0.603451 0.545531 0.256927 0.197082
C32   C     C_R   0.604028 0.544658 0.759555 0.179674
H1    H     H_    0.973994 0.488511 0.407242 0.165887
H2    H     H_    0.479204 0.261277 0.626160 0.170821
H3    H     H_    0.423655 0.848660 0.300840 0.180985
H4    H     H_    0.292294 0.903071 0.336786 0.181709
H5    H     H_    0.520716 0.074014 0.650710 0.203642
H6    H     H_    0.323048 0.085101 0.636676 0.188693
H7    H     H_    0.335720 0.361393 0.890335 0.204628
H8    H     H_    0.203136 0.431872 0.880829 0.204034
H9    H     H_    0.652451 0.627710 0.097941 0.185527
H10   H     H_    0.785058 0.557205 0.109432 0.182404
H11   H     H_    0.173789 0.416902 0.690026 0.178015
H12   H     H_    0.026426 0.507650 0.593093 0.173329
H13   H     H_    0.309051 0.347849 0.699838 0.178166
H14   H     H_    0.647310 0.638328 0.330716 0.207931
H15   H     H_    0.791657 0.571388 0.342546 0.209723
H16   H     H_    0.802136 0.558283 0.708758 0.206736
H17   H     H_    0.669330 0.629729 0.688728 0.209775
H18   H     H_    0.186372 0.450937 0.289171 0.210576
H19   H     H_    0.312096 0.378310 0.320611 0.225119
H20   H     H_    0.780138 0.556600 0.935516 0.184243
H21   H     H_    0.648881 0.627761 0.926447 0.184723
H22   H     H_    0.291069 0.346497 0.129435 0.195593
H23   H     H_    0.325977 0.906718 0.641543 0.179196
H24   H     H_    0.164780 0.419668 0.116021 0.195639
H25   H     H_    0.466229 0.853005 0.691643 0.183921
H26   H     H_    0.307799 0.089013 0.334655 0.181800
H27   H     H_    0.442585 0.146602 0.301486 0.177148
H28   H     H_    0.487994 0.739335 0.626953 0.154922
H29   H     H_    0.473215 0.260669 0.369993 0.156050
H30   H     H_    0.459311 0.736581 0.369717 0.155010
N1    N     N_R   0.500040 0.500030 0.707230 -0.135361
N2    N     N_3   0.709839 0.599420 0.302149 -0.435306
N3    N     N_3   0.721853 0.592367 0.731785 -0.436661
N4    N     N_3   0.267578 0.412805 0.273203 -0.482441
N5    N     N_3   0.711785 0.591338 0.894531 -0.436899
N6    N     N_3   0.277808 0.402621 0.109249 -0.454779
N7    N     N_R   0.499960 0.499970 0.292770 -0.137608
N8    N     N_3   0.441259 0.888711 0.642134 -0.465801
N9    N     N_3   0.423987 0.110055 0.348146 -0.442528
N10   N     N_3   0.408874 0.885396 0.347943 -0.444317
N11   N     N_3   0.432086 0.114229 0.641879 -0.464555
N12   N     N_3   0.274879 0.399239 0.849900 -0.473686
N13   N     N_3   0.715297 0.591659 0.139663 -0.437331
N14   N     N_3   0.289535 0.404624 0.683307 -0.385661
O1    O     O_R   0.500000 0.389130 0.566570 -0.604330
O2    O     O_R   0.500000 0.610870 0.433430 -0.634297
O3    O     O_R   0.499990 0.389100 0.433480 -0.636465
O4    O     O_R   0.500010 0.610900 0.566520 -0.637056
O5    O     O_R   0.271750 0.500010 0.550980 -0.591857
O6    O     O_R   0.728250 0.499990 0.449020 -0.623439
O7    O     O_R   0.271740 0.499980 0.417890 -0.642398
O8    O     O_R   0.728260 0.500020 0.582110 -0.640998
Zn1   Zn    Zn3+2 0.500010 0.500020 0.588860 0.939939
Zn2   Zn    Zn3+2 0.499990 0.499980 0.411140 0.917840

loop_
_geom_bond_atom_site_label_1
_geom_bond_atom_site_label_2
_ccdc_geom_bond_type
C1    O1    A    
C28   N12   S    
C7    C8    T    
H27   N9    S    
C26   C27   S    
H17   N3    S    
H13   N14   S    
C19   C21   A    
C24   C26   A    
C24   N11   S    
H22   N6    S    
C30   N14   S    
C16   H28   S    
H7    N12   S    
C17   H29   S    
C22   C25   A    
C12   O2    A    
C23   C27   T    
H25   N8    S    
C2    N7    A    
O2    Zn2   S    
O1    Zn1   S    
C30   N1    A    
N1    Zn1   S    
C14   N8    S    
H21   N5    S    
C22   N10   S    
C1    C19   S    
C11   H1    S    
O8    Zn1   S    
C4    C6    A    
H15   N2    S    
C5    C7    S    
C15   C26   A    
C6    C8    S    
C21   H2    S    
C3    C5    A    
O6    Zn2   S    
H16   N3    S    
C10   O6    A    
H14   N2    S    
H19   N4    S    
C2    C4    A    
O4    Zn1   S    
H9    N13   S    
C5    C28   A    
C9    C11   S    
O7    Zn2   S    
H10   N13   S    
C13   H12   S    
H18   N4    S    
H20   N5    S    
C9    O7    A    
C20   C22   A    
H3    N10   S    
C1    O3    A    
C14   C16   A    
C4    N6    S    
H11   N14   S    
C15   C17   A    
H5    N11   S    
C31   N2    S    
C3    N5    S    
C32   N1    A    
C2    N4    S    
C10   C13   S    
C29   N13   S    
C15   N9    S    
C28   C30   A    
C29   C31   A    
H24   N6    S    
C11   C13   D    
C12   O4    A    
C10   O8    A    
C17   C19   A    
H8    N12   S    
C18   C20   A    
C23   C25   S    
C14   C25   A    
C20   H30   S    
C3    C32   A    
H26   N9    S    
H23   N8    S    
C31   N7    A    
C6    C29   A    
C16   C18   A    
C21   C24   A    
C12   C18   S    
O3    Zn2   S    
O5    Zn1   S    
N7    Zn2   S    
H4    N10   S    
C9    O5    A    
C32   N3    S    
H6    N11   S    
