data_mof_unit_59665.cif
_audit_creation_date              2013-03-05T16:07:48-0500
_audit_creation_method            fapswitch 2.2
_symmetry_space_group_name_H-M    P1
_symmetry_Int_Tables_number       1
_space_group_crystal_system       triclinic
_cell_length_a                    8.845378
_cell_length_b                    15.857271
_cell_length_c                    18.866032
_cell_angle_alpha                 102.735613
_cell_angle_beta                  92.621611
_cell_angle_gamma                 100.281029
_cell_volume                      2529.67165451

loop_
_atom_site_label
_atom_site_type_symbol
_atom_site_description
_atom_site_fract_x
_atom_site_fract_y
_atom_site_fract_z
_atom_type_partial_charge
P1    P     P_3+3 0.039440 0.410950 0.333260 0.562180
O1    O     O_2   0.871970 0.437290 0.322980 -0.390686
O2    O     O_3   0.121420 0.444460 0.412460 -0.351557
O3    O     O_3   0.661430 0.607560 0.372520 -0.368758
O4    O     O_2   0.743142 0.535284 0.246788 -0.450840
O5    O     O_3   0.054252 0.298471 0.300839 -0.605551
O6    O     O_3   0.703665 0.700072 0.266036 -0.583708
H1    H     H_    0.696727 0.765840 0.376016 0.008884
C1    C     C_3   0.724991 0.859873 0.305636 -0.735058
H2    H     H_    0.738465 0.853336 0.247520 0.257493
P2    P     P_3+3 0.676740 0.714970 0.563520 0.523381
P3    P     P_3+3 0.149180 0.771860 0.421665 0.526562
O7    O     O_2   0.852280 0.726960 0.542370 -0.314821
O8    O     O_3   0.083990 0.657360 0.410240 -0.387960
O9    O     O_2   0.023278 0.809427 0.464107 -0.373211
O10   O     O_3   0.742058 0.734003 0.657285 -0.554852
O11   O     O_3   0.120195 0.800534 0.336315 -0.484557
C2    C     C_3   0.073913 0.725180 0.278222 0.411471
H3    H     H_    0.967208 0.686619 0.292548 0.101908
H4    H     H_    0.156201 0.680059 0.273127 0.130794
C3    C     C_3   0.043743 0.746729 0.201556 -0.373521
C4    C     C_3   0.225924 0.743076 0.634298 0.087998
H5    H     H_    0.321408 0.717008 0.606887 0.020530
H6    H     H_    0.123621 0.731340 0.594747 0.131771
C5    C     C_3   0.277033 0.842273 0.668845 0.228635
H7    H     H_    0.400932 0.855034 0.685424 0.059495
H8    H     H_    0.260511 0.879431 0.626796 0.075914
Ba1   Ba    Ba6+2 0.853510 0.540900 0.466480 1.677026
C6    C     C_3   0.916465 0.237232 0.280350 0.842448
H9    H     H_    0.828964 0.264693 0.253392 0.028113
C7    C     C_3   0.946543 0.149657 0.232222 -0.004025
H10   H     H_    0.999147 0.111249 0.265672 0.138394
H11   H     H_    0.031711 0.161398 0.193233 0.162355
C8    C     C_3   0.653871 0.764958 0.714950 0.657850
H12   H     H_    0.529848 0.741848 0.697509 -0.067721
C9    C     C_3   0.696226 0.867421 0.740015 0.047423
H13   H     H_    0.661547 0.894594 0.693937 0.095435
H14   H     H_    0.821106 0.888621 0.750147 0.216702
P4    P     P_3+3 0.150270 0.589130 0.666750 0.511963
O12   O     O_2   0.317740 0.562750 0.677070 -0.336109
O13   O     O_3   0.068290 0.555610 0.587550 -0.407261
O14   O     O_3   0.528280 0.392520 0.627490 -0.431397
O15   O     O_3   0.189604 0.702999 0.690962 -0.537142
P5    P     P_3+3 0.041809 0.229370 0.587264 0.616784
O16   O     O_3   0.609300 0.386850 0.459730 -0.423855
O17   O     O_3   0.105720 0.342720 0.589770 -0.339874
O18   O     O_2   0.156363 0.186151 0.538522 -0.307973
O19   O     O_3   0.088608 0.201332 0.671900 -0.601497
Ba2   Ba    Ba6+2 0.336320 0.459170 0.533530 1.734310
P6    P     P_3+3 0.628511 0.593349 0.279546 0.468322
C10   C     C_3   0.660501 0.768514 0.319491 0.907115
H15   H     H_    0.647532 0.907720 0.317040 0.266760
O20   O     O_3   0.580410 0.613230 0.540280 -0.382807
C11   C     C_3   0.463759 0.317451 0.313755 0.402565
H16   H     H_    0.354347 0.336000 0.332314 0.103283
H17   H     H_    0.560388 0.374870 0.331434 0.105285
C12   C     C_3   0.450934 0.292843 0.230908 -0.811176
H18   H     H_    0.362675 0.231882 0.210187 0.291843
H19   H     H_    0.418394 0.347264 0.209134 0.206733
H20   H     H_    0.563764 0.281715 0.211427 0.258080
P7    P     P_3+3 0.508269 0.272560 0.435638 0.604479
O21   O     O_2   0.337420 0.273080 0.457680 -0.302631
O22   O     O_3   0.492400 0.244957 0.340056 -0.431855
C13   C     C_3   0.016426 0.229856 0.737965 1.134093
C14   C     C_3   0.998657 0.157429 0.781939 -0.659622
H21   H     H_    0.108112 0.152603 0.809753 0.222573
H22   H     H_    0.924152 0.171652 0.827134 0.268347
H23   H     H_    0.947661 0.092045 0.747820 0.286851
P8    P     P_3+3 0.567353 0.426643 0.723413 0.583523
C15   C     C_3   0.453036 0.261686 0.700885 0.307730
H24   H     H_    0.530073 0.250005 0.657312 0.076528
O23   O     O_2   0.438629 0.474665 0.753933 -0.289608
O24   O     O_3   0.527444 0.331769 0.756867 -0.465605
H25   H     H_    0.351249 0.279647 0.675666 0.110355
C16   C     C_3   0.396407 0.177849 0.728819 0.728485
H26   H     H_    0.282257 0.181080 0.743219 -0.007971
C17   C     C_R   0.990366 0.485857 0.052757 0.016605
C18   C     C_R   0.894903 0.442107 0.096552 -0.011483
C19   C     C_R   0.736748 0.413364 0.073569 -0.126105
C20   C     C_R   0.675165 0.428110 0.008255 -0.195442
C21   C     C_R   0.771717 0.466089 0.961610 0.105013
C22   C     C_R   0.929538 0.496432 0.984522 0.054586
C23   C     C_R   0.714862 0.469074 0.890994 -0.111418
C24   C     C_R   0.815104 0.496559 0.840120 -0.020790
C25   C     C_R   0.972577 0.532323 0.864685 0.035269
C26   C     C_R   0.028303 0.532388 0.937495 0.022144
C27   C     C_R   0.765249 0.485813 0.764966 0.377935
C28   C     C_R   0.871997 0.511041 0.717022 -0.365269
C29   C     C_R   0.028123 0.548594 0.739093 0.249452
C30   C     C_R   0.076778 0.563833 0.816084 0.053316
C31   C     C_R   0.147808 0.515438 0.076422 0.050880
C32   C     C_R   0.205218 0.509158 0.147102 0.001815
C33   C     C_R   0.104763 0.466878 0.191724 -0.182307
C34   C     C_R   0.966145 0.413263 0.153264 0.395787
H27   H     H_    0.661355 0.378395 0.105723 0.161269
H28   H     H_    0.552843 0.405490 0.992423 0.187261
H29   H     H_    0.828290 0.508993 0.662518 0.129293
H30   H     H_    0.592949 0.445938 0.875276 0.210042
C35   C     C_R   0.226478 0.606423 0.847050 -0.053138
C36   C     C_R   0.284489 0.597593 0.915288 0.012966
C37   C     C_R   0.186117 0.560215 0.960761 0.080207
C38   C     C_R   0.245622 0.553937 0.030540 0.004213
C39   C     C_R   0.438344 0.633166 0.941410 -0.253422
C40   C     C_R   0.492969 0.638001 0.012234 0.503370
C41   C     C_R   0.401478 0.590103 0.055594 -0.118776
C42   C     C_R   0.363130 0.541478 0.170533 0.027748
C43   C     C_R   0.458492 0.579042 0.123032 -0.081935
C44   C     C_R   0.420845 0.540276 0.241955 0.273866
C45   C     C_R   0.317057 0.505134 0.288468 -0.398097
C46   C     C_R   0.158921 0.467958 0.266359 0.227433
H31   H     H_    0.515546 0.664996 0.908566 0.242417
H32   H     H_    0.576178 0.604251 0.140613 0.204479
H33   H     H_    0.361714 0.505561 0.342929 0.147367
C47   C     C_R   0.349696 0.827821 0.472330 0.300458
H34   H     H_    0.385255 0.704990 0.490864 0.180963
H35   H     H_    0.219962 0.944453 0.428265 0.187848
C48   C     C_R   0.591306 0.802523 0.526979 0.041876
C49   C     C_R   0.740151 0.230264 0.522178 -0.343667
C50   C     C_R   0.843923 0.178665 0.537410 0.234962
C51   C     C_R   0.799274 0.087714 0.513403 -0.138597
C52   C     C_R   0.644775 0.043646 0.493185 0.024759
C53   C     C_R   0.549045 0.095500 0.463779 -0.072641
C54   C     C_R   0.583995 0.950971 0.497674 -0.126547
C55   C     C_R   0.422741 0.917435 0.474890 -0.045522
C56   C     C_R   0.337791 0.970542 0.446513 -0.023772
C57   C     C_R   0.404290 0.048534 0.428005 0.497264
C58   C     C_R   0.667032 0.892727 0.529137 0.316373
C59   C     C_R   0.438112 0.773456 0.496677 -0.487796
C60   C     C_R   0.600267 0.191748 0.477451 0.270435
H36   H     H_    0.891433 0.055141 0.505207 0.211824
S1    S     S_3+6 0.177092 0.880096 0.748783 0.110529
O25   O     O_2   0.024718 0.820808 0.740338 -0.262833
O26   O     O_2   0.258422 0.875495 0.818738 -0.192931
O27   O     O_3   0.146316 0.982684 0.758459 -0.421061
H37   H     H_    0.082924 0.991445 0.800449 0.379377
S2    S     S_3+6 0.858862 0.215435 0.361257 -0.055383
O28   O     O_2   0.815521 0.298779 0.399766 -0.346127
O29   O     O_2   0.727014 0.138944 0.347779 -0.309380
O30   O     O_3   0.006312 0.195513 0.409479 -0.497718
H38   H     H_    0.985199 0.130827 0.403694 0.351515
S3    S     S_3+6 0.776751 0.078850 0.181052 0.073554
O31   O     O_2   0.648393 0.128380 0.176344 -0.213018
O32   O     O_2   0.722775 0.004382 0.216610 -0.249339
O33   O     O_3   0.819292 0.037268 0.096025 -0.422254
H39   H     H_    0.905529 0.006741 0.102542 0.339527
S4    S     S_3+6 0.711623 0.715171 0.787291 0.007670
O34   O     O_2   0.720599 0.771149 0.862759 -0.169419
O35   O     O_2   0.600457 0.631128 0.782158 -0.372036
O36   O     O_3   0.886447 0.691298 0.779241 -0.487207
H40   H     H_    0.893288 0.673382 0.726277 0.360163
C61   C     C_1   0.861825 0.908008 0.351989 0.270307
N1    N     N_1   0.967356 0.950623 0.388970 -0.000121
S5    S     S_3+6 0.629174 0.929504 0.820917 0.081864
O37   O     O_2   0.762679 0.000514 0.858424 -0.231362
O38   O     O_2   0.507240 0.972094 0.795510 -0.135578
O39   O     O_3   0.554430 0.878551 0.884001 -0.438803
H41   H     H_    0.531988 0.926139 0.923427 0.410902
S6    S     S_3+6 0.460614 0.757926 0.307230 -0.102441
O40   O     O_2   0.385366 0.691173 0.346076 -0.389954
O41   O     O_2   0.406986 0.843213 0.329695 -0.318650
O42   O     O_3   0.420123 0.724311 0.218478 -0.573730
H42   H     H_    0.471070 0.775193 0.200357 0.397515
C62   C     C_1   0.166571 0.748306 0.152616 0.251675
N2    N     N_1   0.254693 0.751703 0.109298 -0.027473
S7    S     S_3+6 0.128889 0.326254 0.799291 -0.025686
O43   O     O_2   0.287445 0.317407 0.821298 -0.253634
O44   O     O_2   0.139477 0.401545 0.763200 -0.317177
O45   O     O_3   0.050742 0.345526 0.879141 -0.512010
H43   H     H_    0.962437 0.372028 0.870581 0.364481
S8    S     S_3+6 0.829727 0.249850 0.723326 -0.067093
O46   O     O_2   0.770571 0.282172 0.795052 -0.281920
O47   O     O_2   0.830608 0.318926 0.681189 -0.447368
O48   O     O_3   0.718535 0.153585 0.681462 -0.512625
H44   H     H_    0.677243 0.160775 0.634764 0.340565
S9    S     S_3+6 0.482632 0.167208 0.814796 0.144214
O49   O     O_2   0.368164 0.107525 0.846848 -0.211846
O50   O     O_2   0.626175 0.129866 0.805287 -0.138745
O51   O     O_3   0.526832 0.264367 0.876038 -0.470303
H45   H     H_    0.576352 0.251104 0.919398 0.370178
S10   S     S_3+6 0.364435 0.081694 0.655912 -0.014232
O52   O     O_2   0.198166 0.037706 0.646221 -0.161229
O53   O     O_2   0.399282 0.108316 0.586470 -0.441041
O54   O     O_3   0.475318 0.011536 0.671499 -0.491739
H46   H     H_    0.543749 0.006201 0.631871 0.368288
S11   S     S_3+6 0.989982 0.304987 0.115054 -0.033079
O55   O     O_2   0.125901 0.285271 0.154196 -0.324546
O56   O     O_2   0.845424 0.241201 0.118654 -0.290669
O57   O     O_3   0.025308 0.294024 0.026778 -0.431299
H47   H     H_    0.922703 0.276438 0.998749 0.378455
C63   C     C_1   0.308288 0.677349 0.821000 0.374378
N3    N     N_1   0.378711 0.736124 0.803330 0.049090
S12   S     S_3+6 0.654848 0.723736 0.044056 -0.039119
O58   O     O_2   0.676647 0.751239 0.125402 -0.352730
O59   O     O_2   0.796431 0.695251 0.013430 -0.303732
O60   O     O_3   0.626496 0.811769 0.013049 -0.449118
H48   H     H_    0.726276 0.853882 0.025062 0.408013
S13   S     S_3+6 0.851012 0.935155 0.580730 -0.030540
O61   O     O_2   0.979748 0.949663 0.533371 -0.293752
O62   O     O_2   0.844007 0.020882 0.630949 -0.272923
O63   O     O_3   0.906417 0.873444 0.632965 -0.484029
H49   H     H_    0.005118 0.860892 0.615657 0.394297
C64   C     C_1   0.793112 0.323936 0.542341 0.409685
N4    N     N_1   0.839744 0.398911 0.557212 -0.007059
S14   S     S_3+6 0.325832 0.058522 0.342276 -0.002447
O64   O     O_2   0.216416 0.974824 0.306431 -0.319400
O65   O     O_2   0.238645 0.131987 0.351147 -0.289809
O66   O     O_3   0.460790 0.072701 0.284515 -0.386387
H50   H     H_    0.402284 0.068438 0.237402 0.392267
C65   C     C_1   0.926415 0.675432 0.160302 0.223856
N5    N     N_1   0.836438 0.616794 0.127379 -0.027076
C66   C     C_1   0.000540 0.831791 0.203351 0.392073
N6    N     N_1   0.974086 0.899955 0.200529 -0.033596

loop_
_geom_bond_atom_site_label_1
_geom_bond_atom_site_label_2
_geom_bond_distance
_ccdc_geom_bond_type
P6    C44   1.910822 S    
C27   C28   1.404498 A    
C7    S3    1.798832 S    
S7    O43   1.483805 D    
C3    C62   1.457990 S    
S13   O63   1.649572 S    
C2    C3    1.579614 S    
C8    S4    1.817179 S    
C43   H32   1.055877 S    
C62   N2    1.158037 T    
C1    C10   1.542113 S    
C24   C27   1.429431 A    
O54   H46   0.981971 S    
S1    O27   1.668973 S    
C11   C12   1.518931 S    
S11   O56   1.496413 D    
C21   C22   1.407289 A    
O2    Ba2   2.845088 S    
C54   C55   1.440291 A    
P4    O13   1.566556 S    
C49   C64   1.434116 S    
C25   C26   1.437743 A    
C51   C52   1.412555 A    
C41   C43   1.405363 A    
O17   Ba2   2.900612 S    
C37   C38   1.425863 A    
C42   C44   1.424255 A    
C51   H36   1.040109 S    
C17   C22   1.427881 A    
C9    H13   1.106079 S    
P1    O1    1.623798 D    
S3    O32   1.499899 D    
C12   H19   1.109253 S    
C11   O22   1.405639 S    
O12   Ba2   2.869527 S    
C40   S12   1.767941 S    
Ba1   O13   2.844430 S    
C44   C45   1.424806 A    
C38   C41   1.411215 A    
C39   H31   1.076388 S    
C8    H12   1.102887 S    
Ba1   Ba2   4.870568 S    
O16   P7    1.819685 S    
P7    O22   1.752114 S    
C49   C50   1.393645 A    
C36   C37   1.397444 A    
S6    O42   1.643006 S    
O10   C8    1.418387 S    
S3    O31   1.501224 D    
C17   C31   1.405846 A    
C4    O15   1.381289 S    
S10   O53   1.491264 D    
O63   H49   0.983816 S    
C14   H22   1.109889 S    
C23   H30   1.080259 S    
P3    O11   1.786593 S    
C15   H25   1.109159 S    
P1    Ba1   3.545738 S    
C61   N1    1.149842 T    
C7    H11   1.097396 S    
O7    Ba1   2.984174 S    
P8    O24   1.742332 S    
C15   H24   1.097066 S    
S5    O38   1.484778 D    
C1    H2    1.092393 S    
C53   C60   1.473120 A    
P3    C47   1.938041 S    
C28   H29   1.073439 S    
P2    O20   1.638390 S    
S10   O54   1.671383 S    
P7    C60   1.919861 S    
C33   C46   1.461901 A    
C47   C55   1.441630 A    
S7    O44   1.490685 D    
O48   H44   0.975855 S    
S6    O41   1.492759 D    
S13   O61   1.496027 D    
C1    H15   1.103834 S    
S2    O30   1.671465 S    
C2    H4    1.101345 S    
C58   S13   1.795539 S    
O13   Ba2   3.134677 S    
C40   C41   1.419897 A    
O3    Ba1   2.887563 S    
C13   S7    1.799156 S    
P5    O17   1.774800 S    
C9    S5    1.810869 S    
O42   H42   0.988393 S    
S9    O51   1.679375 S    
S4    O35   1.489616 D    
C65   N5    1.148823 T    
C11   H17   1.110429 S    
Ba1   O16   2.933227 S    
C64   N4    1.153094 T    
C16   S9    1.815101 S    
O66   H50   0.990634 S    
S12   O60   1.680899 S    
O51   H45   0.990579 S    
C34   S11   1.763378 S    
C24   C25   1.421150 A    
S9    O50   1.495768 D    
S3    O33   1.681370 S    
P4    O12   1.624182 D    
C18   C19   1.408028 A    
C2    H3    1.108145 S    
S11   O57   1.685463 S    
P4    O15   1.728488 S    
O60   H48   0.990389 S    
P5    C50   1.899607 S    
C57   S14   1.781047 S    
C5    H7    1.096093 S    
C17   C18   1.408696 A    
C4    C5    1.539702 S    
C36   C39   1.398275 A    
H34   C59   1.082118 S    
C3    C66   1.460015 S    
O3    P6    1.722739 S    
O57   H47   0.990877 S    
P1    O2    1.566545 S    
S12   O59   1.503106 D    
C20   H28   1.083157 S    
C53   C57   1.417231 A    
P8    O23   1.544021 D    
C16   H26   1.064580 S    
C66   N6    1.157772 T    
C19   H27   1.083283 S    
C6    H9    1.108725 S    
P1    C46   1.952240 S    
S4    O36   1.662159 S    
C47   C59   1.395774 A    
P2    O10   1.778485 S    
C54   C58   1.479474 A    
C23   C24   1.421864 A    
S14   O66   1.671627 S    
O16   Ba2   3.110628 S    
C50   C51   1.390500 A    
C14   H23   1.097737 S    
C6    S2    1.717497 S    
C15   O24   1.393383 S    
O11   C2    1.415456 S    
C12   H18   1.110335 S    
C33   C34   1.423801 A    
C42   C43   1.412287 A    
C28   C29   1.407003 A    
S5    O39   1.676793 S    
C16   S10   1.783985 S    
C48   C58   1.458130 A    
H1    C10   1.111385 S    
C52   C53   1.451769 A    
C32   C42   1.413223 A    
O45   H43   0.973827 S    
P4    Ba2   3.546455 S    
P3    O8    1.765769 S    
S7    O45   1.675796 S    
H35   C56   1.061329 S    
C56   C57   1.395331 A    
C4    H6    1.107767 S    
O4    P6    1.548392 D    
C25   C30   1.433465 A    
C63   N3    1.147408 T    
C31   C38   1.408375 A    
S1    O25   1.479139 D    
P2    C48   1.929428 S    
C30   C35   1.409554 A    
C31   C32   1.435461 A    
S10   O52   1.495315 D    
S2    O29   1.492632 D    
S4    O34   1.492882 D    
C11   H16   1.110379 S    
C1    C61   1.446173 S    
Ba2   O21   2.984166 S    
P1    O5    1.783902 S    
C7    H10   1.108808 S    
O6    P6    1.781840 S    
S14   O65   1.492120 D    
C20   C21   1.409028 A    
S1    O26   1.496324 D    
P8    C27   1.876951 S    
C21   C23   1.415986 A    
C35   C63   1.419797 S    
O30   H38   0.989619 S    
P5    O18   1.548323 D    
O27   H37   0.990550 S    
C45   H33   1.081949 S    
C5    H8    1.106390 S    
C10   S6    1.745647 S    
C35   C36   1.408884 A    
O33   H39   0.990337 S    
S12   O58   1.493456 D    
S13   O62   1.488955 D    
P3    O9    1.531108 D    
S5    O37   1.503584 D    
O6    C10   1.428736 S    
C6    C7    1.556191 S    
S9    O49   1.500939 D    
C22   C26   1.411238 A    
O36   H40   0.984552 S    
C13   C14   1.549080 S    
P2    O7    1.609671 D    
S11   O55   1.497745 D    
S6    O40   1.495252 D    
S8    O47   1.487721 D    
P2    Ba1   3.604168 S    
C18   C34   1.417054 A    
Ba2   O20   2.932715 S    
C9    H14   1.090650 S    
C32   C33   1.432607 A    
C3    C65   1.442329 S    
C8    C9    1.559371 S    
O14   P8    1.769603 S    
C13   S8    1.757197 S    
P7    O21   1.586577 D    
C48   C59   1.401951 A    
C52   C54   1.494265 A    
O19   C13   1.446727 S    
O14   Ba2   2.886803 S    
C19   C20   1.407431 A    
C12   H20   1.109091 S    
O5    C6    1.395269 S    
O39   H41   0.990763 S    
S14   O64   1.497123 D    
C15   C16   1.546397 S    
O2    Ba1   3.133766 S    
C14   H21   1.102830 S    
S8    O46   1.490741 D    
C39   C40   1.381030 A    
C49   C60   1.422507 A    
C4    H5    1.105426 S    
S2    O28   1.484742 D    
O1    Ba1   2.868873 S    
O8    Ba1   2.900059 S    
C29   C30   1.450639 A    
C45   C46   1.421955 A    
C26   C37   1.405229 A    
P4    C29   1.927965 S    
P5    O19   1.799137 S    
Ba1   O20   3.111609 S    
C55   C56   1.395801 A    
S8    O48   1.668160 S    
C5    S1    1.824286 S    
