data_mof_unit_25182.cif
_audit_creation_date              2012-10-26T19:06:26-0400
_audit_creation_method            fapswitch 2.2
_symmetry_space_group_name_H-M    P1
_symmetry_Int_Tables_number       1
_space_group_crystal_system       triclinic
_cell_length_a                    12.379961
_cell_length_b                    13.120085
_cell_length_c                    14.339297
_cell_angle_alpha                 78.470771
_cell_angle_beta                  101.101091
_cell_angle_gamma                 116.272898
_cell_volume                      2031.92819409

loop_
_atom_site_label
_atom_site_type_symbol
_atom_type_description
_atom_site_fract_x
_atom_site_fract_y
_atom_site_fract_z
_atom_type_partial_charge
C1    C     C_R   0.854650 0.287492 0.500650 0.536928
C2    C     C_R   0.435477 0.980561 0.461844 0.027499
C3    C     C_R   0.389041 0.063069 0.421347 0.043268
C4    C     C_R   0.000258 0.500042 0.668706 0.547422
C5    C     C_R   0.468144 0.175800 0.394233 -0.149718
C6    C     C_R   0.592502 0.209299 0.411204 -0.123472
C7    C     C_R   0.352501 0.868008 0.488856 -0.145513
C8    C     C_R   0.182921 0.918145 0.430265 -0.142226
C9    C     C_R   0.770067 0.166981 0.486437 -0.005170
C10   C     C_R   0.344205 0.321030 0.645355 -0.024153
C11   C     C_R   0.760919 0.646598 0.376505 0.049798
C12   C     C_1   0.999405 0.500464 0.228703 -0.044077
C13   C     C_R   0.666307 0.680387 0.349052 -0.163489
C14   C     C_R   0.563026 0.625922 0.396469 -0.134786
C15   C     C_R   0.553646 0.536822 0.472600 -0.006085
C16   C     C_R   0.144962 0.713639 0.487419 0.543871
C17   C     C_R   0.653765 0.506282 0.498262 0.164805
C18   C     C_R   0.449362 0.476701 0.523846 -0.046869
C19   C     C_R   0.450734 0.390725 0.601961 0.030350
C20   C     C_R   0.557898 0.374015 0.632846 -0.023168
C21   C     C_R   0.650978 0.423279 0.576393 -0.120262
C22   C     C_R   0.343376 0.497803 0.500222 0.019705
C23   C     C_R   0.263515 0.031371 0.406149 -0.144679
C24   C     C_R   0.246149 0.351916 0.623853 0.112419
C25   C     C_R   0.999886 0.500344 0.331217 0.537562
C26   C     C_1   0.000589 0.500406 0.771074 -0.044274
C27   C     C_1   0.000392 0.500563 0.856465 -0.045246
C28   C     C_1   0.000010 0.500534 0.957115 -0.000323
C29   C     C_1   0.999685 0.500505 0.042534 0.000221
C30   C     C_1   0.999411 0.500492 0.143225 -0.043132
C31   C     C_2   0.585070 0.317182 0.728913 0.229713
C32   C     C_R   0.325748 0.205043 0.698142 0.030855
C33   C     C_R   0.320254 0.120891 0.648000 -0.115646
C34   C     C_R   0.227127 0.835649 0.470743 -0.010922
C35   C     C_R   0.300397 0.011032 0.694893 -0.112972
C36   C     C_R   0.285730 0.984205 0.792286 -0.105176
C37   C     C_R   0.291485 0.067385 0.842998 -0.097060
C38   C     C_R   0.311594 0.177457 0.796366 -0.032236
C39   C     C_R   0.144455 0.288183 0.683049 0.095230
C40   C     C_R   0.146545 0.327665 0.767930 -0.085020
C41   C     C_R   0.059586 0.260866 0.830590 -0.130228
C42   C     C_R   0.973064 0.152134 0.811214 -0.110668
C43   C     C_R   0.975863 0.108757 0.730808 -0.112451
C44   C     C_R   0.062987 0.175543 0.668385 -0.076022
C45   C     C_R   0.815965 0.084063 0.502714 -0.137586
C46   C     C_R   0.738831 0.968189 0.508265 -0.144369
C47   C     C_R   0.613960 0.932647 0.498239 -0.119109
C48   C     C_R   0.563037 0.013549 0.474563 0.033903
C49   C     C_R   0.642636 0.131759 0.458761 0.025792
Cu1   Cu    Cu3+1 0.098280 0.475420 0.520190 0.927023
Cu2   Cu    Cu3+1 0.901720 0.524580 0.479810 0.904556
H1    H     H_    0.086333 0.894888 0.415622 0.126365
H2    H     H_    0.911883 0.108891 0.509491 0.121828
H3    H     H_    0.559708 0.841359 0.503558 0.105546
H4    H     H_    0.776200 0.905269 0.521671 0.123190
H5    H     H_    0.647061 0.295173 0.380577 0.162421
H6    H     H_    0.630433 0.261115 0.736418 0.099977
H7    H     H_    0.330940 0.140771 0.572527 0.118538
H8    H     H_    0.296160 0.946658 0.655723 0.125022
H9    H     H_    0.270192 0.899047 0.828512 0.113796
H10   H     H_    0.280680 0.046665 0.918546 0.110802
H11   H     H_    0.317609 0.241410 0.836902 0.133392
H12   H     H_    0.336453 0.562102 0.442685 0.124234
H13   H     H_    0.215767 0.410152 0.785500 0.116474
H14   H     H_    0.060350 0.292777 0.894824 0.117931
H15   H     H_    0.906176 0.100231 0.859958 0.116091
H16   H     H_    0.912560 0.022447 0.718101 0.116748
H17   H     H_    0.071801 0.138201 0.611168 0.090414
H18   H     H_    0.840782 0.689349 0.339283 0.128170
H19   H     H_    0.492924 0.656005 0.372560 0.100146
H20   H     H_    0.673086 0.748981 0.290923 0.106380
H21   H     H_    0.723658 0.398603 0.599996 0.176186
H22   H     H_    0.433753 0.238576 0.359059 0.111852
H23   H     H_    0.227713 0.094083 0.374639 0.106878
H24   H     H_    0.383620 0.803949 0.525083 0.123561
N1    N     N_R   0.246290 0.438200 0.550780 -0.241349
N2    N     N_R   0.754310 0.561180 0.449760 -0.231191
O1    O     O_R   0.972510 0.318130 0.525390 -0.485510
O2    O     O_R   0.806530 0.359650 0.491290 -0.531534
O3    O     O_R   0.083010 0.479240 0.641000 -0.474249
O4    O     O_R   0.917030 0.520750 0.606900 -0.493279
O5    O     O_R   0.193470 0.640350 0.508710 -0.504507
O6    O     O_R   0.027490 0.681870 0.474610 -0.500736
O7    O     O_R   0.082970 0.479250 0.393100 -0.484349
O8    O     O_R   0.916990 0.520760 0.359000 -0.490272
O9    O     O_2   0.565197 0.339452 0.800788 -0.503779

loop_
_geom_bond_atom_site_label_1
_geom_bond_atom_site_label_2
_ccdc_geom_bond_type
C15   C18   A    
C9    C45   A    
C33   H7    S    
C41   C42   A    
C3    C23   A    
C2    C7    A    
C22   N1    A    
Cu2   O8    S    
Cu1   O7    S    
C45   C46   A    
C26   C27   T    
C37   C38   A    
C28   C29   T    
C4    O3    A    
C5    C6    A    
C8    C23   A    
C35   H8    S    
C18   C19   A    
C11   N2    A    
C16   C34   S    
C22   H12   S    
C4    O4    A    
C19   C20   A    
C46   H4    S    
C25   O7    A    
C32   C38   A    
C7    H24   S    
C8    H1    S    
C3    C5    A    
C45   H2    S    
C31   O9    D    
C13   C14   A    
C1    O1    A    
C14   H19   S    
Cu1   O1    S    
C25   O8    A    
C21   H21   S    
C9    C49   A    
C39   C40   A    
C24   N1    A    
C41   H14   S    
C13   H20   S    
C2    C48   A    
C16   O6    A    
C17   C21   A    
C35   C36   A    
C43   C44   A    
Cu2   N2    S    
C29   C30   S    
Cu1   N1    S    
C37   H10   S    
C47   C48   A    
C10   C19   A    
C17   N2    A    
Cu1   Cu2   S    
C1    C9    S    
C8    C34   A    
C47   H3    S    
C48   C49   A    
C1    O2    A    
C7    C34   A    
C44   H17   S    
C42   C43   A    
C23   H23   S    
Cu2   O6    S    
Cu1   O5    S    
C15   C17   A    
Cu2   O4    S    
C46   C47   A    
C36   C37   A    
C12   C30   T    
C18   C22   A    
C6    H5    S    
C36   H9    S    
Cu1   O3    S    
C4    C26   S    
C11   H18   S    
C39   C44   A    
C40   H13   S    
C12   C25   S    
C10   C24   A    
C32   C33   A    
C31   H6    S    
C2    C3    A    
C11   C13   A    
C33   C35   A    
C6    C49   A    
C5    H22   S    
Cu2   O2    S    
C10   C32   S    
C20   C21   A    
C43   H16   S    
C16   O5    A    
C27   C28   S    
C42   H15   S    
C14   C15   A    
C40   C41   A    
C24   C39   S    
C38   H11   S    
C20   C31   S    
