data_mof_unit_10183.cif
_audit_creation_date              2012-12-10T17:13:43-0500
_audit_creation_method            fapswitch 2.2
_symmetry_space_group_name_H-M    P1
_symmetry_Int_Tables_number       1
_space_group_crystal_system       triclinic
_cell_length_a                    27.6485
_cell_length_b                    10.660673
_cell_length_c                    9.99589
_cell_angle_alpha                 88.713449
_cell_angle_beta                  90.230606
_cell_angle_gamma                 90.106247
_cell_volume                      2945.53355981

loop_
_atom_site_label
_atom_site_type_symbol
_atom_type_description
_atom_site_fract_x
_atom_site_fract_y
_atom_site_fract_z
_atom_type_partial_charge
C1    C     C_R   0.496972 0.262550 0.501567 0.958904
C2    C     C_R   0.973480 0.376217 0.593882 -0.034088
C3    C     C_R   0.974848 0.605707 0.578190 0.031375
C4    C     C_R   0.405733 0.500126 0.499611 0.866204
C5    C     C_R   0.948687 0.491603 0.580268 0.026314
C6    C     C_R   0.947030 0.266264 0.629141 0.184889
C7    C     C_R   0.895858 0.268126 0.625337 0.143967
C8    C     C_R   0.871732 0.378733 0.578261 -0.065576
C9    C     C_R   0.898017 0.492538 0.563435 -0.133408
C10   C     C_R   0.873879 0.607048 0.530321 -0.015879
C11   C     C_R   0.823279 0.603314 0.512679 0.505644
C12   C     C_R   0.272911 0.477994 0.400361 -0.116097
C13   C     C_R   0.821831 0.381232 0.548993 0.520833
C14   C     C_R   0.721057 0.482755 0.632133 -0.119048
C15   C     C_R   0.670990 0.485174 0.627199 -0.209022
C16   C     C_R   0.498693 0.737697 0.498077 0.938793
C17   C     C_R   0.673817 0.507263 0.384792 -0.216447
C18   C     C_R   0.724178 0.505272 0.390184 -0.092268
C19   C     C_R   0.747647 0.492891 0.514013 0.332105
C20   C     C_R   0.024129 0.376366 0.572065 0.074410
C21   C     C_R   0.050030 0.490385 0.582801 0.028614
C22   C     C_R   0.025260 0.604227 0.603348 0.034008
C23   C     C_R   0.251543 0.495064 0.524997 0.261869
C24   C     C_R   0.049245 0.268434 0.532018 -0.181021
C25   C     C_R   0.102750 0.710693 0.627768 -0.145688
C26   C     C_R   0.951082 0.716221 0.537927 -0.223359
C27   C     C_R   0.901326 0.719594 0.515209 0.196154
C28   C     C_R   0.594074 0.499611 0.500503 0.875955
C29   C     C_R   0.052466 0.711719 0.640935 0.177288
C30   C     C_2   0.470288 0.935109 0.402097 0.219215
C31   C     C_2   0.497814 0.870676 0.491602 -0.328570
C32   C     C_2   0.474857 0.070698 0.396888 -0.164951
C33   C     C_2   0.486316 0.132050 0.507317 -0.385211
C34   C     C_R   0.100768 0.491065 0.569598 -0.063734
C35   C     C_2   0.529859 0.566697 0.923630 -0.122603
C36   C     C_2   0.527669 0.572827 0.073683 -0.135086
C37   C     C_R   0.175515 0.384318 0.519795 0.511917
C38   C     C_R   0.177065 0.602066 0.571153 0.523584
C39   C     C_R   0.280116 0.514488 0.637695 -0.103133
C40   C     C_R   0.329977 0.517335 0.626417 -0.244368
C41   C     C_R   0.323151 0.480618 0.386874 0.175937
C42   C     C_3   0.354361 0.335512 0.226307 -0.735850
C43   C     C_3   0.879759 0.844888 0.473725 -0.795373
C44   C     C_3   0.030973 0.822337 0.711437 -0.952897
C45   C     C_R   0.125272 0.380721 0.535331 -0.009120
C46   C     C_3   0.436044 0.874180 0.304567 -0.828797
C47   C     C_3   0.867442 0.156476 0.680636 -0.800673
C48   C     C_3   0.987590 0.161591 0.815913 -0.761062
C49   C     C_R   0.099084 0.270364 0.515114 -0.155928
C50   C     C_R   0.126898 0.602566 0.588278 -0.072379
C51   C     C_R   0.352448 0.500326 0.501953 -0.110866
C52   C     C_R   0.646939 0.497468 0.503560 -0.043625
H1    H     H_    0.263533 0.527382 0.734401 0.151936
H2    H     H_    0.557300 0.622531 0.872733 0.160689
H3    H     H_    0.472612 0.454514 0.898718 0.160633
H4    H     H_    0.551064 0.639909 0.122227 0.162240
H5    H     H_    0.480462 0.432622 0.103512 0.162851
H6    H     H_    0.116904 0.185316 0.484513 0.192196
H7    H     H_    0.651213 0.477176 0.720320 0.163645
H8    H     H_    0.739373 0.473552 0.727829 0.130680
H9    H     H_    0.030628 0.183127 0.506236 0.163587
H10   H     H_    0.350904 0.532856 0.716379 0.178410
H11   H     H_    0.367471 0.529595 0.225234 0.249072
H12   H     H_    0.123076 0.794265 0.652191 0.200209
H13   H     H_    0.383725 0.299949 0.293131 0.242393
H14   H     H_    0.366702 0.330933 0.120967 0.223532
H15   H     H_    0.321950 0.274573 0.238380 0.256810
H16   H     H_    0.861774 0.837914 0.374666 0.267786
H17   H     H_    0.853715 0.875487 0.550519 0.269296
H18   H     H_    0.907518 0.920028 0.464149 0.197436
H19   H     H_    0.053094 0.844049 0.801060 0.250899
H20   H     H_    0.030915 0.906266 0.643616 0.242516
H21   H     H_    0.993942 0.802848 0.748792 0.255860
H22   H     H_    0.413072 0.945653 0.252682 0.224216
H23   H     H_    0.971763 0.800424 0.517112 0.166850
H24   H     H_    0.456647 0.824339 0.226965 0.250568
H25   H     H_    0.411693 0.807404 0.358462 0.233071
H26   H     H_    0.888709 0.093160 0.747227 0.217296
H27   H     H_    0.837465 0.189257 0.744583 0.260958
H28   H     H_    0.853019 0.100583 0.597137 0.268780
H29   H     H_    0.958364 0.072014 0.648947 0.224775
H30   H     H_    0.955809 0.165654 0.883269 0.240094
H31   H     H_    0.010958 0.244866 0.831852 0.256471
H32   H     H_    0.008869 0.076188 0.841707 0.242967
H33   H     H_    0.656024 0.516946 0.288404 0.160686
H34   H     H_    0.744945 0.513317 0.298778 0.135177
H35   H     H_    0.522482 0.915971 0.560083 0.120886
H36   H     H_    0.470208 0.119398 0.300964 0.172072
H37   H     H_    0.250265 0.463619 0.313291 0.155086
H38   H     H_    0.486075 0.086763 0.605772 0.159785
N1    N     N_R   0.200165 0.493983 0.537595 -0.349630
N2    N     N_R   0.799140 0.492108 0.521809 -0.357189
N3    N     N_2   0.500520 0.501330 0.852150 -0.191946
N4    N     N_2   0.500540 0.501360 0.147810 -0.195046
N5    N     N_2   0.342484 0.463745 0.256941 -0.310512
N6    N     N_2   0.972034 0.157345 0.677728 -0.327347
O1    O     O_R   0.499990 0.319060 0.613040 -0.611666
O2    O     O_R   0.571240 0.499960 0.613080 -0.618954
O3    O     O_R   0.571250 0.500000 0.386950 -0.611802
O4    O     O_2   0.199666 0.279109 0.488469 -0.556655
O5    O     O_2   0.795796 0.274302 0.544379 -0.558028
O6    O     O_2   0.202633 0.708767 0.586940 -0.555089
O7    O     O_2   0.797716 0.708889 0.487866 -0.563452
O8    O     O_R   0.500010 0.319100 0.386900 -0.613552
O9    O     O_R   0.428750 0.500000 0.613050 -0.617844
O10   O     O_R   0.428760 0.500040 0.386920 -0.624658
O11   O     O_R   0.499990 0.680900 0.613100 -0.611385
O12   O     O_R   0.500010 0.680940 0.386960 -0.604553
Zn1   Zn    Zn3+2 0.499990 0.499970 0.650990 0.948511
Zn2   Zn    Zn3+2 0.500010 0.500030 0.349010 0.936530

loop_
_geom_bond_atom_site_label_1
_geom_bond_atom_site_label_2
_ccdc_geom_bond_type
C10   C27   A    
C30   C32   S    
C24   H9    S    
C22   C29   A    
C35   C36   S    
C47   H27   S    
H3    N3    S    
C46   H24   S    
C1    C33   S    
C7    C8    A    
C39   H1    S    
C16   C31   S    
C12   C23   A    
C26   C27   A    
C18   H34   S    
C17   H33   S    
C30   C31   D    
C32   H36   S    
H11   N5    S    
C40   H10   S    
C44   H19   S    
C18   C19   A    
C25   C50   A    
C19   N2    S    
C16   O11   A    
C11   N2    A    
C20   C24   A    
C48   H30   S    
C43   H16   S    
C42   H13   S    
C9    C10   A    
C43   H17   S    
O2    Zn1   S    
C21   C22   A    
C35   H2    S    
O11   Zn1   S    
C2    C6    A    
C47   H28   S    
C17   C52   A    
C26   H23   S    
C35   N3    D    
C25   C29   A    
C34   C50   A    
C31   H35   S    
C37   N1    A    
C4    C51   S    
C2    C20   A    
C42   N5    S    
C12   H37   S    
C1    O1    A    
C39   C40   A    
H29   N6    S    
C8    C9    A    
C21   C34   A    
O3    Zn2   S    
C4    O10   A    
C38   N1    A    
N4    Zn2   S    
C49   H6    S    
C48   H32   S    
C25   H12   S    
C7    C47   S    
C5    C9    A    
C12   C41   A    
C36   H4    S    
C36   N4    D    
O1    Zn1   S    
C45   C49   A    
C17   C18   A    
C34   C45   A    
C15   C52   A    
C1    O8    A    
C28   O3    A    
C43   H18   S    
C6    N6    S    
H5    N4    S    
C29   C44   S    
C42   H15   S    
C23   N1    S    
C2    C5    A    
C13   O5    S    
C46   H22   S    
O10   Zn2   S    
C28   O2    A    
C24   C49   A    
O9    Zn1   S    
C48   N6    S    
C15   H7    S    
C14   C19   A    
C30   C46   S    
C3    C26   A    
C3    C5    A    
C46   H25   S    
C6    C7    A    
C38   C50   A    
C40   C51   A    
C14   H8    S    
C4    O9    A    
C48   H31   S    
C32   C33   D    
C13   N2    A    
C33   H38   S    
O8    Zn2   S    
C28   C52   S    
C41   N5    S    
C23   C39   A    
O12   Zn2   S    
C44   H20   S    
C44   H21   S    
C10   C11   A    
C16   O12   A    
C8    C13   A    
C27   C43   S    
C20   C21   A    
C38   O6    S    
C42   H14   S    
C14   C15   A    
C3    C22   A    
C11   O7    S    
C47   H26   S    
C37   C45   A    
C41   C51   A    
C37   O4    S    
N3    Zn1   S    
