data_mof_unit_51067.cif
_audit_creation_date              2012-12-10T17:11:26-0500
_audit_creation_method            fapswitch 2.2
_symmetry_space_group_name_H-M    P1
_symmetry_Int_Tables_number       1
_space_group_crystal_system       triclinic
_cell_length_a                    15.072961
_cell_length_b                    12.940037
_cell_length_c                    11.735526
_cell_angle_alpha                 100.511092
_cell_angle_beta                  94.885925
_cell_angle_gamma                 91.965467
_cell_volume                      2239.46117706

loop_
_atom_site_label
_atom_site_type_symbol
_atom_type_description
_atom_site_fract_x
_atom_site_fract_y
_atom_site_fract_z
_atom_type_partial_charge
C1    C     C_R   0.501278 0.299317 0.478121 0.866815
C2    C     C_R   0.420080 0.863925 0.592748 0.022040
C3    C     C_R   0.454954 0.132140 0.528567 0.535146
C4    C     C_R   0.545361 0.868038 0.473088 0.534077
C5    C     C_R   0.466265 0.026060 0.530786 -0.069294
C6    C     C_R   0.533441 0.973821 0.469932 -0.068837
C7    C     C_R   0.418973 0.396982 0.015327 -0.306948
C8    C     C_R   0.583197 0.600776 0.984460 -0.309663
C9    C     C_R   0.423189 0.407681 0.137699 0.359160
C10   C     C_R   0.575205 0.594057 0.862453 0.360590
C11   C     C_R   0.536577 0.543686 0.159296 0.005291
C12   C     C_R   0.498456 0.700577 0.521818 0.868176
C13   C     C_R   0.465514 0.454062 0.840542 0.004417
C14   C     C_R   0.530868 0.535807 0.036252 0.021820
C15   C     C_R   0.471491 0.461742 0.963571 0.019950
C16   C     C_R   0.328648 0.501461 0.499580 0.799967
C17   C     C_R   0.671363 0.501389 0.500905 0.798714
C18   C     C_R   0.808851 0.542073 0.415026 -0.209342
C19   C     C_R   0.190754 0.469896 0.588435 -0.205158
C20   C     C_R   0.768295 0.506061 0.503312 -0.082047
C21   C     C_R   0.231862 0.504639 0.499756 -0.070193
C22   C     C_R   0.819633 0.476903 0.595047 -0.242388
C23   C     C_R   0.055440 0.423540 0.675542 0.104661
C24   C     C_R   0.181658 0.545521 0.414888 -0.239822
C25   C     C_R   0.912855 0.478786 0.598158 0.077493
C26   C     C_R   0.089036 0.553243 0.417614 0.065443
C27   C     C_R   0.954090 0.512956 0.505949 -0.023376
C28   C     C_R   0.046874 0.511236 0.504476 -0.015321
C29   C     C_R   0.902060 0.549688 0.416013 0.061514
C30   C     C_R   0.097856 0.466716 0.589526 0.048558
C31   C     C_R   0.964769 0.444098 0.689483 0.142784
C32   C     C_R   0.038259 0.601712 0.335774 0.112576
C33   C     C_3   0.924151 0.432036 0.802156 -0.400417
C34   C     C_R   0.943607 0.594754 0.330752 0.117988
C35   C     C_3   0.901471 0.538587 0.870840 -0.865877
C36   C     C_3   0.084443 0.668651 0.261164 -0.392310
C37   C     C_3   0.101541 0.605316 0.142368 -0.853977
C38   C     C_3   0.102939 0.348726 0.745505 -0.414798
C39   C     C_3   0.057359 0.238236 0.717969 -0.818994
C40   C     C_3   0.887015 0.636540 0.235764 -0.432492
C41   C     C_3   0.851371 0.743993 0.282044 -0.798648
C42   C     C_3   0.354613 0.800167 0.648542 -0.342993
C43   C     C_3   0.275457 0.858375 0.697347 -0.858070
C44   C     C_3   0.637864 0.196199 0.339097 -0.336109
C45   C     C_R   0.489478 0.813421 0.533633 -0.205595
C46   C     C_3   0.715161 0.137199 0.285948 -0.863934
C47   C     C_3   0.634891 0.672883 0.819745 -0.373156
C48   C     C_3   0.605839 0.785422 0.855391 -0.840799
C49   C     C_3   0.359578 0.332935 0.180802 -0.370775
C50   C     C_3   0.262219 0.355053 0.152100 -0.872260
C51   C     C_R   0.509710 0.186242 0.466080 -0.212784
C52   C     C_R   0.587484 0.027645 0.406118 -0.132892
C53   C     C_R   0.410901 0.971558 0.592442 -0.131712
C54   C     C_R   0.576984 0.134659 0.403417 0.024942
Cu1   Cu    Cu3+1 0.506660 0.507730 0.615930 0.943674
Cu2   Cu    Cu3+1 0.493340 0.492270 0.384070 0.942083
F1    F     F_    0.610768 0.817000 0.415856 -0.702584
F2    F     F_    0.390574 0.183646 0.587483 -0.697523
H1    H     H_    0.765702 0.566235 0.347683 0.169334
H2    H     H_    0.583373 0.600619 0.214536 0.161710
H3    H     H_    0.962900 0.590627 0.895127 0.255973
H4    H     H_    0.852410 0.578218 0.819995 0.256023
H5    H     H_    0.872514 0.527042 0.951796 0.235617
H6    H     H_    0.864542 0.376887 0.783585 0.189968
H7    H     H_    0.969227 0.397636 0.862600 0.216023
H8    H     H_    0.159196 0.556208 0.150987 0.248490
H9    H     H_    0.042960 0.553106 0.102066 0.251916
H10   H     H_    0.117031 0.659923 0.083122 0.244646
H11   H     H_    0.044672 0.736833 0.248570 0.208705
H12   H     H_    0.233582 0.448754 0.657807 0.150017
H13   H     H_    0.147787 0.707337 0.306754 0.194548
H14   H     H_    0.987493 0.238181 0.740542 0.241905
H15   H     H_    0.057762 0.205094 0.623765 0.260156
H16   H     H_    0.094315 0.185984 0.768425 0.242859
H17   H     H_    0.172239 0.335241 0.726155 0.214127
H18   H     H_    0.107798 0.381188 0.840185 0.192497
H19   H     H_    0.809829 0.740665 0.354974 0.277583
H20   H     H_    0.907399 0.803031 0.313233 0.241730
H21   H     H_    0.809824 0.770549 0.211124 0.242222
H22   H     H_    0.923915 0.644373 0.160163 0.220068
H23   H     H_    0.373815 0.337863 0.960167 0.151810
H24   H     H_    0.831600 0.579189 0.196077 0.187736
H25   H     H_    0.298776 0.923415 0.770503 0.251529
H26   H     H_    0.235935 0.889489 0.627930 0.255608
H27   H     H_    0.231301 0.802802 0.731152 0.247927
H28   H     H_    0.326796 0.731804 0.582017 0.191756
H29   H     H_    0.390935 0.769374 0.720479 0.219855
H30   H     H_    0.758587 0.109298 0.354268 0.256890
H31   H     H_    0.689630 0.069774 0.216767 0.251090
H32   H     H_    0.756113 0.191262 0.245737 0.247285
H33   H     H_    0.597072 0.223073 0.267705 0.222496
H34   H     H_    0.630304 0.657911 0.039252 0.149769
H35   H     H_    0.667401 0.266912 0.400819 0.196317
H36   H     H_    0.535015 0.791258 0.824136 0.262551
H37   H     H_    0.614292 0.810864 0.951433 0.244334
H38   H     H_    0.647353 0.839929 0.816478 0.245483
H39   H     H_    0.704435 0.668366 0.857878 0.166632
H40   H     H_    0.638881 0.658319 0.726096 0.259570
H41   H     H_    0.250209 0.436016 0.194788 0.261218
H42   H     H_    0.244693 0.345795 0.056892 0.244466
H43   H     H_    0.218139 0.299613 0.186203 0.252230
H44   H     H_    0.371382 0.250772 0.139559 0.176544
H45   H     H_    0.784976 0.448793 0.661060 0.165488
H46   H     H_    0.367300 0.335311 0.274081 0.264585
H47   H     H_    0.216574 0.572508 0.348454 0.158180
H48   H     H_    0.638014 0.985479 0.359522 0.212367
H49   H     H_    0.359578 0.013281 0.637820 0.213072
H50   H     H_    0.419401 0.396339 0.785271 0.162611
N1    N     N_R   0.516670 0.519360 0.790130 -0.201729
N2    N     N_R   0.483330 0.480640 0.209870 -0.202796
O1    O     O_R   0.504720 0.354460 0.582000 -0.539439
O2    O     O_R   0.495280 0.645540 0.418000 -0.543222
O3    O     O_R   0.493480 0.341410 0.386200 -0.631318
O4    O     O_R   0.506520 0.658590 0.613800 -0.610692
O5    O     O_R   0.375880 0.506510 0.597910 -0.585855
O6    O     O_R   0.624120 0.493490 0.402090 -0.585704
O7    O     O_R   0.364640 0.493450 0.402110 -0.597075
O8    O     O_R   0.635360 0.506550 0.597890 -0.614479

loop_
_geom_bond_atom_site_label_1
_geom_bond_atom_site_label_2
_ccdc_geom_bond_type
C25   C31   A    
Cu1   Cu2   S    
C26   C32   A    
C16   C21   S    
C48   H37   S    
C27   C29   A    
C43   H25   S    
Cu2   O7    S    
C49   H46   S    
C33   H7    S    
C46   H31   S    
C38   H18   S    
C50   H41   S    
C47   H40   S    
C48   H36   S    
C34   C40   S    
C49   H44   S    
C32   C36   S    
C5    C53   A    
C36   C37   S    
C19   C21   A    
C24   C26   A    
C41   H19   S    
C38   C39   S    
C11   C14   A    
C37   H10   S    
C17   C20   S    
C10   N1    A    
C39   H16   S    
C13   N1    A    
C44   H35   S    
C44   C46   S    
C22   C25   A    
C4    F1    S    
Cu2   O3    S    
C40   H22   S    
C42   H28   S    
C12   O4    A    
C36   H13   S    
C4    C45   A    
C7    C15   A    
C52   H48   S    
Cu1   N1    S    
C11   N2    A    
C43   H26   S    
C1    O3    A    
C13   H50   S    
Cu2   N2    S    
C52   C54   A    
C46   H30   S    
C38   H17   S    
C2    C45   A    
C43   H27   S    
C23   C30   A    
C40   H24   S    
C9    C49   S    
C4    C6    A    
C41   H20   S    
C3    C51   A    
C29   C34   A    
C22   H45   S    
C32   C34   A    
C53   H49   S    
C47   C48   S    
C39   H14   S    
C37   H8    S    
C31   C33   S    
Cu2   O6    S    
C35   H3    S    
C18   C29   A    
C1    C51   S    
C44   H33   S    
C17   O8    A    
C8    H34   S    
C40   C41   S    
C7    H23   S    
C20   C22   A    
C13   C15   A    
C42   C43   S    
C11   H2    S    
C16   O5    A    
C12   O2    A    
C36   H11   S    
C9    N2    A    
C7    C9    A    
C8    C14   A    
C48   H38   S    
Cu1   O1    S    
C50   H42   S    
C12   C45   S    
C3    C5    A    
C2    C53   A    
C41   H21   S    
C46   H32   S    
Cu1   O4    S    
C25   C27   A    
C23   C38   S    
C26   C28   A    
C47   H39   S    
C51   C54   A    
C28   C30   A    
C16   O7    A    
C1    O1    A    
C5    C6    A    
Cu1   O5    S    
C2    C42   S    
C33   H6    S    
C37   H9    S    
C33   C35   S    
C35   H4    S    
C18   C20   A    
C39   H15   S    
C42   H29   S    
C3    F2    S    
C44   C54   S    
C18   H1    S    
C50   H43   S    
C8    C10   A    
C49   C50   S    
C21   C24   A    
C10   C47   S    
C14   C15   A    
C19   H12   S    
C35   H5    S    
C24   H47   S    
C6    C52   A    
C19   C30   A    
Cu2   O2    S    
C17   O6    A    
C23   C31   A    
C27   C28   A    
Cu1   O8    S    
