data_mof_unit_46324.cif
_audit_creation_date              2012-10-26T17:11:21-0400
_audit_creation_method            fapswitch 2.2
_symmetry_space_group_name_H-M    P1
_symmetry_Int_Tables_number       1
_space_group_crystal_system       triclinic
_cell_length_a                    28.016001
_cell_length_b                    18.730192
_cell_length_c                    16.874963
_cell_angle_alpha                 90.201229
_cell_angle_beta                  62.485222
_cell_angle_gamma                 90.300118
_cell_volume                      7853.36006416

loop_
_atom_site_label
_atom_site_type_symbol
_atom_type_description
_atom_site_fract_x
_atom_site_fract_y
_atom_site_fract_z
_atom_type_partial_charge
C1    C     C_R   0.294981 0.728190 0.329756 0.555706
C2    C     C_R   0.587331 0.999488 0.544745 0.023009
C3    C     C_R   0.691126 0.713263 0.903070 -0.008720
C4    C     C_R   0.926546 0.903043 0.066531 0.554559
C5    C     C_R   0.073493 0.096900 0.933436 0.554330
C6    C     C_R   0.073568 0.903270 0.933283 0.553819
C7    C     C_R   0.926446 0.096750 0.066706 0.554061
C8    C     C_R   0.426507 0.403099 0.066563 0.554600
C9    C     C_R   0.573518 0.596867 0.933416 0.554448
C10   C     C_R   0.573563 0.403263 0.933287 0.554190
C11   C     C_R   0.426443 0.596744 0.066708 0.553981
C12   C     C_R   0.028474 0.619702 0.570914 0.013443
C13   C     C_R   0.902867 0.499666 0.486251 0.024349
C14   C     C_R   0.971520 0.380298 0.429107 0.013446
C15   C     C_R   0.931137 0.618570 0.559261 0.011330
C16   C     C_R   0.068855 0.381429 0.440763 0.011390
C17   C     C_R   0.527296 0.125751 0.573917 0.011833
C18   C     C_R   0.459641 0.874631 0.471234 0.011611
C19   C     C_R   0.430586 0.124116 0.559931 0.009215
C20   C     C_R   0.543873 0.871365 0.516833 0.006425
C21   C     C_R   0.993023 0.677715 0.602778 -0.128617
C22   C     C_R   0.006969 0.322284 0.397246 -0.128604
C23   C     C_R   0.944682 0.677010 0.597401 -0.130378
C24   C     C_R   0.097127 0.500334 0.513767 0.024384
C25   C     C_R   0.055310 0.322988 0.402625 -0.130332
C26   C     C_R   0.494856 0.186877 0.595203 -0.129067
C27   C     C_R   0.485971 0.810244 0.467116 -0.128715
C28   C     C_R   0.446482 0.185708 0.589652 -0.130794
C29   C     C_R   0.526335 0.808095 0.493477 -0.130490
C30   C     C_R   0.965854 0.559596 0.528524 0.023811
C31   C     C_R   0.034138 0.440404 0.471499 0.023803
C32   C     C_R   0.014480 0.559956 0.534936 0.023370
C33   C     C_R   0.985513 0.440043 0.465086 0.023364
C34   C     C_R   0.462560 0.062796 0.538828 0.024088
C35   C     C_R   0.585026 0.870281 0.540819 -0.117331
C36   C     C_R   0.519783 0.936344 0.516617 0.023486
C37   C     C_R   0.510091 0.063044 0.548596 0.024287
C38   C     C_R   0.475263 0.937305 0.499213 0.023310
C39   C     C_R   0.446220 0.000513 0.510687 -0.006646
C40   C     C_R   0.539023 0.999731 0.536909 -0.006369
C41   C     C_R   0.951380 0.499748 0.493325 -0.006515
C42   C     C_R   0.048613 0.500252 0.506696 -0.006516
C43   C     C_R   0.383437 0.937065 0.470484 -0.001642
C44   C     C_R   0.609548 0.064728 0.555481 -0.001889
C45   C     C_R   0.612714 0.933770 0.542307 -0.001484
C46   C     C_R   0.383084 0.122884 0.551718 -0.117477
C47   C     C_R   0.369350 0.063676 0.513030 -0.001893
C48   C     C_R   0.886232 0.437202 0.458039 -0.001239
C49   C     C_R   0.113763 0.562799 0.541975 -0.001231
C50   C     C_R   0.129339 0.438261 0.491347 -0.002143
C51   C     C_R   0.870655 0.561740 0.508670 -0.002144
C52   C     C_R   0.333232 0.935778 0.467769 -0.026828
C53   C     C_R   0.663294 0.065223 0.545138 -0.026684
C54   C     C_R   0.664522 0.934316 0.539957 -0.023419
C55   C     C_R   0.325970 0.064496 0.490576 -0.022044
C56   C     C_R   0.833947 0.435477 0.463106 -0.026856
C57   C     C_R   0.417003 0.876539 0.450338 -0.115229
C58   C     C_R   0.166051 0.564524 0.536903 -0.026835
C59   C     C_R   0.173735 0.436257 0.511072 -0.024012
C60   C     C_R   0.826261 0.563743 0.488939 -0.023883
C61   C     C_R   0.307551 0.000298 0.471880 -0.163798
C62   C     C_R   0.688756 0.999922 0.540204 -0.164660
C63   C     C_R   0.807170 0.499838 0.471114 -0.162434
C64   C     C_R   0.192827 0.500163 0.528895 -0.162410
C65   C     C_R   0.576522 0.126361 0.577360 -0.117346
C66   C     C_R   0.116386 0.381326 0.449002 -0.117444
C67   C     C_R   0.883607 0.618674 0.551017 -0.117436
C68   C     C_R   0.922350 0.379167 0.425801 -0.115940
C69   C     C_R   0.705021 0.271813 0.670242 0.554129
C70   C     C_R   0.077646 0.620835 0.574213 -0.115946
C71   C     C_R   0.221162 0.767777 0.952825 0.029940
C72   C     C_R   0.778980 0.232493 0.047056 0.029913
C73   C     C_R   0.779384 0.765908 0.046943 0.030749
C74   C     C_R   0.221111 0.233186 0.952636 0.031325
C75   C     C_R   0.721121 0.267707 0.952862 0.029897
C76   C     C_R   0.279002 0.732516 0.047032 0.030046
C77   C     C_R   0.278886 0.266816 0.047368 0.031365
C78   C     C_R   0.721552 0.732398 0.952255 0.031233
C79   C     C_R   0.277735 0.770590 0.910340 -0.109322
C80   C     C_R   0.704981 0.728272 0.670324 0.548765
C81   C     C_R   0.722408 0.229713 0.089563 -0.109045
C82   C     C_R   0.722932 0.770086 0.089091 -0.109696
C83   C     C_R   0.277566 0.228983 0.910516 -0.110054
C84   C     C_R   0.777694 0.270493 0.910355 -0.109042
C85   C     C_R   0.222431 0.729705 0.089511 -0.109087
C86   C     C_R   0.222431 0.271018 0.089488 -0.109994
C87   C     C_R   0.778015 0.728209 0.910069 -0.109844
C88   C     C_R   0.306331 0.753070 0.956899 -0.110445
C89   C     C_R   0.693804 0.247208 0.043013 -0.110238
C90   C     C_R   0.694308 0.753441 0.042231 -0.110871
C91   C     C_R   0.295040 0.271689 0.329663 0.554674
C92   C     C_R   0.306167 0.245694 0.957410 -0.110781
C93   C     C_R   0.806300 0.252996 0.956905 -0.110188
C94   C     C_R   0.193836 0.747224 0.042955 -0.110211
C95   C     C_R   0.193830 0.254308 0.042594 -0.110764
C96   C     C_R   0.806648 0.744868 0.956947 -0.110809
C97   C     C_R   0.144851 0.830165 0.943568 -0.117149
C98   C     C_R   0.855253 0.170016 0.056345 -0.117013
C99   C     C_R   0.855667 0.828610 0.056097 -0.118206
C100  C     C_R   0.144687 0.170791 0.943607 -0.118345
C101  C     C_R   0.644818 0.330112 0.943595 -0.117160
C102  C     C_R   0.794989 0.228204 0.329752 0.554453
C103  C     C_R   0.355262 0.670023 0.056335 -0.117499
C104  C     C_R   0.355312 0.329210 0.056393 -0.118311
C105  C     C_R   0.644971 0.670314 0.943369 -0.118276
C106  C     C_R   0.118011 0.852151 0.894994 -0.013659
C107  C     C_R   0.882041 0.147930 0.104967 -0.013546
C108  C     C_R   0.882316 0.851409 0.104743 -0.013662
C109  C     C_R   0.117845 0.148345 0.895135 -0.013908
C110  C     C_R   0.617992 0.352123 0.895007 -0.013599
C111  C     C_R   0.382033 0.647914 0.104972 -0.013771
C112  C     C_R   0.382156 0.351652 0.104863 -0.013879
C113  C     C_R   0.205028 0.771827 0.670238 0.553874
C114  C     C_R   0.617949 0.648192 0.895060 -0.013853
C115  C     C_R   0.136602 0.829758 0.806882 -0.139674
C116  C     C_R   0.863430 0.170288 0.193098 -0.139499
C117  C     C_R   0.863672 0.829414 0.192953 -0.137212
C118  C     C_R   0.136410 0.170486 0.807005 -0.137012
C119  C     C_R   0.636586 0.329734 0.806892 -0.139506
C120  C     C_R   0.363407 0.670244 0.193116 -0.139239
C121  C     C_R   0.363593 0.329509 0.192992 -0.137135
C122  C     C_R   0.636421 0.670500 0.807015 -0.138340
C123  C     C_R   0.182540 0.787732 0.765772 -0.014405
C124  C     C_R   0.204962 0.228308 0.670336 0.555030
C125  C     C_R   0.817520 0.212368 0.234187 -0.014489
C126  C     C_R   0.817704 0.787046 0.234078 -0.014531
C127  C     C_R   0.182480 0.212653 0.765795 -0.014384
C128  C     C_R   0.682515 0.287690 0.765790 -0.014322
C129  C     C_R   0.317503 0.712336 0.234197 -0.014476
C130  C     C_R   0.317522 0.287343 0.234203 -0.014564
C131  C     C_R   0.682575 0.712505 0.765731 -0.014197
C132  C     C_R   0.209231 0.765763 0.814476 -0.116820
C133  C     C_R   0.790893 0.234453 0.185427 -0.116788
C134  C     C_R   0.791106 0.764286 0.185290 -0.117358
C135  C     C_R   0.795076 0.771624 0.329641 0.564048
C136  C     C_R   0.209307 0.235004 0.814377 -0.120044
C137  C     C_R   0.709184 0.265684 0.814513 -0.116835
C138  C     C_R   0.290884 0.734432 0.185430 -0.117004
C139  C     C_R   0.290695 0.264993 0.185622 -0.120219
C140  C     C_R   0.709577 0.734543 0.814158 -0.120129
C141  C     C_R   0.196606 0.631756 0.527634 0.549775
C142  C     C_R   0.803393 0.368245 0.472369 0.549689
C143  C     C_R   0.799358 0.630905 0.486155 0.555256
C144  C     C_R   0.200641 0.369095 0.513851 0.555024
C145  C     C_R   0.696242 0.131820 0.528606 0.549991
C146  C     C_R   0.399840 0.000612 0.497326 0.023176
C147  C     C_R   0.303057 0.868519 0.474066 0.550858
C148  C     C_R   0.299370 0.131097 0.486082 0.556331
C149  C     C_R   0.697006 0.868416 0.525858 0.555729
C150  C     C_R   0.190846 0.787176 0.903474 -0.009142
C151  C     C_R   0.809291 0.213067 0.096413 -0.009083
C152  C     C_R   0.809701 0.785306 0.096232 -0.008767
C153  C     C_R   0.190766 0.213883 0.903375 -0.008487
C154  C     C_R   0.690801 0.287100 0.903513 -0.009175
C155  C     C_R   0.309297 0.713068 0.096403 -0.009122
C156  C     C_R   0.309234 0.286118 0.096626 -0.008520
Cu1   Cu    Cu3+1 0.209920 0.785290 0.495070 0.919004
Cu2   Cu    Cu3+1 0.504760 0.500000 0.075850 0.921529
Cu3   Cu    Cu3+1 0.995240 1.000000 0.924150 0.921365
Cu4   Cu    Cu3+1 0.004760 0.000000 0.075850 0.921433
Cu5   Cu    Cu3+1 0.790080 0.214710 0.504930 0.918810
Cu6   Cu    Cu3+1 0.790080 0.785290 0.504930 0.915655
Cu7   Cu    Cu3+1 0.209920 0.214710 0.495070 0.914775
Cu8   Cu    Cu3+1 0.709920 0.285290 0.495070 0.914573
Cu9   Cu    Cu3+1 0.290080 0.714710 0.504930 0.912402
Cu10  Cu    Cu3+1 0.290080 0.285290 0.504930 0.911150
Cu11  Cu    Cu3+1 0.709920 0.714710 0.495070 0.906855
Cu12  Cu    Cu3+1 0.495240 0.500000 0.924150 0.918007
H1    H     H_    0.545074 0.757446 0.492694 0.103376
H2    H     H_    0.729267 0.000205 0.532848 0.159714
H3    H     H_    0.769991 0.499877 0.466089 0.159625
H4    H     H_    0.230007 0.500123 0.533917 0.159613
H5    H     H_    0.592418 0.818720 0.560150 0.153399
H6    H     H_    0.356691 0.167908 0.579399 0.146625
H7    H     H_    0.411339 0.830256 0.417362 0.143405
H8    H     H_    0.587178 0.174603 0.600724 0.142134
H9    H     H_    0.143724 0.337495 0.418563 0.142776
H10   H     H_    0.856269 0.662506 0.581452 0.143012
H11   H     H_    0.913739 0.333771 0.394667 0.136843
H12   H     H_    0.422100 0.233513 0.606706 0.101641
H13   H     H_    0.086259 0.666232 0.605342 0.136871
H14   H     H_    0.150326 0.743714 0.077120 0.107460
H15   H     H_    0.849811 0.256472 0.922718 0.107481
H16   H     H_    0.850096 0.740493 0.923147 0.105087
H17   H     H_    0.150384 0.258742 0.076348 0.105126
H18   H     H_    0.650292 0.243725 0.077201 0.107395
H19   H     H_    0.349843 0.756566 0.922734 0.106437
H20   H     H_    0.349612 0.241259 0.923656 0.105779
H21   H     H_    0.650866 0.757899 0.076027 0.106199
H22   H     H_    0.299910 0.787511 0.841398 0.109254
H23   H     H_    0.473941 0.761184 0.446944 0.104238
H24   H     H_    0.700236 0.212825 0.158516 0.109568
H25   H     H_    0.700937 0.787487 0.157907 0.109011
H26   H     H_    0.299576 0.211555 0.841703 0.103932
H27   H     H_    0.799864 0.287377 0.841399 0.109574
H28   H     H_    0.200254 0.712774 0.158447 0.109524
H29   H     H_    0.200420 0.288445 0.158302 0.102859
H30   H     H_    0.800001 0.710868 0.841217 0.102948
H31   H     H_    0.131366 0.848818 0.011374 0.131293
H32   H     H_    0.868747 0.151382 0.988530 0.131289
H33   H     H_    0.869193 0.847008 0.988256 0.130182
H34   H     H_    0.506862 0.235574 0.616120 0.104365
H35   H     H_    0.131200 0.152309 0.011405 0.130185
H36   H     H_    0.631335 0.348769 0.011398 0.131244
H37   H     H_    0.368768 0.651413 0.988507 0.130755
H38   H     H_    0.368798 0.347693 0.988596 0.130191
H39   H     H_    0.631549 0.651701 0.011096 0.130710
H40   H     H_    0.116469 0.847460 0.768986 0.152942
H41   H     H_    0.883518 0.152504 0.231031 0.152971
H42   H     H_    0.883707 0.847771 0.230962 0.155405
H43   H     H_    0.116210 0.152429 0.769132 0.155562
H44   H     H_    0.616466 0.347459 0.768985 0.152765
H45   H     H_    0.081763 0.277277 0.378100 0.101344
H46   H     H_    0.383483 0.652440 0.231059 0.153280
H47   H     H_    0.383794 0.347565 0.230865 0.155444
H48   H     H_    0.616081 0.652697 0.769260 0.153755
H49   H     H_    0.244845 0.732821 0.782856 0.130789
H50   H     H_    0.755305 0.267445 0.217028 0.130963
H51   H     H_    0.755365 0.731202 0.216884 0.130290
H52   H     H_    0.245142 0.267908 0.782702 0.127417
H53   H     H_    0.744787 0.232721 0.782902 0.131041
H54   H     H_    0.255296 0.767423 0.217028 0.131009
H55   H     H_    0.254860 0.232088 0.217296 0.127511
H56   H     H_    0.918227 0.722720 0.621928 0.101292
H57   H     H_    0.745469 0.767336 0.782432 0.127419
H58   H     H_    0.997141 0.276073 0.368698 0.105191
H59   H     H_    0.002851 0.723926 0.631326 0.105165
H60   H     H_    0.271643 0.000261 0.462994 0.158772
O1    O     O_R   0.255040 0.869590 0.478480 -0.505682
O2    O     O_R   0.817950 0.203450 0.375560 -0.515228
O3    O     O_R   0.817950 0.796550 0.375560 -0.505801
O4    O     O_R   0.182050 0.203450 0.624440 -0.508142
O5    O     O_R   0.682050 0.296550 0.624440 -0.516344
O6    O     O_R   0.317950 0.703450 0.375560 -0.514631
O7    O     O_R   0.317950 0.296550 0.375560 -0.508533
O8    O     O_R   0.682050 0.703450 0.624440 -0.516622
O9    O     O_R   0.250530 0.763330 0.367210 -0.510429
O10   O     O_R   0.749470 0.236670 0.632790 -0.510832
O11   O     O_R   0.749470 0.763330 0.632790 -0.523826
O12   O     O_R   0.744960 0.130410 0.521520 -0.506087
O13   O     O_R   0.250530 0.236670 0.367210 -0.522091
O14   O     O_R   0.750530 0.263330 0.367210 -0.510781
O15   O     O_R   0.249470 0.736670 0.632790 -0.511485
O16   O     O_R   0.249470 0.263330 0.632790 -0.522759
O17   O     O_R   0.750530 0.736670 0.367210 -0.510135
O18   O     O_R   0.177260 0.690030 0.513710 -0.513473
O19   O     O_R   0.822740 0.309970 0.486290 -0.513491
O20   O     O_R   0.822740 0.690030 0.486290 -0.516690
O21   O     O_R   0.177260 0.309970 0.513710 -0.516453
O22   O     O_R   0.677260 0.190030 0.513710 -0.515963
O23   O     O_R   0.744960 0.869590 0.521520 -0.505739
O24   O     O_R   0.322740 0.809970 0.486290 -0.518739
O25   O     O_R   0.322740 0.190030 0.486290 -0.519331
O26   O     O_R   0.677260 0.809970 0.513710 -0.525884
O27   O     O_R   0.051640 0.926880 0.885090 -0.512745
O28   O     O_R   0.948360 0.073120 0.114910 -0.512602
O29   O     O_R   0.948360 0.926880 0.114910 -0.511413
O30   O     O_R   0.051640 0.073120 0.885090 -0.511529
O31   O     O_R   0.551640 0.426880 0.885090 -0.512710
O32   O     O_R   0.448360 0.573120 0.114910 -0.512339
O33   O     O_R   0.448360 0.426880 0.114910 -0.511567
O34   O     O_R   0.255040 0.130410 0.478480 -0.507635
O35   O     O_R   0.551640 0.573120 0.885090 -0.512437
O36   O     O_R   0.940620 0.926560 0.986760 -0.514274
O37   O     O_R   0.059380 0.073440 0.013240 -0.514339
O38   O     O_R   0.059380 0.926560 0.013240 -0.513325
O39   O     O_R   0.940620 0.073440 0.986760 -0.513201
O40   O     O_R   0.440620 0.426560 0.986760 -0.514194
O41   O     O_R   0.559380 0.573440 0.013240 -0.513833
O42   O     O_R   0.559380 0.426560 0.013240 -0.513203
O43   O     O_R   0.440620 0.573440 0.986760 -0.513834
O44   O     O_R   0.755040 0.369590 0.478480 -0.507078
O45   O     O_R   0.244960 0.630410 0.521520 -0.507116
O46   O     O_R   0.244960 0.369590 0.521520 -0.507721
O47   O     O_R   0.755040 0.630410 0.478480 -0.507946
O48   O     O_R   0.182050 0.796550 0.624440 -0.515561

loop_
_geom_bond_atom_site_label_1
_geom_bond_atom_site_label_2
_ccdc_geom_bond_type
C100  C153  A    
C5    O37   A    
C31   C42   A    
C132  C150  A    
C89   H18   S    
C133  C151  A    
C74   C83   A    
C102  C125  S    
C14   C33   A    
C19   C46   A    
C3    C105  A    
C16   C31   A    
C119  H44   S    
C9    C114  S    
C117  H42   S    
C1    C129  S    
C52   C61   A    
C77   C156  S    
C84   H27   S    
C134  H51   S    
Cu9   O24   S    
Cu10  O16   S    
C144  O46   A    
C135  O17   A    
C131  C140  A    
C13   C51   A    
C44   C53   A    
C91   O13   A    
Cu3   O36   S    
C113  O15   A    
C97   C150  A    
C46   H6    S    
C124  O16   A    
Cu1   O18   S    
Cu6   O3    S    
C119  C128  A    
C47   C146  A    
C100  C109  A    
C58   C64   A    
Cu12  O40   S    
C113  O48   A    
C109  C118  A    
C21   H59   S    
C147  O24   A    
C115  C123  A    
C127  C136  A    
Cu5   O10   S    
C101  C110  A    
C120  C129  A    
Cu8   O22   S    
C116  H41   S    
C105  C114  A    
C70   H13   S    
C36   C40   A    
C72   C151  S    
C6    C106  S    
C28   H12   S    
C124  O4    A    
C124  C127  S    
C50   C59   A    
C35   C45   A    
C15   C30   A    
C139  H55   S    
C16   C25   A    
C82   C90   A    
C76   C155  S    
C106  C115  A    
C25   H45   S    
C18   C38   A    
C136  C153  A    
C147  O1    A    
C58   C141  S    
Cu4   O29   S    
C6    O27   A    
C84   C93   A    
C86   C95   A    
C2    C40   A    
C126  C134  A    
C102  O2    A    
C10   O31   A    
C87   H30   S    
C148  O34   A    
C76   C85   A    
C78   C87   A    
C144  O21   A    
Cu4   O38   S    
C123  C132  A    
C27   C29   A    
C93   H15   S    
C80   O8    A    
C141  O45   A    
C121  C130  A    
Cu1   O48   S    
C71   C79   A    
Cu1   O1    S    
Cu5   O12   S    
C99   C108  A    
Cu2   O41   S    
C121  H47   S    
Cu12  O31   S    
C37   C40   A    
C60   C143  S    
C38   C39   A    
C100  H35   S    
C75   C84   A    
C71   C150  S    
C138  H54   S    
C91   O7    A    
C143  O20   A    
Cu7   O34   S    
C85   C94   A    
C69   O5    A    
Cu10  O46   S    
C82   H25   S    
C57   H7    S    
C20   C35   A    
C69   C128  S    
C2    C44   A    
C22   C25   A    
C6    O38   A    
C30   C41   A    
C102  O14   A    
C115  H40   S    
C44   C65   A    
C2    C45   A    
C24   C50   A    
C66   H9    S    
C34   C39   A    
C35   H5    S    
Cu7   O4    S    
Cu12  O43   S    
Cu1   Cu9   S    
C104  C112  A    
C1    O9    A    
C118  H43   S    
Cu6   O23   S    
C4    O36   A    
C15   C67   A    
C51   C67   A    
C7    O39   A    
C19   C28   A    
C116  C125  A    
C73   C152  S    
C7    C107  S    
C118  C127  A    
C122  C131  A    
C117  C126  A    
C12   C70   A    
C32   C42   A    
C11   O43   A    
C108  C117  A    
C103  H37   S    
C67   H10   S    
C110  C119  A    
C59   C144  S    
C92   H20   S    
C22   H58   S    
Cu3   O30   S    
C99   C152  A    
C68   H11   S    
C133  H50   S    
C29   H1    S    
C14   C22   A    
C81   C89   A    
C112  C121  A    
Cu6   O11   S    
C55   C148  S    
C101  C154  A    
Cu2   O32   S    
C55   C61   A    
C122  H48   S    
Cu7   O13   S    
C107  C116  A    
C75   C89   A    
C142  O19   A    
C51   C60   A    
C8    O33   A    
C138  C155  A    
C4    O29   A    
C34   C37   A    
C24   C42   A    
C97   H31   S    
Cu3   O27   S    
Cu8   O14   S    
C13   C41   A    
Cu2   Cu12  S    
C78   C90   A    
C4    C108  S    
C80   O11   A    
Cu5   O19   S    
C8    C112  S    
C7    O28   A    
C145  O12   A    
C137  H53   S    
Cu10  O7    S    
Cu10  O25   S    
C103  C111  A    
C9    O41   A    
C88   H19   S    
C104  H38   S    
C69   O10   A    
C72   C81   A    
C103  C155  A    
C56   C142  S    
Cu9   O6    S    
C80   C131  S    
C135  O3    A    
C99   H33   S    
C143  O47   A    
C62   H2    S    
C130  C139  A    
C79   C88   A    
C98   C151  A    
Cu11  O8    S    
C45   C54   A    
C61   H60   S    
C11   C111  S    
Cu7   Cu10  S    
C91   C130  S    
C54   C62   A    
C101  H36   S    
C98   C107  A    
C64   H4    S    
C18   C57   A    
C63   H3    S    
Cu3   Cu4   S    
C113  C123  S    
C1    O6    A    
C134  C152  A    
C53   C145  S    
C59   C64   A    
C48   C68   A    
C72   C93   A    
Cu1   O9    S    
C126  C135  S    
C49   C70   A    
C21   C23   A    
C65   H8    S    
C16   C66   A    
C73   C82   A    
Cu5   Cu8   S    
C95   H17   S    
C46   C47   A    
C17   C65   A    
C85   H28   S    
C136  H52   S    
Cu2   O42   S    
C98   H32   S    
C33   C41   A    
C11   O32   A    
Cu4   O28   S    
C36   C38   A    
C43   C146  A    
C5    C109  S    
C39   C146  A    
C137  C154  A    
C10   C110  S    
Cu6   O20   S    
C43   C52   A    
C86   H29   S    
Cu5   O2    S    
C20   C36   A    
C10   O42   A    
C14   C68   A    
C94   H14   S    
C73   C96   A    
C3    C78   S    
C120  H46   S    
C149  O23   A    
C77   C92   A    
C8    O40   A    
C71   C94   A    
C83   C92   A    
C140  H57   S    
C60   C63   A    
C17   C26   A    
C26   H34   S    
Cu3   O39   S    
C132  H49   S    
C129  C138  A    
C79   H22   S    
C31   C33   A    
C76   C88   A    
C15   C23   A    
Cu8   O44   S    
C148  O25   A    
Cu11  O26   S    
C12   C32   A    
C27   H23   S    
C96   H16   S    
C105  H39   S    
C54   C149  S    
C20   C29   A    
C145  O22   A    
Cu7   O21   S    
Cu11  O47   S    
C43   C57   A    
C149  O26   A    
Cu11  O17   S    
C12   C21   A    
C49   C58   A    
C74   C153  S    
C111  C120  A    
C128  C137  A    
C81   H24   S    
C53   C62   A    
Cu2   O33   S    
C87   C96   A    
C141  O18   A    
C56   C63   A    
C17   C37   A    
C104  C156  A    
C50   C66   A    
Cu9   O15   S    
C77   C86   A    
C52   C147  S    
C97   C106  A    
C47   C55   A    
C125  C133  A    
C24   C49   A    
C48   C56   A    
Cu8   O5    S    
C74   C95   A    
C18   C27   A    
C19   C34   A    
C13   C48   A    
C26   C28   A    
C83   H26   S    
C30   C32   A    
C75   C154  S    
C139  C156  A    
C9    O35   A    
C5    O30   A    
Cu12  O35   S    
C142  O44   A    
Cu6   Cu11  S    
C114  C122  A    
Cu4   O37   S    
C23   H56   S    
C3    C140  A    
Cu9   O45   S    
C90   H21   S    
