data_mof_unit_16699.cif
_audit_creation_date              2012-12-11T16:29:30-0500
_audit_creation_method            fapswitch 2.2
_symmetry_space_group_name_H-M    P1
_symmetry_Int_Tables_number       1
_space_group_crystal_system       triclinic
_cell_length_a                    6.949507
_cell_length_b                    17.209072
_cell_length_c                    18.893994
_cell_angle_alpha                 106.13625
_cell_angle_beta                  89.645508
_cell_angle_gamma                 90.519515
_cell_volume                      2170.49291649

loop_
_atom_site_label
_atom_site_type_symbol
_atom_type_description
_atom_site_fract_x
_atom_site_fract_y
_atom_site_fract_z
_atom_type_partial_charge
O1    O     O_R   0.494360 0.415680 0.413760 -0.517284
O2    O     O_R   0.818810 0.432910 0.557230 -0.525825
O3    O     O_R   0.994290 0.584320 0.586240 -0.530251
C1    C     C_R   0.650364 0.418037 0.582366 0.755281
O4    O     O_R   0.823740 0.406440 0.412520 -0.532275
O5    O     O_R   0.999250 0.557660 0.440500 -0.511370
C2    C     C_R   0.654466 0.383938 0.384247 0.792393
O6    O     O_R   0.489400 0.442340 0.559500 -0.515272
O7    O     O_3   0.662500 0.549650 0.509350 -0.349462
V1    V     V_3+5 0.935340 0.490790 0.498270 1.548038
O8    O     O_R   0.329270 0.567090 0.442770 -0.519178
C3    C     C_R   0.161696 0.583159 0.418607 0.744713
O9    O     O_R   0.324340 0.593560 0.587480 -0.540806
C4    C     C_R   0.154097 0.620783 0.611582 0.706880
V2    V     V_3+5 0.435970 0.509210 0.501730 1.551756
O10   O     O_3   0.158940 0.450350 0.490650 -0.351879
C5    C     C_R   0.179392 0.587317 0.750876 -0.256718
C6    C     C_R   0.173089 0.564919 0.815943 0.144718
C7    C     C_R   0.114054 0.620700 0.881120 0.313602
C8    C     C_R   0.069479 0.700484 0.881108 0.132943
C9    C     C_R   0.108189 0.727854 0.817520 -0.024559
C10   C     C_R   0.144435 0.667698 0.749738 0.014596
C11   C     C_R   0.118075 0.811484 0.818528 -0.108333
C12   C     C_R   0.142930 0.831426 0.750911 0.052942
C13   C     C_R   0.125201 0.770515 0.682498 -0.011133
C14   C     C_R   0.140093 0.687632 0.681711 -0.100847
C15   C     C_R   0.179940 0.912139 0.749973 -0.219486
C16   C     C_R   0.193500 0.932496 0.684005 -0.162241
C17   C     C_R   0.147315 0.875849 0.618157 0.338508
C18   C     C_R   0.097433 0.796345 0.617867 0.045354
H1    H     H_    0.214930 0.540599 0.701214 0.144263
H2    H     H_    0.202039 0.960466 0.799888 0.130122
H3    H     H_    0.227631 0.994233 0.684720 0.169837
C19   C     C_1   0.111946 0.864172 0.132876 -0.078057
C20   C     C_1   0.119821 0.821154 0.176044 0.130247
C21   C     C_1   0.129620 0.770583 0.227599 0.119923
C22   C     C_1   0.137904 0.728098 0.271220 0.118682
C23   C     C_1   0.147479 0.677715 0.322937 0.122617
C24   C     C_1   0.154804 0.635051 0.366422 -0.098067
C25   C     C_1   0.642409 0.366534 0.634838 -0.112143
C26   C     C_1   0.638611 0.323825 0.678310 0.100300
C27   C     C_1   0.635193 0.273249 0.729891 0.089262
C28   C     C_1   0.632337 0.230571 0.773402 0.069368
C29   C     C_1   0.628496 0.179834 0.824851 0.047931
C30   C     C_1   0.624027 0.136782 0.868034 -0.181357
C31   C     C_R   0.563439 0.410360 0.236385 0.018598
C32   C     C_R   0.479235 0.418907 0.170994 0.294281
C33   C     C_R   0.447215 0.350933 0.111695 0.174260
C34   C     C_R   0.498930 0.275211 0.116624 -0.260186
C35   C     C_R   0.567917 0.262661 0.182753 0.023718
C36   C     C_R   0.592049 0.330874 0.245855 -0.017461
C37   C     C_R   0.616774 0.183082 0.185010 -0.086779
C38   C     C_R   0.673507 0.169147 0.252791 -0.041835
C39   C     C_R   0.672724 0.235556 0.317860 -0.046660
C40   C     C_R   0.641334 0.316414 0.314668 -0.100126
C41   C     C_R   0.724436 0.090914 0.260196 0.025225
C42   C     C_R   0.814036 0.085487 0.325349 0.244156
C43   C     C_R   0.795222 0.149266 0.389340 0.285520
C44   C     C_R   0.695758 0.218132 0.386180 0.119423
H4    H     H_    0.480388 0.226100 0.067191 0.141581
O11   O     O_R   0.775690 0.057750 0.940570 -0.526342
O12   O     O_R   0.441200 0.093570 0.087490 -0.536886
O13   O     O_R   0.265840 0.942320 0.059480 -0.519038
C45   C     C_R   0.609704 0.115888 0.115583 0.727841
O14   O     O_R   0.446270 0.067110 0.942790 -0.534507
O15   O     O_R   0.270950 0.915660 0.913750 -0.540923
C46   C     C_R   0.615305 0.084342 0.919631 0.695124
O16   O     O_R   0.770580 0.084400 0.086300 -0.532698
O17   O     O_3   0.602640 0.950400 0.990690 -0.334734
V3    V     V_3+5 0.329740 0.009200 0.001730 1.494077
O18   O     O_R   0.940900 0.906360 0.912450 -0.516928
C47   C     C_R   0.110205 0.879228 0.888230 0.742024
O19   O     O_R   0.935830 0.932820 0.057160 -0.498431
C48   C     C_R   0.103883 0.916584 0.081173 0.777409
V4    V     V_3+5 0.829130 0.990680 0.998180 1.549349
O20   O     O_3   0.106100 0.049590 0.009310 -0.371600
Br1   Br    Br    0.142269 0.911908 0.530651 -0.351110
I1    I     I_    0.677270 0.521077 0.307355 -0.292058
Br2   Br    Br    0.408520 0.523528 0.160482 -0.386972
I2    I     I_    0.330738 0.357602 0.009708 -0.196437
I3    I     I_    0.617369 0.977296 0.192230 -0.263874
Br3   Br    Br    0.940278 0.987700 0.330264 -0.374498
Br4   Br    Br    0.507511 0.256219 0.462419 -0.465155
I4    I     I_    0.237083 0.442762 0.809734 -0.283080
Br5   Br    Br    0.088347 0.586622 0.969847 -0.303068
Br6   Br    Br    0.903191 0.757712 0.959427 -0.473770
I5    I     I_    0.894451 0.738019 0.536104 -0.279554
Br7   Br    Br    0.877891 0.138706 0.483362 -0.315610

loop_
_geom_bond_atom_site_label_1
_geom_bond_atom_site_label_2
_ccdc_geom_bond_type
C25   C26   T    
O19   C48   A    
C7    C8    A    
C12   C15   A    
C2    C40   S    
C1    O6    A    
C41   I3    S    
C38   C39   A    
O11   V4    S    
O16   V4    S    
C17   C18   A    
C34   H4    S    
C45   O16   A    
C16   C17   A    
C44   Br4   S    
C6    C7    A    
O5    C3    A    
C23   C24   T    
O14   V3    S    
C41   C42   A    
O12   V3    S    
C19   C20   T    
C26   C27   S    
O12   C45   A    
C39   C40   A    
O8    V2    S    
O15   C47   A    
C1    C25   S    
O14   C46   A    
C8    Br6   S    
C30   C46   S    
C6    I4    S    
C11   C12   A    
O1    V2    S    
C32   Br2   S    
O7    V1    S    
O9    C4    A    
O19   V4    S    
C35   C36   A    
C39   C44   A    
C12   C13   A    
C37   C45   S    
O4    C2    A    
C43   C44   A    
C31   C36   A    
C20   C21   S    
O2    C1    A    
V4    O20   S    
C22   C23   S    
O11   C46   A    
C35   C37   A    
C32   C33   A    
O13   V3    S    
C5    C6    A    
C37   C38   A    
C4    C14   S    
O3    C4    A    
C19   C48   S    
C33   C34   A    
C16   H3    S    
O6    V2    S    
O9    V2    S    
C28   C29   S    
V3    O20   S    
C5    H1    S    
C27   C28   T    
O2    V1    S    
C29   C30   T    
C31   I1    S    
C38   C41   A    
C13   C18   A    
C31   C32   A    
C21   C22   T    
C15   H2    S    
O1    C2    A    
C11   C47   S    
C7    Br5   S    
C43   Br7   S    
O5    V1    S    
O8    C3    A    
O13   C48   A    
C5    C10   A    
C33   I2    S    
C3    C24   S    
C9    C11   A    
C13   C14   A    
O4    V1    S    
O3    V1    S    
V1    O10   S    
O18   V4    S    
C42   C43   A    
O15   V3    S    
O17   V4    S    
C36   C40   A    
O7    V2    S    
O17   V3    S    
O18   C47   A    
C17   Br1   S    
C8    C9    A    
C34   C35   A    
C10   C14   A    
C15   C16   A    
C42   Br3   S    
C18   I5    S    
C9    C10   A    
V2    O10   S    
