data_mof_unit_40113.cif
_audit_creation_date              2012-12-10T22:11:13-0500
_audit_creation_method            fapswitch 2.2
_symmetry_space_group_name_H-M    P1
_symmetry_Int_Tables_number       1
_space_group_crystal_system       triclinic
_cell_length_a                    12.141406
_cell_length_b                    12.301156
_cell_length_c                    23.085148
_cell_angle_alpha                 91.137987
_cell_angle_beta                  90.360962
_cell_angle_gamma                 91.373398
_cell_volume                      3446.09420126

loop_
_atom_site_label
_atom_site_type_symbol
_atom_type_description
_atom_site_fract_x
_atom_site_fract_y
_atom_site_fract_z
_atom_type_partial_charge
C1    C     C_R   0.656152 0.998933 0.579687 0.932702
C2    C     C_R   0.097358 0.876652 0.825786 0.541991
C3    C     C_R   0.901285 0.250843 0.158444 0.431546
C4    C     C_R   0.101031 0.791656 0.864215 0.432080
C5    C     C_R   0.116659 0.912017 0.318363 -0.440939
C6    C     C_R   0.839450 0.086719 0.704031 -0.248196
C7    C     C_R   0.198788 0.906169 0.360137 0.531075
C8    C     C_R   0.761319 0.091734 0.660050 0.507139
C9    C     C_R   0.883608 0.094967 0.325985 0.577704
C10   C     C_R   0.160438 0.901893 0.696666 0.632524
C11   C     C_R   0.804579 0.093847 0.368464 0.494823
C12   C     C_R   0.343083 0.001072 0.420669 0.903667
C13   C     C_R   0.243328 0.905375 0.656287 0.498421
C14   C     C_3   0.997665 0.008260 0.247247 0.057356
C15   C     C_3   0.001476 0.992767 0.752505 0.077918
C16   C     C_R   0.653556 0.001802 0.420094 0.985868
C17   C     C_R   0.344556 0.998136 0.578910 1.015241
C18   C     C_R   0.097829 0.008282 0.288207 -0.037050
C19   C     C_R   0.901457 0.992538 0.711822 0.000727
C20   C     C_R   0.259521 0.001080 0.375384 -0.240759
C21   C     C_R   0.739817 0.999029 0.624842 -0.234013
C22   C     C_R   0.900571 0.002542 0.289768 -0.211609
C23   C     C_R   0.899886 0.812130 0.126408 -0.186558
C24   C     C_R   0.098736 0.995775 0.709837 -0.254615
C25   C     C_R   0.736147 0.002314 0.374894 -0.452724
C26   C     C_R   0.259138 0.997244 0.622621 -0.467945
C27   C     C_R   0.996485 0.106921 0.207901 -0.119179
C28   C     C_R   0.000964 0.895759 0.793062 -0.102151
C29   C     C_R   0.996865 0.272466 0.126149 -0.349011
C30   C     C_R   0.003851 0.731446 0.875598 -0.342576
C31   C     C_R   0.996982 0.914496 0.202929 0.185810
C32   C     C_R   0.004465 0.088439 0.795688 0.151304
C33   C     C_R   0.993119 0.749711 0.117979 -0.025750
C34   C     C_R   0.103734 0.229383 0.851052 -0.229184
C35   C     C_R   0.008511 0.249211 0.882770 -0.022726
C36   C     C_R   0.993129 0.662390 0.075133 0.858344
C37   C     C_R   0.007044 0.337284 0.925094 0.859775
C38   C     C_R   0.998349 0.353787 0.081524 0.961478
C39   C     C_R   0.001756 0.647902 0.919227 0.972115
C40   C     C_R   0.160629 0.102868 0.304245 0.810946
C41   C     C_R   0.880246 0.901563 0.674758 0.711607
C42   C     C_R   0.240682 0.098092 0.346831 -0.359307
C43   C     C_R   0.799330 0.904638 0.632650 -0.330547
C44   C     C_R   0.837941 0.905334 0.300738 0.358639
C45   C     C_R   0.091843 0.854292 0.191446 -0.104683
C46   C     C_R   0.116624 0.090448 0.675991 0.316111
C47   C     C_R   0.748059 0.910529 0.338502 0.360815
C48   C     C_R   0.190749 0.086854 0.629610 0.355295
C49   C     C_R   0.091113 0.130021 0.174304 0.640426
C50   C     C_R   0.903517 0.835870 0.806419 0.624594
C51   C     C_R   0.091136 0.212267 0.134686 -0.299564
C52   C     C_R   0.906212 0.754167 0.846506 -0.318388
C53   C     C_R   0.902600 0.895527 0.167667 -0.091669
C54   C     C_R   0.102206 0.148837 0.808328 -0.006045
C55   C     C_3   0.878508 0.723312 0.312053 -0.203614
C56   C     C_R   0.911543 0.105265 0.830705 -0.243848
C57   C     C_3   0.111783 0.278096 0.690279 -0.188076
C58   C     C_3   0.592613 0.835505 0.298542 -0.214810
C59   C     C_3   0.116472 0.147583 0.546311 -0.202428
C60   C     C_3   0.805749 0.395029 0.191189 -0.149572
C61   C     C_3   0.268669 0.714531 0.858485 -0.092114
C62   C     C_3   0.256356 0.731514 0.352933 -0.233264
C63   C     C_3   0.769502 0.265996 0.628878 -0.195738
C64   C     C_R   0.089251 0.772056 0.150125 -0.195730
C65   C     C_R   0.912918 0.185921 0.873020 -0.173063
C66   C     C_R   0.899315 0.164671 0.196433 0.521594
F1    F     F_    0.184300 0.072035 0.179346 -0.672060
F2    F     F_    0.937331 0.808733 0.679342 -0.621794
F3    F     F_    0.803170 0.859601 0.784519 -0.666211
F4    F     F_    0.800017 0.135555 0.218789 -0.666080
F5    F     F_    0.190050 0.939238 0.819661 -0.672365
F6    F     F_    0.944092 0.188202 0.320471 -0.597882
F7    F     F_    0.138827 0.803225 0.719799 -0.600438
F8    F     F_    0.795891 0.183230 0.403537 -0.601538
F9    F     F_    0.305580 0.815863 0.648809 -0.582050
F10   F     F_    0.142483 0.202223 0.282137 -0.625730
H1    H     H_    0.286961 0.171975 0.358130 0.217377
H2    H     H_    0.830198 0.710051 0.855662 0.225489
H3    H     H_    0.825682 0.797226 0.100899 0.161008
H4    H     H_    0.179015 0.276591 0.858854 0.163268
H5    H     H_    0.163204 0.726006 0.143396 0.166379
H6    H     H_    0.839166 0.198313 0.898242 0.175915
H7    H     H_    0.802234 0.672837 0.316681 0.219040
H8    H     H_    0.908531 0.752834 0.355478 0.153465
H9    H     H_    0.942313 0.669554 0.293882 0.161672
H10   H     H_    0.112561 0.322003 0.648760 0.221962
H11   H     H_    0.197711 0.267216 0.706085 0.150275
H12   H     H_    0.784864 0.833089 0.605272 0.214318
H13   H     H_    0.070183 0.330763 0.722539 0.165759
H14   H     H_    0.628555 0.836819 0.254293 0.180194
H15   H     H_    0.544598 0.910132 0.306926 0.146920
H16   H     H_    0.534473 0.764728 0.300047 0.166268
H17   H     H_    0.031300 0.143215 0.563872 0.165160
H18   H     H_    0.135284 0.070886 0.522324 0.139567
H19   H     H_    0.119797 0.214451 0.514791 0.200999
H20   H     H_    0.877934 0.451369 0.185635 0.121697
H21   H     H_    0.803484 0.364503 0.236262 0.202338
H22   H     H_    0.730354 0.442432 0.184343 0.176692
H23   H     H_    0.829702 0.943295 0.173547 0.177521
H24   H     H_    0.296473 0.762482 0.820714 0.219259
H25   H     H_    0.229161 0.636258 0.843385 0.134032
H26   H     H_    0.342992 0.694643 0.883985 0.161535
H27   H     H_    0.332352 0.762376 0.331319 0.138266
H28   H     H_    0.194827 0.701715 0.320099 0.145470
H29   H     H_    0.279680 0.660928 0.379127 0.201520
H30   H     H_    0.807545 0.236290 0.587888 0.163119
H31   H     H_    0.834417 0.296138 0.659780 0.168403
H32   H     H_    0.717986 0.336089 0.617995 0.194969
H33   H     H_    0.178380 0.133658 0.785958 0.167836
H34   H     H_    0.169625 0.870957 0.213182 0.175982
H35   H     H_    0.836959 0.056331 0.824714 0.200736
H36   H     H_    0.066609 0.840201 0.309378 0.207086
H37   H     H_    0.854391 0.159963 0.729631 0.200533
H38   H     H_    0.164850 0.226774 0.109492 0.224247
O1    O     O_R   0.621380 0.090460 0.561410 -0.584719
O2    O     O_R   0.912410 0.372520 0.941210 -0.628639
O3    O     O_R   0.905660 0.383870 0.059980 -0.569729
O4    O     O_R   0.094340 0.616130 0.940020 -0.580866
O5    O     O_R   0.092570 0.390420 0.063230 -0.630225
O6    O     O_R   0.907430 0.609580 0.936770 -0.633280
O7    O     O_R   0.900680 0.620930 0.055550 -0.630040
O8    O     O_R   0.099320 0.379070 0.944450 -0.630425
O9    O     O_3   0.860594 0.807632 0.272492 -0.608540
O10   O     O_3   0.049715 0.179702 0.683904 -0.630742
O11   O     O_3   0.674525 0.823160 0.341302 -0.572985
O12   O     O_R   0.378620 0.909540 0.438590 -0.582816
O13   O     O_3   0.194796 0.170706 0.590535 -0.569423
O14   O     O_3   0.806286 0.308504 0.150190 -0.551812
O15   O     O_3   0.197722 0.774708 0.894410 -0.566397
O16   O     O_3   0.211507 0.810971 0.390248 -0.577356
O17   O     O_3   0.701439 0.185220 0.653908 -0.587365
O18   O     O_R   0.617150 0.909540 0.438590 -0.591393
O19   O     O_R   0.382850 0.090460 0.561410 -0.579538
O20   O     O_R   0.619720 0.093230 0.440890 -0.570410
O21   O     O_R   0.380280 0.906770 0.559110 -0.558751
O22   O     O_R   0.618800 0.906770 0.559110 -0.629387
O23   O     O_R   0.381200 0.093230 0.440890 -0.639896
O24   O     O_R   0.087590 0.627480 0.058790 -0.621368
Zn1   Zn    Zn3+2 0.501730 0.123520 0.501540 1.057937
Zn2   Zn    Zn3+2 0.498270 0.876480 0.498460 1.065935
Zn3   Zn    Zn3+2 0.125690 0.504390 0.002180 0.991280
Zn4   Zn    Zn3+2 0.874310 0.495610 0.997820 0.998630

loop_
_geom_bond_atom_site_label_1
_geom_bond_atom_site_label_2
_ccdc_geom_bond_type
C1    C21   S    
C62   O16   S    
C2    C4    A    
C9    F6    S    
C14   C31   S    
O22   Zn2   S    
O4    Zn3   S    
C16   O20   A    
C49   C51   A    
C58   H16   S    
C15   C28   S    
C15   C32   S    
C37   O2    A    
C53   H23   S    
C15   C19   S    
C6    C19   A    
O23   Zn1   S    
O12   Zn2   S    
C57   H13   S    
C43   H12   S    
C35   C37   S    
C50   F3    S    
C60   H22   S    
C10   F7    S    
C9    C22   A    
C12   O12   A    
C35   C65   A    
C59   O13   S    
C56   C65   A    
C33   C36   S    
C57   H10   S    
C34   C35   A    
C3    C29   A    
C18   C40   A    
C7    O16   S    
C62   H29   S    
C34   H4    S    
C21   C43   A    
C38   O3    A    
C28   C50   A    
C22   C44   A    
C13   F9    S    
C23   C33   A    
C29   C38   S    
C17   O21   A    
C50   C52   A    
C10   C13   A    
C23   C53   A    
C59   H18   S    
C63   O17   S    
C14   C27   S    
C1    O22   A    
C58   H15   S    
C25   C47   A    
C56   H35   S    
C44   C47   A    
C61   O15   S    
C40   C42   A    
C41   C43   A    
C46   O10   S    
C59   H19   S    
C52   H2    S    
C32   C54   A    
C47   O11   S    
C41   F2    S    
C62   H28   S    
O21   Zn2   S    
C55   O9    S    
C51   H38   S    
C27   C49   A    
C60   O14   S    
O6    Zn4   S    
C60   H21   S    
O20   Zn1   S    
C5    C7    A    
C3    O14   S    
C6    C8    A    
C5    C18   A    
C10   C24   A    
O24   Zn3   S    
C57   H11   S    
C54   H33   S    
C55   H9    S    
C61   H25   S    
C6    H37   S    
C9    C11   A    
C12   C20   S    
C8    O17   S    
C8    C21   A    
C19   C41   A    
C31   C53   A    
C63   H30   S    
C58   H14   S    
C42   H1    S    
O2    Zn4   S    
C38   O5    A    
C60   H20   S    
C15   C24   S    
O1    Zn1   S    
O19   Zn1   S    
C17   O19   A    
O5    Zn3   S    
C13   C26   A    
C61   H24   S    
C17   C26   S    
C63   H31   S    
C2    F5    S    
C62   H27   S    
C29   C51   A    
C16   C25   S    
C30   C52   A    
C49   F1    S    
C45   H34   S    
O7    Zn4   S    
C11   F8    S    
C45   C64   A    
C20   C42   A    
C34   C54   A    
C4    O15   S    
C5    H36   S    
C26   C48   A    
O18   Zn2   S    
C39   O4    A    
C1    O1    A    
C44   O9    S    
C24   C46   A    
C14   C22   S    
C36   O7    A    
C63   H32   S    
C27   C66   A    
C57   O10   S    
C65   H6    S    
C66   F4    S    
C36   O24   A    
C33   C64   A    
C32   C56   A    
C14   C18   S    
O3    Zn4   S    
C16   O18   A    
C64   H5    S    
C37   O8    A    
C3    C66   A    
C46   C48   A    
C40   F10   S    
C58   O11   S    
C7    C20   A    
C31   C45   A    
C11   C25   A    
C12   O23   A    
C2    C28   A    
C59   H17   S    
O8    Zn3   S    
C23   H3    S    
C55   H8    S    
C55   H7    S    
C61   H26   S    
C4    C30   A    
C39   O6    A    
C30   C39   S    
C48   O13   S    
