data_mof_unit_67026.cif
_audit_creation_date              2013-03-05T15:58:14-0500
_audit_creation_method            fapswitch 2.2
_symmetry_space_group_name_H-M    P1
_symmetry_Int_Tables_number       1
_space_group_crystal_system       triclinic
_cell_length_a                    8.227647
_cell_length_b                    12.811246
_cell_length_c                    14.231547
_cell_angle_alpha                 93.391547
_cell_angle_beta                  90.9455
_cell_angle_gamma                 98.608638
_cell_volume                      1480.10953138

loop_
_atom_site_label
_atom_site_type_symbol
_atom_site_description
_atom_site_fract_x
_atom_site_fract_y
_atom_site_fract_z
_atom_type_partial_charge
P1    P     P_3+3 0.054400 0.427280 0.286870 0.476069
O1    O     O_2   0.887370 0.460630 0.272300 -0.400890
O2    O     O_3   0.129410 0.451380 0.388510 -0.361635
O3    O     O_3   0.670210 0.653170 0.329170 -0.357037
O4    O     O_2   0.789321 0.584176 0.168013 -0.356193
O5    O     O_3   0.031193 0.289604 0.267992 -0.562785
O6    O     O_3   0.728956 0.775782 0.169909 -0.460442
H1    H     H_    0.593749 0.874124 0.244049 0.113883
C1    C     C_3   0.630097 0.919521 0.100937 -0.901375
H2    H     H_    0.757876 0.960862 0.109149 0.296216
H3    H     H_    0.612592 0.881615 0.028784 0.268932
P2    P     P_3+3 0.668300 0.742890 0.573060 0.484382
P3    P     P_3+3 0.134196 0.841855 0.379704 0.541916
O7    O     O_2   0.845380 0.761330 0.544970 -0.357326
O8    O     O_3   0.088930 0.704860 0.376040 -0.380018
O9    O     O_2   0.015592 0.885553 0.449199 -0.309293
O10   O     O_3   0.716747 0.771176 0.693753 -0.606971
O11   O     O_3   0.075692 0.882431 0.270760 -0.410962
C2    C     C_3   0.193767 0.860974 0.205661 0.334227
H4    H     H_    0.204327 0.775158 0.201152 0.068854
H5    H     H_    0.313770 0.909710 0.225891 0.022360
C3    C     C_3   0.143092 0.891129 0.109002 -0.728600
H6    H     H_    0.022448 0.844742 0.086354 0.288251
H7    H     H_    0.133854 0.976843 0.111388 0.258753
C4    C     C_3   0.193128 0.761683 0.653571 0.398153
H8    H     H_    0.301467 0.743538 0.615062 -0.001784
H9    H     H_    0.087013 0.736354 0.606432 0.170943
C5    C     C_3   0.206881 0.880101 0.675097 -0.842866
H10   H     H_    0.312629 0.907883 0.723859 0.237824
H11   H     H_    0.225370 0.921679 0.609208 0.223762
H12   H     H_    0.092613 0.899017 0.708069 0.294858
Ba1   Ba    Ba6+2 0.855630 0.555280 0.454520 1.629892
C6    C     C_3   0.865521 0.246291 0.266066 0.316121
H13   H     H_    0.795606 0.281303 0.211938 0.027022
H14   H     H_    0.816666 0.258602 0.336869 0.096750
C7    C     C_3   0.849320 0.129053 0.238591 -0.182164
H15   H     H_    0.717509 0.098512 0.223356 0.117179
H16   H     H_    0.920195 0.116730 0.174091 0.140730
C8    C     C_3   0.593559 0.726750 0.751837 0.843715
H17   H     H_    0.473769 0.711829 0.716041 0.011063
C9    C     C_3   0.580322 0.803606 0.836336 -1.021223
H18   H     H_    0.701709 0.825850 0.873253 0.302960
H19   H     H_    0.488463 0.767654 0.885927 0.234245
H20   H     H_    0.538719 0.875630 0.811645 0.227026
P4    P     P_3+3 0.135310 0.572810 0.713130 0.501038
O12   O     O_2   0.302330 0.539400 0.727760 -0.369233
O13   O     O_3   0.060300 0.548700 0.611500 -0.400872
O14   O     O_3   0.519500 0.346920 0.670840 -0.324471
O15   O     O_3   0.177242 0.710090 0.737981 -0.554919
P5    P     P_3+3 0.063734 0.157582 0.626462 0.500780
O16   O     O_3   0.614310 0.373510 0.452640 -0.398069
O17   O     O_3   0.100780 0.295230 0.623970 -0.390255
O18   O     O_2   0.197195 0.114861 0.566657 -0.349483
O19   O     O_3   0.107018 0.123963 0.740808 -0.493602
Ba2   Ba    Ba6+2 0.334200 0.444810 0.545490 1.630858
P6    P     P_3+3 0.659039 0.649294 0.206343 0.513874
C10   C     C_3   0.599595 0.835955 0.172423 0.409146
H21   H     H_    0.478610 0.789142 0.152896 -0.014567
H22   H     H_    0.542728 0.977263 0.110464 0.211112
O20   O     O_3   0.575400 0.626570 0.547370 -0.363055
C11   C     C_3   0.463068 0.305731 0.259791 0.423005
H23   H     H_    0.353234 0.330957 0.292948 0.140189
H24   H     H_    0.567195 0.371990 0.267286 0.086785
C12   C     C_3   0.424167 0.278675 0.155386 -1.023945
H25   H     H_    0.314036 0.216853 0.146258 0.281827
H26   H     H_    0.399426 0.349944 0.120399 0.226630
H27   H     H_    0.529831 0.248905 0.120903 0.248902
P7    P     P_3+3 0.525965 0.241033 0.422741 0.434072
O21   O     O_2   0.344320 0.238700 0.455090 -0.305669
O22   O     O_3   0.504962 0.215960 0.300541 -0.599336
H28   H     H_    0.236380 0.874372 0.056938 0.208512
C13   C     C_3   0.052805 0.197841 0.805528 0.322632
H29   H     H_    0.118328 0.278799 0.796377 0.094357
H30   H     H_    0.919197 0.197873 0.795347 -0.036927
C14   C     C_3   0.087151 0.171627 0.907059 -0.065384
H31   H     H_    0.216955 0.201344 0.928343 0.149991
H32   H     H_    0.009292 0.213414 0.955002 0.040515
P8    P     P_3+3 0.536553 0.339840 0.792181 0.525849
C15   C     C_3   0.553967 0.139600 0.780252 0.424346
H33   H     H_    0.651514 0.173875 0.732877 -0.000887
O23   O     O_2   0.415708 0.409517 0.835738 -0.365183
O24   O     O_3   0.453927 0.211199 0.817169 -0.510260
H34   H     H_    0.475065 0.076102 0.737201 0.111241
H35   H     H_    0.701598 0.153611 0.909146 0.250805
C16   C     C_3   0.631245 0.090726 0.861250 -0.962843
H36   H     H_    0.715923 0.037585 0.832918 0.258409
H37   H     H_    0.534245 0.044907 0.902024 0.287774
C17   C     C_R   0.987513 0.441318 0.060292 -0.147064
C18   C     C_R   0.184765 0.495677 0.195962 0.249527
C19   C     C_R   0.340926 0.545355 0.225963 -0.504590
C20   C     C_R   0.454025 0.589248 0.162121 0.199482
C21   C     C_R   0.409095 0.591695 0.067492 -0.301878
C22   C     C_R   0.251218 0.546402 0.034790 0.069318
C23   C     C_R   0.139262 0.493714 0.097893 -0.001501
H38   H     H_    0.377360 0.546188 0.299449 0.166631
C24   C     C_R   0.055694 0.498287 0.901406 -0.026910
C25   C     C_R   0.945281 0.443008 0.964027 0.088101
C26   C     C_R   0.011761 0.495074 0.803138 0.256835
C27   C     C_R   0.865692 0.431317 0.771366 -0.367234
C28   C     C_R   0.749651 0.387693 0.834750 0.284431
C29   C     C_R   0.790725 0.391710 0.930378 -0.306549
C30   C     C_R   0.206757 0.551686 0.939195 -0.106242
H39   H     H_    0.497183 0.629831 0.019881 0.191926
H40   H     H_    0.701197 0.355935 0.978543 0.142023
H41   H     H_    0.835270 0.423505 0.696784 0.177516
H42   H     H_    0.900578 0.398077 0.104911 0.139715
H43   H     H_    0.293355 0.595738 0.894610 0.165882
C31   C     C_R   0.769761 0.175757 0.533188 -0.420193
C32   C     C_R   0.435186 0.814325 0.459848 -0.453802
C33   C     C_R   0.408079 0.993993 0.429661 -0.195087
C34   C     C_R   0.345741 0.886992 0.422907 0.112527
C35   C     C_R   0.579741 0.847670 0.513161 0.243168
C36   C     C_R   0.642945 0.958128 0.523895 0.007229
C37   C     C_R   0.556646 0.031593 0.479046 0.001150
C38   C     C_R   0.621188 0.140830 0.484691 0.207489
C39   C     C_R   0.857013 0.105284 0.575983 0.241500
C40   C     C_R   0.791763 0.997569 0.574136 -0.204400
H44   H     H_    0.336804 0.046889 0.397548 0.219002
H45   H     H_    0.861113 0.945776 0.609446 0.178153
H46   H     H_    0.821069 0.258721 0.534614 0.162496
H47   H     H_    0.385113 0.731085 0.452926 0.157589
N1    N     N_R   0.909700 0.072478 0.314212 0.277942
O25   O     O_R   0.059437 0.098469 0.347318 -0.334087
O26   O     O_R   0.817663 0.990262 0.343780 -0.377126
N2    N     N_R   0.634854 0.627129 0.780320 0.228975
O27   O     O_R   0.678581 0.613690 0.866577 -0.450354
O28   O     O_R   0.643630 0.553919 0.714734 -0.371995
N3    N     N_R   0.053583 0.058018 0.918310 0.277645
O29   O     O_R   0.158224 0.997335 0.889100 -0.366533
O30   O     O_R   0.931349 0.019261 0.968649 -0.448913

loop_
_geom_bond_atom_site_label_1
_geom_bond_atom_site_label_2
_geom_bond_distance
_ccdc_geom_bond_type
C11   O22   1.403140 S    
O14   Ba2   2.797644 S    
C22   C23   1.422505 A    
C8    N2    1.447435 S    
C24   C30   1.407788 A    
C9    H18   1.111063 S    
C31   H46   1.082201 S    
O4    P6    1.541325 D    
C2    H4    1.113910 S    
C15   C16   1.518371 S    
N3    O29   1.300916 A    
C33   H44   1.076461 S    
C37   C38   1.417662 A    
C19   C20   1.392596 A    
O8    Ba1   2.797677 S    
C8    C9    1.524409 S    
P4    O12   1.513973 D    
C4    C5    1.516786 S    
P5    O19   1.752212 S    
P3    O11   1.746844 S    
C31   C38   1.393818 A    
C5    H10   1.106085 S    
C2    H5    1.110115 S    
O11   C2    1.398989 S    
P4    C26   1.885949 S    
C32   C34   1.391002 A    
C6    C7    1.515073 S    
C39   C40   1.402371 A    
O1    Ba1   2.829967 S    
C14   N3    1.459117 S    
O10   C8    1.394689 S    
O14   P8    1.739070 S    
C18   C23   1.436824 A    
C11   H24   1.111062 S    
C33   C34   1.386988 A    
C21   C22   1.401084 A    
C21   H39   1.082804 S    
O2    Ba2   2.788843 S    
P6    C20   1.830928 S    
Ba1   O13   2.788276 S    
P7    O21   1.567599 D    
C24   C26   1.435347 A    
O12   Ba2   2.830485 S    
P5    O17   1.746638 S    
C1    H2    1.105157 S    
C33   C37   1.405508 A    
Ba1   Ba2   4.571631 S    
P5    C39   1.849156 S    
C17   C25   1.410022 A    
O17   Ba2   2.798260 S    
P4    O13   1.558472 S    
Ba2   O20   2.822890 S    
O3    P6    1.746300 S    
C9    H19   1.110537 S    
C11   H23   1.107793 S    
O6    P6    1.748102 S    
C13   C14   1.533908 S    
C35   C36   1.431003 A    
C16   H37   1.110660 S    
C27   H41   1.081860 S    
C17   C23   1.407244 A    
P5    O18   1.544455 D    
P1    O5    1.749583 S    
C12   H27   1.110533 S    
C19   H38   1.082161 S    
C2    C3    1.519063 S    
H35   C16   1.109565 S    
C13   H30   1.106474 S    
C32   C35   1.397306 A    
C20   C21   1.394031 A    
O16   Ba2   2.912006 S    
C4    H8    1.100920 S    
C16   H36   1.109160 S    
P1    Ba1   3.394841 S    
C1    H22   1.110355 S    
C12   H26   1.108641 S    
P2    O10   1.760971 S    
C11   C12   1.523311 S    
C7    N1    1.453545 S    
C14   H31   1.109610 S    
Ba1   O16   2.823553 S    
H1    C10   1.109133 S    
C17   H42   1.076890 S    
P8    O24   1.745457 S    
C27   C28   1.402103 A    
P3    O8    1.736248 S    
P4    O15   1.754408 S    
C25   C29   1.403831 A    
C24   C25   1.424714 A    
C6    H13   1.108600 S    
C30   H43   1.079662 S    
Ba2   O21   2.881299 S    
C14   H32   1.111912 S    
O3    Ba1   2.798239 S    
C36   C40   1.417357 A    
P2    O20   1.588688 S    
P2    O7    1.505220 D    
C29   H40   1.084100 S    
C1    H3    1.107319 S    
P8    C28   1.848276 S    
N2    O27   1.301913 A    
C9    H20   1.104978 S    
C3    H7    1.110596 S    
Ba1   O20   2.912790 S    
N1    O26   1.297727 A    
C7    H16   1.111589 S    
C3    H28   1.110621 S    
P2    C35   1.862052 S    
O13   Ba2   2.924436 S    
C36   C37   1.433024 A    
C7    H15   1.109685 S    
P1    C18   1.868336 S    
C5    H12   1.110011 S    
O7    Ba1   2.881079 S    
C13   H29   1.110962 S    
N3    O30   1.299065 A    
C22   C30   1.411081 A    
C15   O24   1.406483 S    
C4    H9    1.089822 S    
O5    C6    1.391833 S    
C12   H25   1.111000 S    
C31   C39   1.395019 A    
C40   H45   1.077821 S    
N1    O25   1.300045 A    
P3    C34   1.833882 S    
C15   H34   1.108328 S    
P8    O23   1.546037 D    
C32   H47   1.082300 S    
C10   H21   1.104630 S    
P1    O1    1.513605 D    
C5    H11   1.107110 S    
C28   C29   1.392966 A    
C6    H14   1.102421 S    
C1    C10   1.516911 S    
O16   P7    1.767742 S    
O2    Ba1   2.923673 S    
C4    O15   1.403687 S    
P7    C38   1.857759 S    
C15   H33   1.113062 S    
C8    H17   1.087639 S    
O19   C13   1.407093 S    
P4    Ba2   3.395303 S    
P7    O22   1.750682 S    
C26   C27   1.400161 A    
P3    O9    1.540681 D    
N2    O28   1.294231 A    
C3    H6    1.110182 S    
P1    O2    1.558591 S    
C18   C19   1.393952 A    
O6    C10   1.404275 S    
P2    Ba1   3.422504 S    
