data_mof_unit_56897.cif
_audit_creation_date              2012-12-10T18:05:58-0500
_audit_creation_method            fapswitch 2.2
_symmetry_space_group_name_H-M    P1
_symmetry_Int_Tables_number       1
_space_group_crystal_system       triclinic
_cell_length_a                    12.636674
_cell_length_b                    13.059136
_cell_length_c                    14.992576
_cell_angle_alpha                 91.980083
_cell_angle_beta                  102.88109
_cell_angle_gamma                 82.365849
_cell_volume                      2390.4647042

loop_
_atom_site_label
_atom_site_type_symbol
_atom_type_description
_atom_site_fract_x
_atom_site_fract_y
_atom_site_fract_z
_atom_type_partial_charge
C1    C     C_R   0.438806 0.691723 0.488911 0.955596
C2    C     C_R   0.535862 0.579507 0.822465 0.681632
C3    C     C_R   0.504590 0.494648 0.769124 -0.304636
C4    C     C_R   0.501662 0.498283 0.672864 0.926901
C5    C     C_R   0.475455 0.408134 0.806773 -0.130670
C6    C     C_R   0.672890 0.081912 0.664452 -0.094340
C7    C     C_R   0.598882 0.201381 0.539303 -0.271999
C8    C     C_R   0.307261 0.838358 0.407205 -0.266370
C9    C     C_R   0.279481 0.944847 0.393056 0.600629
C10   C     C_R   0.349421 0.013138 0.438148 0.601745
C11   C     C_R   0.447073 0.976049 0.500292 -0.073695
C12   C     C_R   0.472722 0.414736 0.086887 -0.084295
C13   C     C_R   0.460720 0.873980 0.530857 -0.138657
C14   C     C_R   0.529466 0.038628 0.536279 -0.013130
C15   C     C_R   0.602037 0.012188 0.621333 -0.163097
C16   C     C_R   0.561071 0.308612 0.512916 0.978674
C17   C     C_R   0.602088 0.916690 0.660940 0.761128
C18   C     C_R   0.534930 0.846811 0.614206 -0.108721
C19   C     C_R   0.545886 0.124078 0.488534 -0.109074
C20   C     C_R   0.666708 0.178815 0.625954 0.626257
C21   C     C_R   0.399301 0.802251 0.477294 -0.195607
C22   C     C_R   0.091507 0.333724 0.379474 -0.179273
C23   C     C_R   0.572323 0.668379 0.063445 -0.202847
C24   C     C_R   0.803697 0.622425 0.616810 0.670303
C25   C     C_R   0.912725 0.629040 0.657945 0.494162
C26   C     C_R   0.996207 0.567685 0.625506 -0.250983
C27   C     C_R   0.968119 0.511451 0.542115 -0.082238
C28   C     C_R   0.498732 0.500862 0.327224 1.063152
C29   C     C_R   0.856111 0.498224 0.510626 0.067755
C30   C     C_R   0.045262 0.463939 0.491205 -0.031511
C31   C     C_R   0.012541 0.388235 0.422992 -0.040202
C32   C     C_R   0.900748 0.373059 0.397081 -0.036679
C33   C     C_R   0.826601 0.425229 0.443363 -0.110211
C34   C     C_R   0.570221 0.666197 0.969900 0.659280
C35   C     C_R   0.151279 0.493883 0.500377 0.747362
C36   C     C_R   0.192190 0.370822 0.388768 -0.100206
C37   C     C_R   0.472607 0.415744 0.179020 0.512817
C38   C     C_R   0.497493 0.502172 0.231542 -0.294076
C39   C     C_R   0.527766 0.587564 0.194783 0.574855
C40   C     C_R   0.536179 0.586029 0.102863 -0.140907
C41   C     C_R   0.504725 0.499404 0.048003 -0.037397
C42   C     C_2   0.538578 0.120255 0.387447 1.095796
C43   C     C_2   0.241800 0.767902 0.345132 1.085296
C44   C     C_2   0.254764 0.343548 0.318133 1.124680
C45   C     C_R   0.537044 0.581437 0.915464 -0.140039
C46   C     C_2   0.852544 0.318985 0.311927 0.912482
C47   C     C_2   0.076421 0.231311 0.334779 1.059944
C48   C     C_2   0.104706 0.547096 0.689820 1.135162
C49   C     C_2   0.618236 0.755691 0.117552 1.147955
C50   C     C_2   0.457073 0.313960 0.749994 1.059643
C51   C     C_R   0.505132 0.496830 0.954498 -0.095663
C52   C     C_R   0.473373 0.409635 0.900226 -0.064843
C53   C     C_R   0.439458 0.327410 0.941195 0.661439
C54   C     C_R   0.440752 0.330027 0.033521 -0.172911
F1    F     F_    0.451527 0.331294 0.218447 -0.655169
F2    F     F_    0.563526 0.660788 0.782339 -0.565870
F3    F     F_    0.401617 0.244879 0.892969 -0.601727
F4    F     F_    0.722162 0.251890 0.675102 -0.618082
F5    F     F_    0.670050 0.889093 0.742556 -0.532215
F6    F     F_    0.319758 0.115680 0.423517 -0.633038
F7    F     F_    0.188982 0.982081 0.329917 -0.583035
F8    F     F_    0.543728 0.672364 0.248816 -0.616515
F9    F     F_    0.180323 0.580157 0.547027 -0.647294
F10   F     F_    0.724499 0.674097 0.654647 -0.567300
F11   F     F_    0.935750 0.686690 0.735329 -0.526684
F12   F     F_    0.604854 0.745972 0.932988 -0.523357
H1    H     H_    0.727179 0.064575 0.730484 0.239496
H2    H     H_    0.222803 0.602636 0.785474 0.342881
H3    H     H_    0.614381 0.910092 0.132777 0.369348
H4    H     H_    0.358295 0.242976 0.649329 0.356834
H5    H     H_    0.538062 0.772780 0.645147 0.252317
H6    H     H_    0.744139 0.409320 0.423378 0.209739
H7    H     H_    0.414539 0.265629 0.062864 0.236121
H8    H     H_    0.581087 0.179416 0.280139 0.402662
H9    H     H_    0.240619 0.646957 0.257633 0.358768
H10   H     H_    0.254139 0.353625 0.183661 0.385843
H11   H     H_    0.837327 0.302216 0.175583 0.368907
H12   H     H_    0.081190 0.139350 0.224351 0.402618
N1    N     N_R   0.222190 0.444670 0.452360 -0.195166
N2    N     N_R   0.776970 0.554790 0.547140 -0.214482
O1    O     O_R   0.366740 0.627160 0.477250 -0.579828
O2    O     O_R   0.578689 0.196646 0.346176 -0.735028
O3    O     O_2   0.141975 0.780456 0.332789 -0.514598
O4    O     O_R   0.293963 0.689569 0.298240 -0.781868
O5    O     O_2   0.335887 0.279515 0.333027 -0.487049
O6    O     O_R   0.214162 0.386305 0.231043 -0.756499
O7    O     O_2   0.788831 0.256777 0.313871 -0.569158
O8    O     O_R   0.876284 0.342881 0.228892 -0.757605
O9    O     O_2   0.045427 0.164960 0.374850 -0.525395
O10   O     O_R   0.096876 0.210793 0.247585 -0.723240
O11   O     O_2   0.155009 0.459969 0.695738 -0.579815
O12   O     O_R   0.544830 0.662520 0.507680 -0.568392
O13   O     O_R   0.148595 0.626596 0.744851 -0.674155
O14   O     O_2   0.695769 0.738900 0.182829 -0.534185
O15   O     O_R   0.575641 0.857203 0.091286 -0.696032
O16   O     O_2   0.525677 0.237648 0.763893 -0.573563
O17   O     O_R   0.360478 0.311367 0.683405 -0.711774
O18   O     O_R   0.410940 0.482340 0.616930 -0.570235
O19   O     O_R   0.589030 0.517700 0.647360 -0.530102
O20   O     O_R   0.455170 0.337480 0.492320 -0.590622
O21   O     O_R   0.633260 0.372840 0.522750 -0.605165
O22   O     O_R   0.410970 0.482300 0.352640 -0.601457
O23   O     O_R   0.589060 0.517660 0.383070 -0.631356
O24   O     O_2   0.507536 0.046229 0.341580 -0.582543
Zn1   Zn    Zn3+2 0.381090 0.476390 0.479680 1.083341
Zn2   Zn    Zn3+2 0.618910 0.523610 0.520320 1.080357

loop_
_geom_bond_atom_site_label_1
_geom_bond_atom_site_label_2
_ccdc_geom_bond_type
C1    C21   S    
C4    O18   A    
C27   C29   A    
C43   O3    D    
C42   O2    S    
C8    C43   S    
C34   F12   S    
C53   C54   A    
H12   O10   S    
C26   C27   A    
C37   C38   A    
O18   Zn1   S    
C13   C18   A    
C9    F7    S    
C30   C31   A    
C11   C14   A    
H9    O4    S    
C23   C49   S    
C45   C51   A    
C1    O1    A    
C23   C40   A    
N2    Zn2   S    
O21   Zn2   S    
N1    Zn1   S    
O22   Zn1   S    
C12   C37   A    
C39   F8    S    
C29   C33   A    
C33   H6    S    
C6    C15   A    
C24   N2    A    
H11   O8    S    
C8    C9    A    
C48   O11   D    
C5    C52   A    
C49   O14   D    
C9    C10   A    
H4    O17   S    
C26   C48   S    
C22   C47   S    
C24   F10   S    
C27   C30   A    
C43   O4    S    
C47   O9    D    
H8    O2    S    
C44   O6    S    
C8    C21   A    
C46   O8    S    
C2    C45   A    
O1    Zn1   S    
C48   O13   S    
C51   C52   A    
C25   F11   S    
C24   C25   A    
C22   C31   A    
C39   C40   A    
C53   F3    S    
C16   O20   A    
H3    O15   S    
C25   C26   A    
C10   F6    S    
C12   C41   A    
C54   H7    S    
C31   C32   A    
C28   C38   S    
C23   C34   A    
C17   C18   A    
O20   Zn1   S    
C13   C21   A    
C34   C45   A    
C49   O15   S    
C17   F5    S    
C30   C35   A    
O12   Zn2   S    
C40   C41   A    
C1    O12   A    
C7    C19   A    
C47   O10   S    
C5    C50   S    
C36   C44   S    
C20   F4    S    
C44   O5    D    
H10   O6    S    
C6    C20   A    
C52   C53   A    
C46   O7    D    
C18   H5    S    
C15   C17   A    
O19   Zn2   S    
C7    C16   S    
C50   O17   S    
C32   C46   S    
C14   C19   A    
C3    C5    A    
C36   N1    A    
C42   O24   D    
C35   F9    S    
C19   C42   S    
C22   C36   A    
H2    O13   S    
C32   C33   A    
C2    C3    A    
C6    H1    S    
C11   C13   A    
C28   O23   A    
C50   O16   D    
C38   C39   A    
C29   N2    A    
C35   N1    A    
O23   Zn2   S    
C10   C11   A    
C37   F1    S    
C28   O22   A    
C16   O21   A    
C7    C20   A    
C4    O19   A    
C14   C15   A    
C2    F2    S    
C41   C51   A    
C12   C54   A    
C3    C4    S    
