data_mof_unit_46711.cif
_audit_creation_date              2012-12-10T19:07:35-0500
_audit_creation_method            fapswitch 2.2
_symmetry_space_group_name_H-M    P1
_symmetry_Int_Tables_number       1
_space_group_crystal_system       triclinic
_cell_length_a                    10.831941
_cell_length_b                    10.869128
_cell_length_c                    9.544222
_cell_angle_alpha                 91.268304
_cell_angle_beta                  90.415207
_cell_angle_gamma                 90.641757
_cell_volume                      1123.29974788

loop_
_atom_site_label
_atom_site_type_symbol
_atom_type_description
_atom_site_fract_x
_atom_site_fract_y
_atom_site_fract_z
_atom_type_partial_charge
C1    C     C_R   0.495360 0.262379 0.498143 0.833567
C2    C     C_R   0.937664 0.478968 0.624311 0.142830
C3    C     C_3   0.935350 0.562125 0.750776 -0.487626
C4    C     C_3   0.075147 0.558757 0.751379 -0.460683
C5    C     C_R   0.477615 0.067331 0.620540 0.051790
C6    C     C_R   0.479619 0.129296 0.494390 -0.117614
C7    C     C_R   0.461672 0.059764 0.368118 0.145059
C8    C     C_R   0.463610 0.930635 0.372841 -0.255658
C9    C     C_R   0.481294 0.870679 0.500726 -0.117693
C10   C     C_R   0.475927 0.941013 0.624489 0.075930
C11   C     C_3   0.551867 0.941141 0.755904 -0.526732
C12   C     C_R   0.262359 0.496614 0.499426 0.786370
C13   C     C_3   0.555267 0.080937 0.750160 -0.004315
C14   C     C_R   0.600303 0.542734 0.076017 0.264879
C15   C     C_R   0.406987 0.445355 0.072238 -0.072690
C16   C     C_R   0.407031 0.445263 0.923384 -0.087120
C17   C     C_R   0.600325 0.542869 0.928410 0.270317
C18   C     C_3   0.650207 0.670901 0.929277 -0.539807
C19   C     C_3   0.653204 0.669263 0.087605 -0.499538
C20   C     C_R   0.496689 0.737794 0.501042 0.813955
C21   C     C_R   0.737794 0.497684 0.500114 0.805815
C22   C     C_R   0.064819 0.477376 0.623790 0.116549
C23   C     C_R   0.129324 0.482709 0.498090 -0.093169
C24   C     C_R   0.063309 0.470813 0.371062 -0.225040
C25   C     C_R   0.934517 0.471739 0.371572 -0.219493
C26   C     C_R   0.870921 0.484743 0.499092 -0.097662
Cu1   Cu    Cu3+1 0.499990 0.499980 0.640670 0.948737
Cu2   Cu    Cu3+1 0.500010 0.500020 0.359330 0.945206
H1    H     H_    0.110511 0.467355 0.271417 0.157198
H2    H     H_    0.507217 0.128580 0.838171 0.162461
H3    H     H_    0.330727 0.402794 0.126139 0.129441
H4    H     H_    0.742815 0.678976 0.882618 0.193810
H5    H     H_    0.580784 0.733880 0.888254 0.219578
H6    H     H_    0.748315 0.670086 0.132191 0.194070
H7    H     H_    0.589367 0.736602 0.136498 0.215974
H8    H     H_    0.885625 0.468590 0.272127 0.162993
H9    H     H_    0.899114 0.654589 0.726474 0.188500
H10   H     H_    0.893674 0.516576 0.842542 0.198823
H11   H     H_    0.113993 0.509840 0.842463 0.188909
H12   H     H_    0.455818 0.877734 0.275669 0.156679
H13   H     H_    0.496417 0.910090 0.846183 0.175187
N1    N     N_R   0.500790 0.500930 0.147930 -0.183410
N2    N     N_R   0.500790 0.500890 0.852020 -0.182923
O1    O     O_R   0.500000 0.319640 0.618810 -0.569502
O2    O     O_R   0.500010 0.319680 0.381230 -0.557662
O3    O     O_R   0.319650 0.499970 0.618810 -0.589885
O4    O     O_R   0.319660 0.500010 0.381230 -0.595312
O5    O     O_R   0.499990 0.680320 0.618770 -0.577406
O6    O     O_R   0.500000 0.680360 0.381190 -0.589672
O7    O     O_R   0.680340 0.499990 0.618770 -0.571585
O8    O     O_R   0.680350 0.500030 0.381190 -0.587081
H14   H     H_    0.642880 0.896363 0.741369 0.196487
N3    N     N_3   0.678582 0.131702 0.723268 -0.559938
H15   H     H_    0.720433 0.082655 0.641137 0.225009
H16   H     H_    0.732492 0.119469 0.813075 0.220795
H17   H     H_    0.330926 0.402393 0.866152 0.134775
H18   H     H_    0.119137 0.649348 0.730155 0.201401
N4    N     N_3   0.447043 0.118904 0.235808 -0.560602
H19   H     H_    0.359494 0.158448 0.235051 0.207435
H20   H     H_    0.447925 0.054344 0.152940 0.199288

loop_
_geom_bond_atom_site_label_1
_geom_bond_atom_site_label_2
_ccdc_geom_bond_type
C4    H18   S    
Cu1   O5    S    
C23   C24   A    
C16   H17   S    
Cu2   O4    S    
C15   H3    S    
C6    C7    A    
C20   O6    A    
C4    C22   S    
Cu2   O6    S    
C1    O1    A    
C5    C13   S    
C14   C17   A    
Cu1   O7    S    
C14   N1    A    
C17   N2    A    
C17   C18   S    
N4    H19   S    
C5    C10   A    
C2    C26   A    
C19   H7    S    
C2    C22   A    
C11   C13   S    
C16   N2    A    
C1    O2    A    
C20   O5    A    
C12   O4    A    
C14   C19   S    
Cu1   O3    S    
Cu2   N1    S    
C21   O7    A    
Cu2   O8    S    
C21   C26   S    
C2    C3    S    
C13   N3    S    
N3    H16   S    
C5    C6    A    
C18   H5    S    
Cu2   O2    S    
C18   H4    S    
C10   C11   S    
C25   H8    S    
N4    H20   S    
C1    C6    S    
C15   N1    A    
C7    N4    S    
Cu1   N2    S    
C13   H2    S    
C21   O8    A    
C8    H12   S    
C24   C25   A    
C3    H9    S    
C12   O3    A    
C18   C19   S    
C9    C10   A    
C11   H13   S    
Cu1   Cu2   S    
C7    C8    A    
C24   H1    S    
C12   C23   S    
C11   H14   S    
C9    C20   S    
C25   C26   A    
N3    H15   S    
C4    H11   S    
Cu1   O1    S    
C22   C23   A    
C3    C4    S    
C15   C16   A    
C3    H10   S    
C8    C9    A    
C19   H6    S    
