data_mof_unit_42812.cif
_audit_creation_date              2012-12-10T18:07:04-0500
_audit_creation_method            fapswitch 2.2
_symmetry_space_group_name_H-M    P1
_symmetry_Int_Tables_number       1
_space_group_crystal_system       triclinic
_cell_length_a                    10.939498
_cell_length_b                    12.705236
_cell_length_c                    13.864431
_cell_angle_alpha                 98.66545
_cell_angle_beta                  89.850775
_cell_angle_gamma                 92.054594
_cell_volume                      1903.77286115

loop_
_atom_site_label
_atom_site_type_symbol
_atom_type_description
_atom_site_fract_x
_atom_site_fract_y
_atom_site_fract_z
_atom_type_partial_charge
C1    C     C_R   0.498689 0.483253 0.315691 0.846513
C2    C     C_3   0.877054 0.489936 0.498621 -0.033955
C3    C     C_3   0.925021 0.465652 0.602400 -0.076092
C4    C     C_3   0.931841 0.601152 0.482475 -0.432198
C5    C     C_1   0.511790 0.527608 0.787191 -0.188648
C6    C     C_2   0.533051 0.548753 0.977761 0.031123
C7    C     C_2   0.478085 0.473369 0.022901 -0.230825
C8    C     C_1   0.488676 0.472449 0.125702 -0.016496
C9    C     C_1   0.520449 0.537530 0.874061 -0.061738
C10   C     C_1   0.494650 0.475004 0.212358 -0.151059
C11   C     C_2   0.479759 0.027115 0.459624 -0.104735
C12   C     C_R   0.259616 0.502157 0.507375 0.787647
C13   C     C_2   0.525177 0.971873 0.528876 -0.123340
C14   C     C_1   0.523149 0.854640 0.519843 0.140035
C15   C     C_1   0.479930 0.145060 0.475479 0.133040
C16   C     C_R   0.504721 0.516884 0.684050 0.825456
C17   C     C_R   0.740198 0.497285 0.498609 0.790965
C18   C     C_3   0.069169 0.403632 0.430867 -0.214134
C19   C     C_3   0.923309 0.397462 0.414303 0.100039
C20   C     C_3   0.067403 0.493331 0.619868 -0.027206
C21   C     C_3   0.071161 0.606197 0.472956 -0.136504
C22   C     C_3   0.121550 0.503149 0.510393 -0.080520
Cu1   Cu    Cu3+1 0.491980 0.395330 0.493960 0.953987
Cu2   Cu    Cu3+1 0.508020 0.604670 0.506040 0.949364
H1    H     H_    0.081107 0.338251 0.470178 0.163476
H2    H     H_    0.901649 0.662687 0.541300 0.195686
H3    H     H_    0.423664 0.408976 0.981136 0.149721
H4    H     H_    0.925176 0.378517 0.593397 0.188488
H5    H     H_    0.090724 0.592867 0.394996 0.136948
H6    H     H_    0.894337 0.629283 0.418159 0.153568
N1    N     N_1   0.479930 0.238040 0.484880 -0.172837
N2    N     N_1   0.520070 0.761960 0.515120 -0.166898
O1    O     O_R   0.492240 0.399110 0.356330 -0.559108
O2    O     O_R   0.505790 0.575900 0.366540 -0.580084
O3    O     O_R   0.310920 0.411610 0.494880 -0.589596
O4    O     O_R   0.324460 0.588390 0.505090 -0.592484
O5    O     O_R   0.494210 0.424100 0.633460 -0.560636
O6    O     O_R   0.507760 0.600890 0.643670 -0.580755
O7    O     O_R   0.675540 0.411610 0.494910 -0.599130
O8    O     O_R   0.689080 0.588390 0.505120 -0.591096
C23   C     C_R   0.097961 0.600126 0.690359 0.103373
C24   C     C_R   0.213488 0.612406 0.737744 -0.168939
C25   C     C_R   0.244609 0.700950 0.807009 -0.148479
C26   C     C_R   0.161418 0.780864 0.831151 -0.141434
C27   C     C_R   0.046876 0.771785 0.786638 -0.141440
C28   C     C_R   0.015068 0.682955 0.717710 -0.147701
H7    H     H_    0.279405 0.551790 0.721249 0.132751
H8    H     H_    0.333564 0.707560 0.841805 0.147094
H9    H     H_    0.185456 0.849585 0.884678 0.119710
H10   H     H_    0.981604 0.833419 0.806286 0.132309
H11   H     H_    0.923602 0.680307 0.690148 0.126234
C29   C     C_3   0.836835 0.490662 0.692499 -0.432237
C30   C     C_3   0.774437 0.390287 0.722083 -0.849967
H12   H     H_    0.715040 0.348799 0.662581 0.287040
H13   H     H_    0.844318 0.334801 0.739582 0.249476
H14   H     H_    0.718551 0.411585 0.788451 0.245352
H15   H     H_    0.884569 0.529750 0.758588 0.207705
H16   H     H_    0.766142 0.547161 0.679586 0.208069
C31   C     C_R   0.611829 0.638674 0.027546 0.124650
C32   C     C_R   0.726401 0.661923 0.987590 -0.165766
C33   C     C_R   0.802849 0.744250 0.034734 -0.143437
C34   C     C_R   0.765816 0.804337 0.121977 -0.134772
C35   C     C_R   0.651672 0.783027 0.161578 -0.134473
C36   C     C_R   0.574111 0.701747 0.114001 -0.151260
H17   H     H_    0.757677 0.615029 0.920906 0.127143
H18   H     H_    0.891259 0.760869 0.003969 0.131722
H19   H     H_    0.825533 0.867428 0.158889 0.123611
H20   H     H_    0.623431 0.829323 0.229382 0.158146
H21   H     H_    0.485365 0.687523 0.145118 0.149027
C37   C     C_R   0.586956 0.030071 0.616762 0.137014
C38   C     C_R   0.714411 0.047637 0.616802 -0.137725
C39   C     C_R   0.773597 0.103073 0.699395 -0.151216
C40   C     C_R   0.705864 0.141305 0.782197 -0.118250
C41   C     C_R   0.578896 0.124228 0.782444 -0.120582
C42   C     C_R   0.519510 0.068340 0.700117 -0.141230
H22   H     H_    0.767649 0.018580 0.552928 0.125386
H23   H     H_    0.871860 0.116739 0.699083 0.137365
H24   H     H_    0.751714 0.184528 0.845995 0.123018
H25   H     H_    0.526525 0.154109 0.846479 0.119416
H26   H     H_    0.421487 0.054819 0.701452 0.100058
C43   C     C_R   0.435794 0.973060 0.361816 0.109674
C44   C     C_R   0.470742 0.015989 0.277473 -0.183942
C45   C     C_R   0.426647 0.970011 0.185555 -0.154525
C46   C     C_R   0.346987 0.880778 0.176468 -0.126851
C47   C     C_R   0.312758 0.836417 0.259099 -0.154799
C48   C     C_R   0.356924 0.881978 0.351028 -0.111116
H27   H     H_    0.532269 0.085338 0.282624 0.133762
H28   H     H_    0.454067 0.003885 0.121379 0.131581
H29   H     H_    0.312789 0.845366 0.105310 0.123848
H30   H     H_    0.251634 0.766737 0.252046 0.128719
H31   H     H_    0.327563 0.846480 0.413293 0.160844
C49   C     C_R   0.147567 0.374514 0.337332 0.121796
C50   C     C_R   0.210526 0.278020 0.324924 -0.099327
C51   C     C_R   0.269198 0.241340 0.237460 -0.133214
C52   C     C_R   0.267628 0.299893 0.160432 -0.130659
C53   C     C_R   0.210610 0.397225 0.171811 -0.142591
C54   C     C_R   0.153321 0.435573 0.259635 -0.142328
H32   H     H_    0.212045 0.228966 0.382298 0.115319
H33   H     H_    0.314179 0.166385 0.228867 0.141132
H34   H     H_    0.311369 0.270244 0.092092 0.119537
H35   H     H_    0.208747 0.442421 0.111602 0.132161
H36   H     H_    0.102911 0.506619 0.259712 0.121587
C55   C     C_R   0.885892 0.408740 0.306249 0.112659
C56   C     C_R   0.915624 0.327227 0.228256 -0.106300
C57   C     C_R   0.890427 0.334950 0.130882 -0.159017
C58   C     C_R   0.830885 0.422477 0.107713 -0.107283
C59   C     C_R   0.791363 0.498945 0.182376 -0.131344
C60   C     C_R   0.812539 0.489525 0.279786 -0.212810
H37   H     H_    0.963620 0.258407 0.241036 0.146944
H38   H     H_    0.918568 0.273301 0.073362 0.123036
H39   H     H_    0.812230 0.429534 0.032342 0.127568
H40   H     H_    0.740519 0.564699 0.165507 0.166311
H41   H     H_    0.765159 0.544682 0.331002 0.132962
C61   C     C_3   0.861984 0.282432 0.428714 -0.363339
C62   C     C_3   0.940555 0.183489 0.422049 -0.963211
H42   H     H_    0.001631 0.173654 0.358413 0.255522
H43   H     H_    0.994762 0.184590 0.489821 0.244312
H44   H     H_    0.879135 0.111195 0.415487 0.246079
H45   H     H_    0.813667 0.282202 0.498536 0.224762
H46   H     H_    0.785467 0.260908 0.375785 0.218150
C63   C     C_R   0.115887 0.402095 0.676946 0.046120
C64   C     C_R   0.091598 0.409794 0.779090 -0.114346
C65   C     C_R   0.133019 0.336078 0.835564 -0.161762
C66   C     C_R   0.199708 0.250645 0.792898 -0.123652
C67   C     C_R   0.222952 0.238093 0.693482 -0.120488
C68   C     C_R   0.180257 0.310619 0.636113 -0.142554
H47   H     H_    0.045014 0.476177 0.818380 0.134653
H48   H     H_    0.114518 0.346344 0.913140 0.122370
H49   H     H_    0.233076 0.194001 0.836713 0.112161
H50   H     H_    0.274398 0.171292 0.660044 0.113014
H51   H     H_    0.200319 0.288975 0.561037 0.141790
C69   C     C_R   0.114374 0.725495 0.496484 0.121828
C70   C     C_R   0.062336 0.796253 0.439153 -0.195524
C71   C     C_R   0.080674 0.906516 0.461615 -0.134950
C72   C     C_R   0.154419 0.949638 0.540213 -0.128261
C73   C     C_R   0.213197 0.882188 0.594035 -0.174986
C74   C     C_R   0.195703 0.771624 0.571075 -0.056330
H52   H     H_    0.005003 0.766261 0.376880 0.121551
H53   H     H_    0.037885 0.958415 0.417619 0.135853
H54   H     H_    0.168508 0.034972 0.557358 0.121790
H55   H     H_    0.273552 0.915301 0.653382 0.128154
H56   H     H_    0.247601 0.725447 0.612586 0.175214

loop_
_geom_bond_atom_site_label_1
_geom_bond_atom_site_label_2
_ccdc_geom_bond_type
C26   H9    S    
C31   C32   A    
C57   H38   S    
C50   C51   A    
C23   C24   A    
C52   C53   A    
C74   H56   S    
C4    H6    S    
C6    C9    S    
C61   C62   S    
C1    O1    A    
C72   C73   A    
C47   C48   A    
C11   C43   S    
C31   C36   A    
C73   H55   S    
C34   H19   S    
C58   C59   A    
C27   H10   S    
C3    H4    S    
C48   H31   S    
C17   O7    A    
C38   H22   S    
C3    C29   S    
C13   C37   S    
C62   H42   S    
C12   C22   S    
C7    H3    S    
C18   C19   S    
C40   C41   A    
C64   H47   S    
C5    C16   S    
C19   C55   S    
C67   H50   S    
C69   C70   A    
C62   H43   S    
C49   C54   A    
Cu2   O6    S    
C23   C28   A    
C55   C60   A    
C12   O4    A    
C25   H8    S    
C54   H36   S    
C16   O5    A    
C45   H28   S    
C70   H52   S    
C21   C22   S    
C2    C17   S    
C51   C52   A    
C18   H1    S    
C11   C15   S    
C33   H18   S    
C56   C57   A    
C1    O2    A    
C20   C23   S    
C58   H39   S    
C30   H13   S    
C72   H54   S    
C41   C42   A    
C65   C66   A    
C53   H35   S    
C46   C47   A    
C71   H53   S    
C52   H34   S    
C73   C74   A    
C51   H33   S    
C19   C61   S    
Cu1   O1    S    
C69   C74   A    
C30   H12   S    
C21   H5    S    
C28   H11   S    
C43   C44   A    
C32   C33   A    
C17   O8    A    
Cu1   N1    S    
C60   H41   S    
C2    C4    S    
C25   C26   A    
Cu2   N2    S    
C21   C69   S    
C5    C9    T    
C39   H23   S    
C45   C46   A    
C40   H24   S    
C62   H44   S    
C53   C54   A    
C34   C35   A    
C63   C64   A    
C3    C20   S    
C59   H40   S    
Cu2   O4    S    
C36   H21   S    
C12   O3    A    
C20   C63   S    
C37   C38   A    
C29   H16   S    
C20   C22   S    
C32   H17   S    
Cu1   O3    S    
C41   H25   S    
C67   C68   A    
C24   C25   A    
C59   C60   A    
C37   C42   A    
C26   C27   A    
C42   H26   S    
C30   H14   S    
C35   H20   S    
C2    C19   S    
C18   C22   S    
C6    C31   S    
C1    C10   S    
C43   C48   A    
C14   N2    T    
C39   C40   A    
C4    H2    S    
C47   H30   S    
C15   N1    T    
C6    C7    D    
C57   C58   A    
C71   C72   A    
C18   C49   S    
C2    C3    S    
C63   C68   A    
Cu1   O5    S    
C4    C21   S    
C11   C13   D    
C65   H48   S    
C70   C71   A    
C61   H45   S    
C68   H51   S    
Cu1   O7    S    
C49   C50   A    
Cu2   O8    S    
C66   H49   S    
C24   H7    S    
C33   C34   A    
Cu2   O2    S    
C7    C8    S    
C29   H15   S    
Cu1   Cu2   S    
C35   C36   A    
C27   C28   A    
C38   C39   A    
C8    C10   T    
C44   C45   A    
C46   H29   S    
C16   O6    A    
C55   C56   A    
C56   H37   S    
C64   C65   A    
C13   C14   S    
C50   H32   S    
C61   H46   S    
C44   H27   S    
C29   C30   S    
C66   C67   A    
