data_mof_unit_46242.cif
_audit_creation_date              2012-12-10T16:57:04-0500
_audit_creation_method            fapswitch 2.2
_symmetry_space_group_name_H-M    P1
_symmetry_Int_Tables_number       1
_space_group_crystal_system       triclinic
_cell_length_a                    7.766385
_cell_length_b                    8.573483
_cell_length_c                    16.790139
_cell_angle_alpha                 91.836771
_cell_angle_beta                  80.958491
_cell_angle_gamma                 93.783474
_cell_volume                      1101.40681799

loop_
_atom_site_label
_atom_site_type_symbol
_atom_type_description
_atom_site_fract_x
_atom_site_fract_y
_atom_site_fract_z
_atom_type_partial_charge
C1    C     C_R   0.546227 0.794806 0.497941 0.972068
C2    C     C_R   0.453774 0.205194 0.502057 0.972340
C3    C     C_2   0.570578 0.958300 0.496735 -0.373683
C4    C     C_2   0.429423 0.041699 0.503257 -0.373851
C5    C     C_R   0.477019 0.496411 0.653869 0.868298
C6    C     C_R   0.523023 0.503831 0.346147 0.868142
C7    C     C_R   0.461699 0.469981 0.739517 -0.036215
C8    C     C_R   0.538622 0.531868 0.260646 -0.035818
C9    C     C_R   0.594073 0.395577 0.768648 -0.184582
C10   C     C_R   0.407071 0.608228 0.231944 -0.184578
C11   C     C_R   0.582570 0.372293 0.850458 -0.113074
C12   C     C_R   0.418964 0.633459 0.150291 -0.113387
C13   C     C_R   0.439987 0.425098 0.903135 0.172748
C14   C     C_R   0.561085 0.580613 0.097332 0.172487
C15   C     C_R   0.302436 0.490705 0.874358 -0.117797
C16   C     C_R   0.698003 0.513222 0.125754 -0.117992
C17   C     C_R   0.312821 0.512579 0.792221 -0.180256
C18   C     C_R   0.687250 0.489418 0.207742 -0.179792
C19   C     C_2   0.452831 0.441401 0.987568 0.046723
C20   C     C_2   0.547527 0.564939 0.012947 0.046582
H1    H     H_    0.707824 0.358149 0.728532 0.162721
H2    H     H_    0.293624 0.645684 0.272262 0.162725
H3    H     H_    0.791204 0.432732 0.229275 0.165863
H4    H     H_    0.208294 0.567860 0.770388 0.165765
H5    H     H_    0.193026 0.533013 0.915701 0.157169
H6    H     H_    0.807001 0.470804 0.084187 0.157238
H7    H     H_    0.312370 0.684288 0.127767 0.157848
H8    H     H_    0.689594 0.322763 0.873263 0.157524
H9    H     H_    0.703818 0.009494 0.490505 0.180864
H10   H     H_    0.296183 0.990506 0.509486 0.180853
H11   H     H_    0.022903 0.380827 0.439628 0.195071
H12   H     H_    0.977097 0.619173 0.560372 0.194969
N1    N     N_2   0.953500 0.457650 0.478520 -0.175099
N2    N     N_2   0.046500 0.542350 0.521480 -0.175184
O1    O     O_R   0.388470 0.738640 0.505270 -0.612509
O2    O     O_R   0.611530 0.261360 0.494730 -0.612379
O3    O     O_R   0.679650 0.711510 0.491500 -0.626513
O4    O     O_R   0.320350 0.288490 0.508500 -0.626456
O5    O     O_R   0.337210 0.515200 0.623500 -0.618193
O6    O     O_R   0.662790 0.484800 0.376500 -0.618107
O7    O     O_R   0.628380 0.488060 0.609730 -0.627477
O8    O     O_R   0.371620 0.511940 0.390270 -0.627409
Zn1   Zn    Zn3+2 0.305580 0.518120 0.509190 0.948748
Zn2   Zn    Zn3+2 0.694420 0.481880 0.490810 0.948857
I1    I     I_    0.678541 0.743720 0.936555 -0.362414
I2    I     I_    0.321594 0.262687 0.063967 -0.362838

loop_
_geom_bond_atom_site_label_1
_geom_bond_atom_site_label_2
_ccdc_geom_bond_type
C19   C20   D    
C2    C4    S    
H11   N1    S    
C15   C17   A    
C14   C20   S    
C11   C13   A    
C2    O4    A    
C20   I1    S    
C1    O3    A    
C9    H1    S    
O3    Zn2   S    
C5    O5    A    
N1    N2    D    
C19   I2    S    
C4    H10   S    
O4    Zn1   S    
C10   H2    S    
C9    C11   A    
C3    H9    S    
C10   C12   A    
C11   H8    S    
C6    C8    S    
C8    C10   A    
C12   C14   A    
C6    O6    A    
C13   C15   A    
C16   H6    S    
O7    Zn2   S    
C14   C16   A    
C15   H5    S    
C17   H4    S    
O2    Zn2   S    
O8    Zn1   S    
C13   C19   S    
C12   H7    S    
C3    C4    D    
C7    C9    A    
O6    Zn2   S    
O1    Zn1   S    
C1    O1    A    
C16   C18   A    
C6    O8    A    
C2    O2    A    
C5    C7    S    
C5    O7    A    
O5    Zn1   S    
C1    C3    S    
N1    Zn2   S    
C8    C18   A    
N2    Zn1   S    
C18   H3    S    
C7    C17   A    
H12   N2    S    
