data_mof_unit_48450.cif
_audit_creation_date              2012-12-10T18:28:02-0500
_audit_creation_method            fapswitch 2.2
_symmetry_space_group_name_H-M    P1
_symmetry_Int_Tables_number       1
_space_group_crystal_system       triclinic
_cell_length_a                    18.295174
_cell_length_b                    18.222034
_cell_length_c                    18.218785
_cell_angle_alpha                 90.567036
_cell_angle_beta                  119.983284
_cell_angle_gamma                 119.992123
_cell_volume                      4274.6420997

loop_
_atom_site_label
_atom_site_type_symbol
_atom_type_description
_atom_site_fract_x
_atom_site_fract_y
_atom_site_fract_z
_atom_type_partial_charge
C1    C     C_R   0.782365 0.641578 0.641266 0.860192
C2    C     C_3   0.063431 0.245887 0.353911 0.307252
C3    C     C_R   0.224118 0.183654 0.858359 -0.019450
C4    C     C_R   0.241713 0.120868 0.889964 -0.105209
C5    C     C_R   0.314949 0.143107 0.981729 -0.076166
C6    C     C_R   0.696573 0.341777 0.280093 0.045763
C7    C     C_R   0.714475 0.426991 0.277914 -0.262713
C8    C     C_R   0.804543 0.498313 0.289961 -0.081791
C9    C     C_R   0.882012 0.488642 0.308816 -0.095556
C10   C     C_R   0.867487 0.406650 0.312362 -0.189794
C11   C     C_R   0.773994 0.332675 0.293783 0.012369
C12   C     C_R   0.680001 0.832615 0.234034 0.172520
C13   C     C_3   0.102274 0.299211 0.300720 -0.009180
C14   C     C_R   0.659628 0.755558 0.185894 -0.164872
C15   C     C_R   0.716890 0.763850 0.152974 -0.140049
C16   C     C_R   0.798063 0.848850 0.169751 -0.121502
C17   C     C_R   0.823575 0.925567 0.221245 -0.125430
C18   C     C_R   0.766270 0.917692 0.254140 -0.090832
C19   C     C_R   0.522267 0.913316 0.322005 0.146010
C20   C     C_R   0.462441 0.947158 0.302154 -0.143213
C21   C     C_R   0.496844 0.021151 0.366137 -0.075389
C22   C     C_R   0.593221 0.065487 0.449320 -0.040135
C23   C     C_R   0.654648 0.034554 0.470004 -0.200967
C24   C     C_R   0.217655 0.358313 0.357949 0.831104
C25   C     C_R   0.619917 0.959384 0.407460 -0.201257
C26   C     C_R   0.314110 0.559319 0.164517 0.109155
C27   C     C_R   0.275908 0.469160 0.126968 -0.130199
C28   C     C_R   0.172530 0.397942 0.087382 -0.071833
C29   C     C_R   0.105460 0.414062 0.086781 -0.049801
C30   C     C_R   0.141165 0.501711 0.124297 -0.157320
C31   C     C_R   0.243822 0.573637 0.161905 -0.163918
C32   C     C_R   0.326487 0.661663 0.047651 0.084855
C33   C     C_R   0.250534 0.673926 0.032731 -0.109301
C34   C     C_R   0.147947 0.615660 0.956309 -0.156867
C35   C     C_3   0.898239 0.198984 0.200194 0.030671
C36   C     C_R   0.121431 0.551075 0.888707 -0.107877
C37   C     C_R   0.197135 0.542771 0.898469 -0.143684
C38   C     C_R   0.298057 0.596246 0.977593 -0.131821
C39   C     C_3   0.937421 0.168142 0.156489 -0.475538
C40   C     C_3   0.942636 0.191505 0.297252 -0.204070
C41   C     C_3   0.579150 0.358484 0.798524 -0.424903
C42   C     C_3   0.579875 0.301082 0.859753 -0.392958
C43   C     C_3   0.381561 0.238160 0.679826 -0.054153
C44   C     C_3   0.526963 0.238957 0.679798 -0.463440
C45   C     C_3   0.587010 0.788027 0.835069 -0.144374
C46   C     C_3   0.493340 0.297595 0.696124 0.056652
C47   C     C_3   0.499607 0.199298 0.801727 0.017633
C48   C     C_3   0.390071 0.179813 0.744181 0.358319
C49   C     C_R   0.499692 0.640452 0.358604 0.816168
C50   C     C_3   0.521854 0.175581 0.735723 -0.217299
C51   C     C_3   0.940495 0.787113 0.765362 -0.346628
C52   C     C_3   0.060405 0.846119 0.827272 -0.456682
C53   C     C_3   0.940979 0.648484 0.755193 0.510602
C54   C     C_3   0.938781 0.729087 0.638858 0.305950
C55   C     C_3   0.897918 0.699226 0.698458 -0.158085
C56   C     C_3   0.583501 0.800020 0.749736 -0.044973
C57   C     C_3   0.101879 0.803202 0.799299 -0.137950
C58   C     C_3   0.061613 0.709864 0.810778 -0.555908
C59   C     C_3   0.058465 0.790818 0.698065 1.059091
C60   C     C_3   0.460937 0.319362 0.205870 -0.577141
C61   C     C_R   0.498876 0.357960 0.640807 0.786027
C62   C     C_3   0.466279 0.265991 0.143125 -0.206324
C63   C     C_3   0.598515 0.313989 0.348608 0.392860
C64   C     C_3   0.408417 0.198149 0.268959 -0.391438
C65   C     C_3   0.491908 0.299095 0.295897 -0.085205
C66   C     C_3   0.494609 0.203106 0.190634 -0.123665
C67   C     C_3   0.498388 0.815921 0.716711 -0.295618
C68   C     C_3   0.606744 0.267475 0.284364 0.398909
C69   C     C_3   0.412019 0.142068 0.209473 0.482076
C70   C     C_3   0.613142 0.764515 0.327958 -0.374514
C71   C     C_3   0.617887 0.827506 0.270849 -0.185190
C72   C     C_3   0.425894 0.637805 0.198275 0.490004
C73   C     C_R   0.496438 0.357961 0.355916 0.873432
C74   C     C_3   0.470387 0.756903 0.321340 -0.534177
C75   C     C_3   0.500081 0.697704 0.301100 0.048530
C76   C     C_3   0.504749 0.804281 0.202731 -0.011935
C77   C     C_3   0.430538 0.701554 0.140303 -0.259435
C78   C     C_3   0.415170 0.713441 0.666856 0.709572
C79   C     C_3   0.468915 0.817361 0.262699 -0.148862
C80   C     C_R   0.499932 0.141447 0.859003 0.862155
C81   C     C_R   0.503392 0.862029 0.144465 0.778929
C82   C     C_R   0.782458 0.141425 0.141074 0.798196
C83   C     C_R   0.217538 0.860557 0.858304 0.866030
C84   C     C_R   0.497631 0.142550 0.138344 0.845079
C85   C     C_R   0.499314 0.640658 0.641702 0.809046
C86   C     C_R   0.500316 0.858992 0.858213 0.808837
C87   C     C_3   0.501952 0.685080 0.783293 -0.258341
C88   C     C_3   0.415768 0.700042 0.750376 -0.245303
C89   C     C_3   0.499824 0.698322 0.699120 -0.091070
C90   C     C_3   0.500519 0.802040 0.800822 -0.029878
C91   C     C_R   0.902862 0.210315 0.346595 0.102700
C92   C     C_R   0.963048 0.290988 0.418963 -0.158455
C93   C     C_R   0.928963 0.298276 0.470542 -0.170939
C94   C     C_R   0.832833 0.227154 0.448691 -0.041436
C95   C     C_R   0.769718 0.149640 0.373902 -0.081550
C96   C     C_R   0.804550 0.140832 0.324032 -0.237093
C97   C     C_R   0.359548 0.306335 0.699417 0.129615
C98   C     C_R   0.390415 0.347138 0.785678 -0.069908
C99   C     C_R   0.371430 0.409689 0.799204 -0.202170
C100  C     C_3   0.060399 0.357897 0.273155 -0.459935
C101  C     C_R   0.322171 0.434002 0.727831 -0.116445
C102  C     C_R   0.293133 0.396949 0.642818 -0.142176
C103  C     C_R   0.312097 0.334668 0.628797 -0.169971
C104  C     C_R   0.615641 0.171285 0.781040 0.155382
C105  C     C_R   0.718791 0.249636 0.831222 -0.148851
C106  C     C_R   0.802240 0.242977 0.871366 -0.160462
C107  C     C_R   0.784619 0.158519 0.863739 -0.113554
C108  C     C_R   0.683200 0.080316 0.814823 -0.149477
C109  C     C_R   0.599221 0.086437 0.773197 -0.172210
C110  C     C_R   0.281477 0.165225 0.584801 0.016646
C111  C     C_3   0.941964 0.298368 0.207245 -0.412758
C112  C     C_R   0.185832 0.119038 0.575271 -0.103685
C113  C     C_R   0.092594 0.049483 0.495685 -0.054978
C114  C     C_R   0.091607 0.023402 0.423054 -0.032163
C115  C     C_R   0.183449 0.067846 0.429442 -0.079968
C116  C     C_R   0.277160 0.137642 0.508924 -0.093471
C117  C     C_R   0.673686 0.853226 0.743484 0.125825
C118  C     C_R   0.776480 0.897803 0.820170 -0.138203
C119  C     C_R   0.859057 0.945028 0.812449 -0.152711
C120  C     C_R   0.839627 0.948217 0.728378 -0.117949
C121  C     C_R   0.737563 0.904338 0.651848 -0.135581
C122  C     C_3   0.057496 0.228991 0.214152 0.488290
C123  C     C_R   0.654846 0.857093 0.659296 -0.169756
C124  C     C_R   0.892651 0.553202 0.698677 0.040203
C125  C     C_R   0.815830 0.476257 0.699725 -0.103878
C126  C     C_R   0.775124 0.389269 0.652850 -0.172930
C127  C     C_R   0.809214 0.377120 0.603540 -0.012074
C128  C     C_R   0.883003 0.451831 0.599694 -0.108533
C129  C     C_R   0.924639 0.539028 0.646885 -0.267758
C130  C     C_R   0.374865 0.230589 0.043565 0.213387
C131  C     C_R   0.357306 0.293774 0.009169 -0.200536
C132  C     C_R   0.281512 0.269979 0.918121 -0.159717
F1    F     F_    0.090631 0.271866 0.164148 -0.719273
F2    F     F_    0.634068 0.212099 0.322984 -0.688222
F3    F     F_    0.469949 0.597573 0.189462 -0.743870
F4    F     F_    0.326366 0.673956 0.579595 -0.658166
F5    F     F_    0.091072 0.186382 0.371289 -0.695329
F6    F     F_    0.358179 0.185569 0.797331 -0.710876
F7    F     F_    0.917831 0.639299 0.818110 -0.674925
F8    F     F_    0.900693 0.774287 0.589650 -0.616592
F9    F     F_    0.093212 0.874526 0.687332 -0.615112
F10   F     F_    0.093729 0.752933 0.669934 -0.693602
F11   F     F_    0.313326 0.084340 0.130037 -0.680315
F12   F     F_    0.610113 0.279188 0.418058 -0.669841
H1    H     H_    0.346170 0.659767 0.750673 0.147933
H2    H     H_    0.657185 0.398838 0.811721 0.188353
H3    H     H_    0.042115 0.507054 0.829184 0.151244
H4    H     H_    0.176749 0.492383 0.846295 0.124074
H5    H     H_    0.353086 0.583538 0.985740 0.131602
H6    H     H_    0.659000 0.317909 0.905865 0.183570
H7    H     H_    0.562113 0.318479 0.904482 0.203356
H8    H     H_    0.483286 0.198945 0.608929 0.164398
H9    H     H_    0.606602 0.285231 0.698069 0.166768
H10   H     H_    0.452510 0.106656 0.686005 0.138103
H11   H     H_    0.657022 0.819308 0.905808 0.148366
H12   H     H_    0.335921 0.106453 0.703050 0.129490
H13   H     H_    0.910739 0.771286 0.807600 0.239840
H14   H     H_    0.913506 0.825976 0.727571 0.209923
H15   H     H_    0.918858 0.304562 0.139564 0.195481
H16   H     H_    0.090303 0.914462 0.822792 0.192236
H17   H     H_    0.087736 0.853562 0.898665 0.236065
H18   H     H_    0.094815 0.721617 0.883436 0.247155
H19   H     H_    0.909505 0.668976 0.588535 0.105878
H20   H     H_    0.092642 0.678510 0.794171 0.176661
H21   H     H_    0.507708 0.392673 0.218107 0.189748
H22   H     H_    0.380178 0.299653 0.170891 0.217659
H23   H     H_    0.531898 0.315090 0.140925 0.155897
H24   H     H_    0.662617 0.387192 0.383791 0.099587
H25   H     H_    0.421058 0.177847 0.329340 0.189842
H26   H     H_    0.905082 0.170306 0.086703 0.198719
H27   H     H_    0.495698 0.869306 0.689254 0.153131
H28   H     H_    0.330043 0.184197 0.231823 0.213943
H29   H     H_    0.432982 0.099511 0.244573 0.135903
H30   H     H_    0.642680 0.726318 0.321138 0.239507
H31   H     H_    0.666981 0.806367 0.400928 0.148940
H32   H     H_    0.665122 0.896722 0.317602 0.128287
H33   H     H_    0.475192 0.700524 0.117115 0.180724
H34   H     H_    0.396313 0.717752 0.314296 0.194821
H35   H     H_    0.526478 0.796413 0.394861 0.191257
H36   H     H_    0.386737 0.790358 0.215716 0.134841
H37   H     H_    0.104820 0.293023 0.421292 0.090284
H38   H     H_    0.093462 0.401771 0.240746 0.242107
H39   H     H_    0.084468 0.403087 0.334182 0.179434
H40   H     H_    0.908926 0.321976 0.229119 0.194388
H41   H     H_    0.035607 0.349606 0.436010 0.111854
H42   H     H_    0.976415 0.359872 0.526492 0.132955
H43   H     H_    0.805572 0.233372 0.487465 0.147413
H44   H     H_    0.692280 0.097071 0.352307 0.188293
H45   H     H_    0.753712 0.079331 0.267284 0.131795
H46   H     H_    0.432886 0.334787 0.844653 0.190387
H47   H     H_    0.396352 0.440360 0.865816 0.129926
H48   H     H_    0.913639 0.119761 0.287168 0.175306
H49   H     H_    0.307852 0.482573 0.738740 0.127553
H50   H     H_    0.256372 0.416910 0.587597 0.126011
H51   H     H_    0.289438 0.308700 0.561854 0.175657
H52   H     H_    0.735793 0.316267 0.838786 0.122782
H53   H     H_    0.880668 0.303604 0.908034 0.126751
H54   H     H_    0.849526 0.153670 0.895463 0.138168
H55   H     H_    0.669741 0.014909 0.809080 0.137170
H56   H     H_    0.521266 0.024742 0.735574 0.142865
H57   H     H_    0.183722 0.136410 0.630886 0.169459
H58   H     H_    0.021139 0.015263 0.490730 0.138707
H59   H     H_    0.085738 0.185778 0.232536 0.144979
H60   H     H_    0.019790 0.968701 0.361821 0.121871
H61   H     H_    0.182264 0.047840 0.372481 0.118941
H62   H     H_    0.342777 0.167155 0.506948 0.153666
H63   H     H_    0.793094 0.895771 0.885736 0.121800
H64   H     H_    0.938164 0.978944 0.871628 0.146301
H65   H     H_    0.903645 0.984557 0.722550 0.135374
H66   H     H_    0.722485 0.906683 0.586711 0.125775
H67   H     H_    0.576072 0.823045 0.599387 0.143964
H68   H     H_    0.787118 0.482777 0.737083 0.182466
H69   H     H_    0.717366 0.330958 0.654987 0.129037
H70   H     H_    0.909629 0.096911 0.150556 0.151556
H71   H     H_    0.777964 0.309655 0.568023 0.155039
H72   H     H_    0.908851 0.442263 0.560788 0.141628
H73   H     H_    0.983505 0.594685 0.643957 0.189190
H74   H     H_    0.403468 0.362655 0.052981 0.142085
H75   H     H_    0.268746 0.319197 0.893644 0.131436
H76   H     H_    0.167205 0.165822 0.787301 0.131517
H77   H     H_    0.199901 0.055370 0.842552 0.152086
H78   H     H_    0.324139 0.091404 0.001405 0.163033
H79   H     H_    0.662265 0.441699 0.271621 0.135330
H80   H     H_    0.816078 0.562503 0.288625 0.142948
H81   H     H_    0.569828 0.409329 0.818271 0.192061
H82   H     H_    0.954067 0.545101 0.322321 0.145877
H83   H     H_    0.930899 0.402247 0.332631 0.133346
H84   H     H_    0.763838 0.269286 0.293239 0.189463
H85   H     H_    0.601765 0.688244 0.174785 0.200200
H86   H     H_    0.699065 0.703975 0.115386 0.132260
H87   H     H_    0.842819 0.855196 0.144714 0.124712
H88   H     H_    0.889211 0.990972 0.236793 0.137966
H89   H     H_    0.790223 0.978197 0.296305 0.095522
H90   H     H_    0.385760 0.912749 0.239327 0.139414
H91   H     H_    0.447036 0.042202 0.352863 0.121128
H92   H     H_    0.503818 0.631011 0.809817 0.170539
H93   H     H_    0.619322 0.122653 0.498475 0.144762
H94   H     H_    0.728559 0.067725 0.535413 0.139483
H95   H     H_    0.667168 0.934546 0.429963 0.127977
H96   H     H_    0.324384 0.452684 0.125335 0.179888
H97   H     H_    0.144505 0.329885 0.057240 0.166866
H98   H     H_    0.025891 0.358549 0.057583 0.142254
H99   H     H_    0.088447 0.514342 0.122314 0.131294
H100  H     H_    0.263997 0.640061 0.182568 0.112416
H101  H     H_    0.265991 0.723316 0.081045 0.123004
H102  H     H_    0.088220 0.619538 0.950319 0.165558
O1    O     O_3   0.500000 0.500000 0.500000 -0.504801
O2    O     O_R   0.266230 0.883210 0.944500 -0.658180
O3    O     O_R   0.561150 0.178510 0.117240 -0.659336
O4    O     O_R   0.733670 0.616970 0.678220 -0.613726
O5    O     O_R   0.438720 0.882700 0.821420 -0.630956
O6    O     O_R   0.438610 0.055960 0.117240 -0.615125
O7    O     O_R   0.561250 0.882700 0.943960 -0.642363
O8    O     O_R   0.733630 0.055440 0.116700 -0.658500
O9    O     O_R   0.266260 0.883000 0.821740 -0.557262
O10   O     O_R   0.561190 0.178210 0.944500 -0.644113
O11   O     O_R   0.438650 0.883210 0.116920 -0.651267
O12   O     O_R   0.438720 0.616970 0.383270 -0.655756
O13   O     O_R   0.266300 0.444520 0.383270 -0.644739
O14   O     O_R   0.561280 0.616750 0.383040 -0.607985
O15   O     O_R   0.438750 0.321760 0.555460 -0.663789
O16   O     O_R   0.561320 0.444010 0.382720 -0.656831
O17   O     O_R   0.561210 0.617270 0.678540 -0.638667
O18   O     O_R   0.438790 0.321460 0.382720 -0.643136
O19   O     O_R   0.438680 0.617270 0.556010 -0.610888
O20   O     O_R   0.561250 0.444520 0.678220 -0.640261
O21   O     O_R   0.733700 0.616750 0.555460 -0.613619
O22   O     O_R   0.266330 0.321760 0.383040 -0.615945
O23   O     O_3   0.499930 0.999970 0.999970 -0.498684
O24   O     O_R   0.438680 0.055440 0.821740 -0.652894
O25   O     O_R   0.561210 0.883000 0.116700 -0.638943
O26   O     O_R   0.733610 0.178210 0.116920 -0.648395
Zn1   Zn    Zn3+2 0.412450 0.543930 0.456390 0.990938
Zn2   Zn    Zn3+2 0.587550 0.543620 0.456070 1.013728
Zn3   Zn    Zn3+2 0.412480 0.368530 0.456070 0.980029
Zn4   Zn    Zn3+2 0.587520 0.543930 0.631470 0.986891
Zn5   Zn    Zn3+2 0.587490 0.956040 0.043570 0.958147
Zn6   Zn    Zn3+2 0.587450 0.131440 0.043900 0.968089
Zn7   Zn    Zn3+2 0.412380 0.956350 0.043900 0.976415
Zn8   Zn    Zn3+2 0.412420 0.956040 0.868500 1.035893

loop_
_geom_bond_atom_site_label_1
_geom_bond_atom_site_label_2
_ccdc_geom_bond_type
C52   H16   S    
C105  H52   S    
C66   C68   S    
C87   C88   S    
C63   C65   S    
O21   Zn2   S    
C50   C104  S    
C126  C127  A    
O9    Zn8   S    
C84   O6    A    
C26   C72   S    
C41   C42   S    
C62   C130  S    
C95   C96   A    
C76   C79   S    
C98   H46   S    
C58   H20   S    
C128  C129  A    
C97   C98   A    
C18   H89   S    
C7    C8    A    
C21   H91   S    
C3    C4    A    
O3    Zn6   S    
C86   O7    A    
C24   O13   A    
C26   C27   A    
C101  C102  A    
C39   C122  S    
C103  H51   S    
C131  H74   S    
C44   H9    S    
C112  H57   S    
O10   Zn6   S    
C28   C29   A    
C45   C87   S    
O6    Zn7   S    
C50   H10   S    
C63   F12   S    
C71   C76   S    
C49   O14   A    
C57   C59   S    
C66   C69   S    
C16   C17   A    
C106  C107  A    
C25   H95   S    
C78   C88   S    
C4    H77   S    
C81   O25   A    
C65   C73   S    
C108  C109  A    
O23   Zn7   S    
C82   O26   A    
C119  C120  A    
C56   C117  S    
O24   Zn8   S    
C64   H25   S    
C100  H39   S    
C2    C13   S    
C111  H15   S    
C118  C119  A    
C104  C105  A    
O2    Zn7   S    
C129  H73   S    
C86   O5    A    
C91   C96   A    
C54   C55   S    
C35   C82   S    
C54   F8    S    
C41   H2    S    
C19   C20   A    
C45   C56   S    
C44   C46   S    
C11   H84   S    
C14   H85   S    
C74   H34   S    
C83   O2    A    
C34   H102  S    
C36   C37   A    
O26   Zn6   S    
C41   C46   S    
C49   C75   S    
C33   H101  S    
C70   C71   S    
C45   H11   S    
C43   C110  S    
C32   C38   A    
C54   H19   S    
O1    Zn1   S    
C29   C30   A    
C100  H38   S    
C70   H31   S    
C38   H5    S    
C80   O24   A    
C8    H80   S    
C73   O18   A    
C52   H17   S    
C22   H93   S    
O14   Zn2   S    
C93   H42   S    
C6    C68   S    
C62   H23   S    
C48   H12   S    
C120  C121  A    
C26   C31   A    
C37   H4    S    
C21   C22   A    
C24   O22   A    
O12   Zn1   S    
C118  H63   S    
C94   C95   A    
C67   C78   S    
C69   H29   S    
C47   C80   S    
C85   O17   A    
C72   C75   S    
C42   H6    S    
C102  H50   S    
C112  C113  A    
C43   C46   S    
C125  H68   S    
C101  H49   S    
C27   H96   S    
C114  C115  A    
C47   C50   S    
C54   C59   S    
C53   C55   S    
C78   C89   S    
O16   Zn2   S    
C41   H81   S    
O18   Zn3   S    
C74   C75   S    
C74   H35   S    
C46   C61   S    
C35   C40   S    
C3    C132  A    
C85   O19   A    
C31   H100  S    
C32   C77   S    
C76   C77   S    
C59   F10   S    
C71   H32   S    
C86   C90   S    
O20   Zn4   S    
C91   C92   A    
C23   H94   S    
C62   C66   S    
C92   H41   S    
C8    C9    A    
C72   F3    S    
C51   C55   S    
C67   H27   S    
C121  H66   S    
C39   H26   S    
C51   H13   S    
C67   C90   S    
C77   H33   S    
C87   H92   S    
C51   C52   S    
O23   Zn8   S    
C123  H67   S    
C2    H37   S    
C12   C18   A    
C122  H59   S    
C64   H28   S    
C35   C39   S    
C1    O21   A    
C122  F1    S    
C72   C77   S    
C45   C90   S    
C126  H69   S    
C2    C40   S    
C7    H79   S    
C49   O12   A    
C36   H3    S    
C47   C48   S    
C40   H48   S    
C80   O10   A    
C30   C31   A    
C107  C108  A    
C43   C48   S    
C125  C126  A    
C61   O20   A    
C57   C83   S    
C33   C34   A    
C3    H76   S    
C88   H1    S    
O23   Zn5   S    
C93   C94   A    
C44   H8    S    
C113  H58   S    
C94   H43   S    
O1    Zn2   S    
C19   C79   S    
C42   H7    S    
C70   H30   S    
C97   C103  A    
O7    Zn5   S    
C128  H72   S    
C106  H53   S    
O19   Zn1   S    
C63   H24   S    
C99   C101  A    
C96   H45   S    
C12   C14   A    
C60   C65   S    
O11   Zn7   S    
C37   C38   A    
O4    Zn4   S    
C30   H99   S    
C87   C89   S    
C15   H86   S    
C10   H83   S    
C13   C24   S    
C114  H60   S    
C28   H97   S    
O1    Zn3   S    
C127  C128  A    
C58   H18   S    
C110  C116  A    
C6    C11   A    
C115  H61   S    
C35   C111  S    
C73   O16   A    
C113  C114  A    
C9    C10   A    
C44   C50   S    
C120  H65   S    
C43   C97   S    
C5    H78   S    
C63   C68   S    
C56   C89   S    
C85   C89   S    
C1    O4    A    
C39   H70   S    
C84   O3    A    
C53   F7    S    
C2    F5    S    
C81   O11   A    
C12   C71   S    
C22   C23   A    
C14   C15   A    
C88   C90   S    
C4    C5    A    
C53   C124  S    
C76   C81   S    
C107  H54   S    
C53   C58   S    
C92   C93   A    
C6    C7    A    
O15   Zn3   S    
C69   F11   S    
C56   C67   S    
C64   C69   S    
C105  C106  A    
C51   H14   S    
C20   H90   S    
C60   H21   S    
C17   C18   A    
C48   F6    S    
C74   C79   S    
C132  H75   S    
C10   C11   A    
C32   C33   A    
C13   C100  S    
C68   F2    S    
C130  C131  A    
C117  C123  A    
C61   O15   A    
C131  C132  A    
C64   C65   S    
C60   C62   S    
C99   H47   S    
C13   C122  S    
C127  H71   S    
C57   C58   S    
C104  C109  A    
C78   F4    S    
C108  H55   S    
O5    Zn8   S    
O22   Zn3   S    
C111  H40   S    
O8    Zn5   S    
C124  C129  A    
O13   Zn1   S    
C34   C36   A    
C42   C47   S    
C23   C25   A    
C40   C91   S    
C1    C55   S    
C102  C103  A    
C19   C25   A    
O17   Zn4   S    
C110  C112  A    
C95   H44   S    
C121  C123  A    
C52   C57   S    
C17   H88   S    
C66   C84   S    
C5    C130  A    
O25   Zn5   S    
O23   Zn6   S    
C20   C21   A    
C59   F9    S    
C100  C111  S    
C60   H22   S    
C98   C99   A    
C29   H98   S    
C83   O9    A    
C70   C75   S    
C9    H82   S    
C79   H36   S    
C82   O8    A    
C109  H56   S    
C119  H64   S    
C115  C116  A    
O1    Zn4   S    
C117  C118  A    
C16   H87   S    
C116  H62   S    
C15   C16   A    
C124  C125  A    
C27   C28   A    
