data_mof_unit_7894.cif
_audit_creation_date              2012-10-26T19:29:01-0400
_audit_creation_method            fapswitch 2.2
_symmetry_space_group_name_H-M    P1
_symmetry_Int_Tables_number       1
_space_group_crystal_system       triclinic
_cell_length_a                    9.490884
_cell_length_b                    10.821397
_cell_length_c                    17.225418
_cell_angle_alpha                 90.409475
_cell_angle_beta                  86.625654
_cell_angle_gamma                 90.107576
_cell_volume                      1766.01591871

loop_
_atom_site_label
_atom_site_type_symbol
_atom_type_description
_atom_site_fract_x
_atom_site_fract_y
_atom_site_fract_z
_atom_type_partial_charge
C1    C     C_R   0.499346 0.740434 0.503507 0.603308
C2    C     C_R   0.526686 0.475015 0.266124 -0.011281
C3    C     C_3   0.341573 0.930921 0.509359 0.124549
C4    C     C_R   0.481458 0.495732 0.649809 0.575379
C5    C     C_3   0.343085 0.071170 0.492569 0.165508
C6    C     C_3   0.574287 0.935301 0.573456 -0.166773
C7    C     C_3   0.576596 0.925794 0.428133 -0.266854
C8    C     C_3   0.497031 0.879673 0.504621 -0.084734
C9    C     C_3   0.498499 0.123037 0.495798 0.055385
C10   C     C_3   0.566336 0.078450 0.571858 0.035694
C11   C     C_3   0.592904 0.068257 0.427399 0.070389
C12   C     C_R   0.367946 0.391222 0.764760 -0.108765
C13   C     C_3   0.911713 0.386127 0.534719 -0.126707
C14   C     C_3   0.076069 0.394118 0.545304 -0.127487
C15   C     C_3   0.928581 0.501398 0.416767 0.180367
C16   C     C_R   0.500017 0.260554 0.496158 0.594387
C17   C     C_3   0.918382 0.610741 0.539800 0.249298
C18   C     C_3   0.093769 0.482276 0.419228 -0.092137
C19   C     C_3   0.084854 0.612189 0.531838 -0.051644
C20   C     C_R   0.517825 0.495007 0.350197 0.591978
C21   C     C_R   0.468555 0.475512 0.733695 0.025195
C22   C     C_R   0.555930 0.538008 0.783252 -0.071195
C23   C     C_R   0.416119 0.473927 0.143567 -0.114562
C24   C     C_R   0.546545 0.514725 0.862321 -0.095138
C25   C     C_R   0.450595 0.426483 0.893313 0.037597
C26   C     C_R   0.359007 0.366843 0.844333 -0.083646
C27   C     C_R   0.409680 0.498289 0.222866 -0.114156
C28   C     C_R   0.649205 0.423948 0.229601 -0.008392
C29   C     C_R   0.655966 0.395614 0.150437 0.270910
C30   C     C_R   0.538781 0.423104 0.106227 0.027991
C31   C     C_2   0.439907 0.401954 0.977264 -0.128466
C32   C     C_2   0.551494 0.416923 0.020727 -0.137984
Cu1   Cu    Cu3+1 0.357600 0.500140 0.499960 0.991194
Cu2   Cu    Cu3+1 0.642400 0.499860 0.500040 1.055788
H1    H     H_    0.629414 0.606949 0.762037 0.202864
H2    H     H_    0.677363 0.113258 0.572195 0.122059
H3    H     H_    0.891581 0.304235 0.497436 0.113556
H4    H     H_    0.852665 0.365235 0.590236 0.188853
H5    H     H_    0.095295 0.406304 0.608007 0.159278
H6    H     H_    0.124243 0.304368 0.527433 0.176886
H7    H     H_    0.886557 0.422773 0.383136 0.116059
H8    H     H_    0.121121 0.388916 0.396047 0.154714
H9    H     H_    0.882213 0.696152 0.512003 0.193533
H10   H     H_    0.739031 0.402203 0.262992 0.169666
H11   H     H_    0.131963 0.626560 0.588190 0.239155
H12   H     H_    0.283815 0.881965 0.464103 0.187464
H13   H     H_    0.121519 0.690918 0.495265 0.182030
H14   H     H_    0.152333 0.547146 0.379702 0.198277
H15   H     H_    0.655200 0.433184 0.992636 0.143212
H16   H     H_    0.282114 0.300584 0.867476 0.132581
H17   H     H_    0.326463 0.499727 0.111237 0.145261
H18   H     H_    0.298480 0.342467 0.727251 0.146331
H19   H     H_    0.338106 0.374582 0.003865 0.140741
H20   H     H_    0.612907 0.568050 0.899084 0.129424
H21   H     H_    0.758728 0.299112 0.069898 0.331290
H22   H     H_    0.179100 0.994769 0.708048 0.380399
H23   H     H_    0.277168 0.119543 0.538530 0.194144
H24   H     H_    0.037038 0.134416 0.378486 0.359028
H25   H     H_    0.526937 0.207350 0.649562 0.320508
H26   H     H_    0.637024 0.091525 0.317088 0.333925
H27   H     H_    0.721533 0.778342 0.688312 0.348973
H28   H     H_    0.739859 0.743083 0.306701 0.359335
H29   H     H_    0.529659 0.899548 0.629942 0.238008
H30   H     H_    0.684854 0.887223 0.423897 0.181681
H31   H     H_    0.521303 0.892751 0.376736 0.193658
H32   H     H_    0.313953 0.537575 0.250028 0.163756
H33   H     H_    0.705265 0.092132 0.436910 0.122143
H34   H     H_    0.687214 0.907420 0.567951 0.146493
N1    N     N_3   0.856560 0.499750 0.498270 -0.278951
N2    N     N_3   0.143860 0.496700 0.498910 -0.329004
O1    O     O_R   0.379740 0.682430 0.499960 -0.502441
O2    O     O_2   0.087187 0.886972 0.580503 -0.275438
O3    O     O_2   0.287064 0.785178 0.638103 -0.281768
O4    O     O_3   0.246819 0.017395 0.664497 -0.485329
O5    O     O_2   0.298529 0.223119 0.368138 -0.248922
O6    O     O_2   0.285196 0.001323 0.343977 -0.238263
O7    O     O_3   0.079641 0.104358 0.425959 -0.548995
O8    O     O_3   0.491165 0.123011 0.638957 -0.651359
O9    O     O_3   0.560138 0.117124 0.355385 -0.618002
O10   O     O_2   0.847596 0.517337 0.686710 -0.317393
O11   O     O_2   0.969835 0.713682 0.681046 -0.254163
O12   O     O_R   0.620260 0.682190 0.500020 -0.431976
O13   O     O_3   0.710945 0.714596 0.647487 -0.554623
O14   O     O_2   0.004069 0.741142 0.378312 -0.298482
O15   O     O_2   0.947379 0.600662 0.274116 -0.300465
O16   O     O_3   0.743857 0.699678 0.356968 -0.521281
O17   O     O_R   0.365800 0.500150 0.613560 -0.510542
O18   O     O_R   0.606310 0.499910 0.613620 -0.425240
O19   O     O_R   0.379740 0.317810 0.499980 -0.491140
O20   O     O_R   0.620260 0.317570 0.500040 -0.564160
O21   O     O_R   0.393690 0.500090 0.386380 -0.510514
O22   O     O_R   0.634200 0.499850 0.386440 -0.461400
O23   O     O_3   0.778375 0.341471 0.119200 -0.679590
S1    S     S_3+6 0.238636 0.900756 0.599969 0.001259
S2    S     S_3+6 0.254483 0.101539 0.403462 0.022201
S3    S     S_3+6 0.863238 0.635521 0.641923 -0.001577
S4    S     S_3+6 0.906030 0.639144 0.356378 -0.022721

loop_
_geom_bond_atom_site_label_1
_geom_bond_atom_site_label_2
_ccdc_geom_bond_type
C25   C31   S    
C15   C18   S    
C29   O23   S    
H26   O9    S    
C17   N1    S    
C1    C8    S    
O4    S1    S    
H21   O23   S    
C17   H9    S    
C10   O8    S    
O5    S2    D    
C7    C8    S    
C4    O17   A    
C7    C11   S    
C22   H1    S    
H28   O16   S    
C1    O1    A    
C16   O20   A    
C28   C29   A    
C9    C16   S    
Cu1   O21   S    
O6    S2    D    
C19   H13   S    
C24   H20   S    
O16   S4    S    
H24   O7    S    
C12   H18   S    
C14   H5    S    
C2    C27   A    
C23   C27   A    
O10   S3    D    
C9    C10   S    
C13   H3    S    
O2    S1    D    
C6    H34   S    
C16   O19   A    
C13   C14   S    
C14   N2    S    
O3    S1    D    
C15   S4    S    
H25   O8    S    
C5    S2    S    
C11   H33   S    
C15   N1    S    
C20   O21   A    
H22   O4    S    
C2    C20   S    
C23   C30   A    
C24   C25   A    
C15   H7    S    
C3    C8    S    
H27   O13   S    
O11   S3    D    
C6    C8    S    
C25   C26   A    
C12   C21   A    
C28   H10   S    
C18   H8    S    
C12   C26   A    
C6    H29   S    
Cu2   O20   S    
C5    C9    S    
C29   C30   A    
Cu1   O19   S    
C7    H31   S    
C20   O22   A    
C23   H17   S    
C31   C32   D    
Cu1   Cu2   S    
C17   S3    S    
Cu2   O18   S    
C31   H19   S    
C9    C11   S    
Cu2   N1    S    
C13   H4    S    
C11   O9    S    
Cu1   N2    S    
C22   C24   A    
O14   S4    D    
C7    H30   S    
C3    C5    S    
C18   H14   S    
C6    C10   S    
C10   H2    S    
C19   H11   S    
C4    O18   A    
C3    H12   S    
C18   N2    S    
C5    H23   S    
C26   H16   S    
C1    O12   A    
C27   H32   S    
C30   C32   S    
C4    C21   S    
C13   N1    S    
O13   S3    S    
C17   C19   S    
O7    S2    S    
C3    S1    S    
Cu1   O17   S    
Cu2   O22   S    
C32   H15   S    
O15   S4    D    
Cu1   O1    S    
C14   H6    S    
C19   N2    S    
C2    C28   A    
Cu2   O12   S    
C21   C22   A    
