data_mof_unit_14290.cif
_audit_creation_date              2012-12-11T14:58:41-0500
_audit_creation_method            fapswitch 2.2
_symmetry_space_group_name_H-M    P1
_symmetry_Int_Tables_number       1
_space_group_crystal_system       triclinic
_cell_length_a                    10.898527
_cell_length_b                    10.904126
_cell_length_c                    18.825263
_cell_angle_alpha                 90.177306
_cell_angle_beta                  90.025479
_cell_angle_gamma                 60.168227
_cell_volume                      1940.71442002

loop_
_atom_site_label
_atom_site_type_symbol
_atom_type_description
_atom_site_fract_x
_atom_site_fract_y
_atom_site_fract_z
_atom_type_partial_charge
C1    C     C_R   0.359119 0.773689 0.397854 0.555345
C2    C     C_R   0.243695 0.437773 0.200497 -0.155692
C3    C     C_R   0.242496 0.445202 0.274537 -0.034179
C4    C     C_R   0.386102 0.354502 0.387584 0.522567
C5    C     C_R   0.871468 0.781763 0.374546 -0.111397
C6    C     C_R   0.931082 0.644313 0.400666 -0.094709
C7    C     C_R   0.049201 0.533939 0.367292 -0.051156
C8    C     C_R   0.113799 0.561289 0.309468 0.052071
C9    C     C_R   0.362073 0.341273 0.312092 -0.003059
C10   C     C_R   0.904850 0.332977 0.307319 -0.128698
C11   C     C_R   0.951025 0.310295 0.237581 -0.140942
C12   C     C_R   0.611027 0.115278 0.166423 0.061798
C13   C     C_R   0.853907 0.341370 0.182551 0.036297
C14   C     C_R   0.709623 0.399830 0.196912 -0.140710
C15   C     C_R   0.663382 0.421838 0.267151 -0.151658
C16   C     C_R   0.713277 0.415772 0.394813 0.553424
C17   C     C_R   0.761449 0.387767 0.322141 0.032728
C18   C     C_R   0.469640 0.788157 0.286573 -0.175903
C19   C     C_R   0.457535 0.813538 0.213887 -0.163889
C20   C     C_R   0.323317 0.889642 0.184277 0.013524
C21   C     C_R   0.202489 0.951678 0.228027 -0.119392
C22   C     C_R   0.213558 0.927793 0.300623 0.078785
C23   C     C_R   0.357891 0.328910 0.163408 -0.003152
C24   C     C_R   0.347276 0.838167 0.329119 0.052986
C25   C     C_R   0.385837 0.196360 0.693132 -0.138226
C26   C     C_R   0.375757 0.183322 0.765216 -0.135269
C27   C     C_R   0.295684 0.303758 0.807638 0.034956
C28   C     C_R   0.345120 0.768081 0.605045 0.548237
C29   C     C_R   0.214081 0.435981 0.776334 -0.140042
C30   C     C_R   0.225186 0.449477 0.703659 -0.130952
C31   C     C_R   0.317672 0.330332 0.662791 0.032482
C32   C     C_R   0.807241 0.451046 0.724136 -0.160237
C33   C     C_R   0.810993 0.446677 0.796326 -0.146207
C34   C     C_R   0.478841 0.237189 0.274294 -0.150320
C35   C     C_R   0.827729 0.327576 0.832649 0.001564
C36   C     C_R   0.829808 0.215756 0.794777 -0.105590
C37   C     C_R   0.816529 0.222700 0.720191 0.138670
C38   C     C_R   0.806544 0.342461 0.684872 0.038398
C39   C     C_R   0.200253 0.838365 0.713245 -0.150113
C40   C     C_R   0.367936 0.350126 0.595114 0.548230
C41   C     C_R   0.191604 0.849197 0.786218 -0.161313
C42   C     C_R   0.305224 0.839035 0.825780 0.054219
C43   C     C_R   0.432005 0.810710 0.791431 0.082667
C44   C     C_R   0.439079 0.800862 0.717721 -0.117483
C45   C     C_R   0.481122 0.231280 0.200847 -0.022651
C46   C     C_R   0.323931 0.813852 0.678547 0.008988
C47   C     C_R   0.906961 0.317551 0.110857 0.533248
C48   C     C_R   0.329157 0.294492 0.092354 0.535943
C49   C     C_R   0.300573 0.911398 0.108516 0.548131
C50   C     C_R   0.881221 0.309887 0.904936 0.542632
C51   C     C_R   0.291593 0.283217 0.883222 0.547183
C52   C     C_R   0.763320 0.376102 0.610781 0.557958
C53   C     C_R   0.276951 0.892059 0.898252 0.559426
C54   C     C_R   0.845991 0.892838 0.097674 -0.111259
C55   C     C_R   0.791617 0.031627 0.074158 -0.085875
C56   C     C_R   0.053196 0.700764 0.283994 -0.072414
C57   C     C_R   0.675747 0.142647 0.108652 -0.054648
C58   C     C_3   0.781452 0.013799 0.714680 -0.306732
C59   C     C_R   0.931943 0.809683 0.316005 -0.085867
C60   C     C_R   0.667128 0.974828 0.189648 -0.100773
C61   C     C_R   0.783470 0.864422 0.155225 -0.128448
Cr1   Cr    Cr6+3 0.601770 0.606860 0.505860 0.983431
Cr2   Cr    Cr6+3 0.291380 0.601660 0.495070 1.023858
Cr3   Cr    Cr6+3 0.606880 0.291510 0.499120 1.021418
Cr4   Cr    Cr6+3 0.062440 0.063090 0.008210 0.982372
Cr5   Cr    Cr6+3 0.062880 0.375170 0.998920 1.006362
Cr6   Cr    Cr6+3 0.374700 0.061720 0.992470 1.042224
H1    H     H_    0.573798 0.161572 0.301957 0.141151
H2    H     H_    0.551226 0.768013 0.180718 0.130552
H3    H     H_    0.098345 0.015912 0.205234 0.142341
H4    H     H_    0.824832 0.756666 0.173086 0.121745
H5    H     H_    0.455177 0.103219 0.662189 0.124785
H6    H     H_    0.434034 0.078647 0.787937 0.164323
H7    H     H_    0.147597 0.528680 0.808164 0.116679
H8    H     H_    0.170379 0.554353 0.680764 0.132442
H9    H     H_    0.799164 0.544519 0.699544 0.133338
H10   H     H_    0.812538 0.533798 0.823136 0.138339
H11   H     H_    0.848026 0.121984 0.823083 0.123942
H12   H     H_    0.778837 0.866749 0.399850 0.108828
H13   H     H_    0.111423 0.844949 0.684192 0.133884
H14   H     H_    0.884957 0.916125 0.295566 0.121803
H15   H     H_    0.093142 0.871794 0.811321 0.129078
H16   H     H_    0.536547 0.777968 0.691303 0.121566
H17   H     H_    0.935791 0.807202 0.070923 0.109337
H18   H     H_    0.838187 0.052927 0.028513 0.140705
H19   H     H_    0.633174 0.248931 0.088546 0.090560
H20   H     H_    0.099972 0.725587 0.239522 0.115139
H21   H     H_    0.619581 0.950420 0.233852 0.110321
H22   H     H_    0.149329 0.511927 0.171916 0.134358
H23   H     H_    0.886341 0.623651 0.447222 0.137856
H24   H     H_    0.998931 0.049276 0.315113 0.224011
H25   H     H_    0.098901 0.055470 0.381329 0.224791
H26   H     H_    0.891841 0.067984 0.640705 0.251266
H27   H     H_    0.871400 0.937088 0.747542 0.112090
H28   H     H_    0.759002 0.954225 0.673682 0.137771
H29   H     H_    0.685554 0.072435 0.748216 0.164702
H30   H     H_    0.634621 0.778516 0.797628 0.199448
H31   H     H_    0.586511 0.706323 0.863310 0.229969
H32   H     H_    0.093365 0.427953 0.388112 0.095618
H33   H     H_    0.980577 0.306655 0.349813 0.114487
H34   H     H_    0.062476 0.268327 0.226413 0.118962
H35   H     H_    0.633508 0.429951 0.154273 0.099511
H36   H     H_    0.551607 0.467876 0.278621 0.111923
H37   H     H_    0.573951 0.720289 0.308402 0.143005
N1    N     N_3   0.089821 0.987651 0.345072 -0.601252
N2    N     N_2   0.816466 0.110985 0.680227 -0.487336
N3    N     N_3   0.551246 0.795765 0.831329 -0.615431
O1    O     O_R   0.748800 0.497470 0.428000 -0.537212
O2    O     O_R   0.417600 0.174890 0.067840 -0.505193
O3    O     O_R   0.375320 0.946260 0.070860 -0.493877
O4    O     O_R   0.476420 0.724060 0.429470 -0.537110
O5    O     O_R   0.160600 0.919630 0.926660 -0.540333
O6    O     O_R   0.933060 0.190520 0.936020 -0.520156
O7    O     O_R   0.908880 0.403460 0.925020 -0.525267
O8    O     O_R   0.179600 0.361450 0.918490 -0.504562
O9    O     O_R   0.391510 0.170860 0.907530 -0.519294
O10   O     O_R   0.351130 0.942530 0.922260 -0.464876
O11   O     O_3   0.166667 0.166667 0.999870 -0.249351
O12   O     O_R   0.300070 0.471040 0.567100 -0.510570
O13   O     O_R   0.264580 0.744340 0.416750 -0.466256
O14   O     O_R   0.309380 0.472470 0.418200 -0.497519
O15   O     O_R   0.501710 0.260430 0.414300 -0.538379
O16   O     O_R   0.728090 0.305600 0.428960 -0.498466
O17   O     O_R   0.738760 0.495930 0.588610 -0.537484
O18   O     O_R   0.467110 0.722640 0.578360 -0.509406
O19   O     O_R   0.254530 0.742800 0.577360 -0.525109
O20   O     O_R   0.491670 0.258900 0.574910 -0.504235
O21   O     O_R   0.718780 0.304180 0.577850 -0.470225
O22   O     O_3   0.500010 0.500010 0.500020 -0.267686
O23   O     O_R   0.186690 0.923650 0.086970 -0.532647
O24   O     O_R   0.957250 0.194250 0.084630 -0.519533
O25   O     O_R   0.934970 0.407490 0.085330 -0.515517
O26   O     O_R   0.203780 0.365190 0.067090 -0.509508

loop_
_geom_bond_atom_site_label_1
_geom_bond_atom_site_label_2
_ccdc_geom_bond_type
C25   C31   A    
C23   C45   A    
C27   C29   A    
C52   O17   A    
C41   C42   A    
H24   N1    S    
C35   C36   A    
Cr6   O9    S    
C44   H16   S    
C8    C56   A    
Cr1   O17   S    
Cr4   O23   S    
C52   O21   A    
C7    C8    A    
C39   C41   A    
C31   C40   S    
C28   C46   S    
C26   C27   A    
C29   C30   A    
C7    H32   S    
C18   C24   A    
C36   C37   A    
C37   C38   A    
C42   C53   S    
C30   C31   A    
C53   O10   A    
C14   H35   S    
C38   C52   S    
C10   C17   A    
C26   H6    S    
C57   H19   S    
C18   C19   A    
C58   H29   S    
Cr4   O24   S    
Cr6   O2    S    
Cr1   O4    S    
C19   C20   A    
C27   C51   S    
C16   C17   S    
Cr3   O21   S    
Cr4   O11   S    
C32   C38   A    
C5    H12   S    
C61   H4    S    
C48   O2    A    
C13   C14   A    
Cr1   O22   S    
C54   H17   S    
Cr2   O14   S    
C44   C46   A    
Cr5   O25   S    
C60   H21   S    
Cr1   O1    S    
Cr5   O8    S    
C5    C59   A    
C48   O26   A    
C3    C8    S    
C34   H1    S    
C13   C47   S    
C56   H20   S    
C43   N3    S    
C29   H7    S    
C25   C26   A    
C6    H23   S    
C40   O20   A    
C51   O8    A    
H31   N3    S    
C47   O24   A    
C60   C61   A    
C50   O7    A    
C1    O13   A    
H30   N3    S    
C55   H18   S    
C2    H22   S    
C58   H28   S    
Cr4   O5    S    
C20   C49   S    
C3    C9    A    
H26   N2    S    
Cr5   O26   S    
Cr2   O12   S    
Cr6   O3    S    
Cr3   O20   S    
C35   C50   S    
C4    O15   A    
C11   H34   S    
C25   H5    S    
C18   H37   S    
Cr3   O22   S    
C10   H33   S    
Cr6   O10   S    
C34   C45   A    
C39   C46   A    
C12   C57   A    
C53   O5    A    
C55   C57   A    
C43   C44   A    
C9    C34   A    
C22   C24   A    
C19   H2    S    
C42   C43   A    
C22   N1    S    
C28   O18   A    
C15   C17   A    
C54   C55   A    
C23   C48   S    
Cr5   O7    S    
Cr4   O6    S    
C16   O16   A    
C59   H14   S    
C12   C45   S    
C32   H9    S    
Cr1   O18   S    
C6    C7    A    
C54   C61   A    
C28   O19   A    
Cr3   O16   S    
C49   O23   A    
C47   O25   A    
C51   O9    A    
C56   C59   A    
C21   H3    S    
C50   O6    A    
C15   H36   S    
C39   H13   S    
C2    C3    A    
C58   H27   S    
C37   N2    S    
C36   H11   S    
C32   C33   A    
Cr2   O13   S    
C11   C13   A    
C33   H10   S    
C5    C6    A    
Cr3   O15   S    
C41   H15   S    
C33   C35   A    
C4    O14   A    
Cr2   O22   S    
Cr6   O11   S    
Cr2   O19   S    
C10   C11   A    
C16   O1    A    
C12   C60   A    
H25   N1    S    
C40   O12   A    
C30   H8    S    
C20   C21   A    
C1    C24   S    
Cr5   O11   S    
C2    C23   A    
C14   C15   A    
C58   N2    S    
C4    C9    S    
C21   C22   A    
C1    O4    A    
C49   O3    A    
