data_mof_unit_66899.cif
_audit_creation_date              2013-03-05T15:57:25-0500
_audit_creation_method            fapswitch 2.2
_symmetry_space_group_name_H-M    P1
_symmetry_Int_Tables_number       1
_space_group_crystal_system       triclinic
_cell_length_a                    17.241764
_cell_length_b                    18.621018
_cell_length_c                    8.476907
_cell_angle_alpha                 90.0
_cell_angle_beta                  102.1869
_cell_angle_gamma                 89.995201
_cell_volume                      2660.25572786

loop_
_atom_site_label
_atom_site_type_symbol
_atom_site_description
_atom_site_fract_x
_atom_site_fract_y
_atom_site_fract_z
_atom_type_partial_charge
P1    P     P_3+3 0.834140 0.419320 0.003900 0.487426
P2    P     P_3+3 0.834140 0.580680 0.503900 0.487435
P3    P     P_3+3 0.334140 0.919320 0.003900 0.487407
P4    P     P_3+3 0.334140 0.080680 0.503900 0.487453
O1    O     O_2   0.841960 0.394640 0.833410 -0.385204
O2    O     O_2   0.841960 0.605360 0.333410 -0.385326
O3    O     O_2   0.341960 0.894640 0.833410 -0.385244
O4    O     O_2   0.341960 0.105360 0.333410 -0.385141
O5    O     O_3   0.907950 0.463080 0.102990 -0.399622
O6    O     O_3   0.907950 0.536920 0.602990 -0.399498
O7    O     O_3   0.407950 0.963080 0.102990 -0.399612
O8    O     O_3   0.407950 0.036920 0.602990 -0.399635
O9    O     O_3   0.972780 0.329600 0.629720 -0.376867
O10   O     O_3   0.972780 0.670400 0.129720 -0.376892
O11   O     O_3   0.472780 0.829600 0.629720 -0.376832
O12   O     O_3   0.472780 0.170400 0.129720 -0.376370
O13   O     O_2   0.835147 0.283515 0.677242 -0.356198
O14   O     O_2   0.835132 0.716477 0.177181 -0.356027
O15   O     O_2   0.335116 0.783554 0.677112 -0.356023
O16   O     O_2   0.334869 0.216072 0.176294 -0.355676
O17   O     O_3   0.745426 0.469993 0.957074 -0.560058
O18   O     O_3   0.745403 0.530033 0.457048 -0.560240
O19   O     O_3   0.245423 0.969986 0.957184 -0.560388
O20   O     O_3   0.245418 0.030033 0.457222 -0.560364
O21   O     O_3   0.939393 0.185707 0.668475 -0.495954
O22   O     O_3   0.939373 0.814292 0.168509 -0.495943
O23   O     O_3   0.439369 0.685725 0.668552 -0.495972
O24   O     O_3   0.439027 0.314106 0.169624 -0.495240
H1    H     H_    0.057838 0.188453 0.658685 0.145905
H2    H     H_    0.057820 0.811596 0.158745 0.145973
H3    H     H_    0.557731 0.688337 0.658034 0.145712
H4    H     H_    0.556987 0.311868 0.155400 0.144027
C1    C     C_3   0.006975 0.082754 0.605051 -0.942258
C2    C     C_3   0.006892 0.917273 0.105057 -0.942349
C3    C     C_3   0.506745 0.582627 0.605244 -0.941883
C4    C     C_3   0.505891 0.417974 0.109154 -0.940010
H5    H     H_    0.526771 0.565862 0.733043 0.287253
H6    H     H_    0.526802 0.433576 0.237540 0.286700
H7    H     H_    0.026869 0.065864 0.732797 0.287196
H8    H     H_    0.026779 0.934172 0.232793 0.287179
H9    H     H_    0.948166 0.058330 0.556749 0.256147
H10   H     H_    0.948071 0.941682 0.056760 0.256248
H11   H     H_    0.447889 0.558209 0.557350 0.256030
H12   H     H_    0.446844 0.442620 0.063941 0.256840
P5    P     P_3+3 0.165830 0.418670 0.685610 0.457936
P6    P     P_3+3 0.165830 0.581330 0.185610 0.457999
P7    P     P_3+3 0.665830 0.918670 0.685610 0.458144
P8    P     P_3+3 0.665830 0.081330 0.185610 0.458193
P9    P     P_3+3 0.103898 0.266834 0.114457 0.466992
P10   P     P_3+3 0.103888 0.733168 0.614459 0.466751
P11   P     P_3+3 0.603955 0.766887 0.114433 0.466797
P12   P     P_3+3 0.603917 0.233146 0.614400 0.467545
O25   O     O_2   0.157990 0.394030 0.856030 -0.330553
O26   O     O_2   0.157990 0.605970 0.356030 -0.331230
O27   O     O_2   0.657990 0.894030 0.856030 -0.330773
O28   O     O_2   0.657990 0.105970 0.356030 -0.331041
O29   O     O_3   0.027110 0.329490 0.059550 -0.390214
O30   O     O_3   0.027110 0.670510 0.559550 -0.390229
O31   O     O_3   0.527110 0.829490 0.059550 -0.390507
O32   O     O_3   0.527110 0.170510 0.559550 -0.390160
O33   O     O_2   0.165407 0.281089 0.009753 -0.317234
O34   O     O_2   0.165449 0.718876 0.509887 -0.317688
O35   O     O_2   0.665471 0.781123 0.009734 -0.317748
O36   O     O_2   0.665378 0.218998 0.509509 -0.317618
O37   O     O_3   0.245220 0.479055 0.721714 -0.601641
O38   O     O_3   0.245241 0.520950 0.221549 -0.601515
O39   O     O_3   0.745219 0.979060 0.721688 -0.601292
O40   O     O_3   0.745232 0.020943 0.221602 -0.601308
O41   O     O_3   0.065363 0.183759 0.043210 -0.511391
O42   O     O_3   0.065347 0.816227 0.543081 -0.511153
O43   O     O_3   0.565404 0.683818 0.043292 -0.511364
O44   O     O_3   0.565243 0.316225 0.543501 -0.510631
C5    C     C_3   0.994870 0.171105 0.096531 0.492372
C6    C     C_3   0.994912 0.828952 0.596582 0.492400
C7    C     C_3   0.494827 0.671325 0.096399 0.493643
C8    C     C_3   0.494969 0.328835 0.597701 0.492473
H13   H     H_    0.943436 0.188923 0.002372 0.128332
H14   H     H_    0.943422 0.811211 0.502479 0.128239
H15   H     H_    0.443478 0.689253 0.002171 0.128478
H16   H     H_    0.443345 0.311112 0.503891 0.127910
H17   H     H_    0.992169 0.198886 0.211034 -0.002981
H18   H     H_    0.992217 0.801152 0.711069 -0.002932
H19   H     H_    0.492138 0.699098 0.210929 -0.003086
H20   H     H_    0.492554 0.300931 0.712231 -0.003186
C9    C     C_3   0.989040 0.091105 0.123075 -1.083873
C10   C     C_3   0.989198 0.908949 0.623272 -1.084237
C11   C     C_3   0.488777 0.591359 0.122848 -1.085365
C12   C     C_3   0.489228 0.408803 0.624747 -1.084501
H21   H     H_    0.435235 0.578702 0.169180 0.230433
H22   H     H_    0.435725 0.421578 0.671129 0.230467
H23   H     H_    0.935467 0.078282 0.169167 0.230631
H24   H     H_    0.935685 0.921817 0.669534 0.230674
H25   H     H_    0.986119 0.062795 0.006804 0.283470
H26   H     H_    0.986243 0.937281 0.507018 0.283507
H27   H     H_    0.485641 0.563057 0.006490 0.283304
H28   H     H_    0.486172 0.437223 0.508587 0.283317
C13   C     C_3   0.223074 0.455471 0.278866 0.487612
C14   C     C_3   0.222871 0.544631 0.778273 0.487437
C15   C     C_3   0.722993 0.955417 0.278568 0.487985
C16   C     C_3   0.722890 0.044628 0.778316 0.487880
H29   H     H_    0.185090 0.463161 0.367930 0.084416
H30   H     H_    0.184765 0.537078 0.867166 0.084296
H31   H     H_    0.684939 0.963039 0.367533 0.084155
H32   H     H_    0.684830 0.037055 0.867288 0.084106
H33   H     H_    0.190841 0.422864 0.176122 0.140450
H34   H     H_    0.190702 0.577051 0.675137 0.140858
H35   H     H_    0.690820 0.922884 0.175639 0.140461
H36   H     H_    0.690674 0.077047 0.675221 0.140466
C17   C     C_3   0.298686 0.416526 0.360330 -0.942887
C18   C     C_3   0.298354 0.583743 0.859721 -0.942682
C19   C     C_3   0.798555 0.916423 0.360072 -0.942931
C20   C     C_3   0.798386 0.083760 0.859656 -0.942434
H37   H     H_    0.318049 0.436591 0.485471 0.236802
H38   H     H_    0.317522 0.563942 0.985129 0.236227
H39   H     H_    0.817885 0.936494 0.485221 0.236699
H40   H     H_    0.817518 0.064101 0.985174 0.236166
H41   H     H_    0.288814 0.357832 0.362476 0.236266
H42   H     H_    0.288410 0.642448 0.861157 0.236663
H43   H     H_    0.788643 0.857733 0.362212 0.236010
H44   H     H_    0.788470 0.142470 0.860773 0.236624
H45   H     H_    0.347136 0.426450 0.295017 0.306398
H46   H     H_    0.346956 0.573658 0.794881 0.306740
H47   H     H_    0.847037 0.926321 0.294815 0.306900
H48   H     H_    0.847012 0.073569 0.794949 0.306695
Ba1   Ba    Ba6+2 0.000000 0.447380 0.844850 1.575237
Ba2   Ba    Ba6+2 0.000000 0.552620 0.344850 1.575268
Ba3   Ba    Ba6+2 0.500000 0.947380 0.844850 1.575324
Ba4   Ba    Ba6+2 0.500000 0.052620 0.344850 1.575612
C21   C     C_3   0.754660 0.544981 0.955464 0.703626
C22   C     C_3   0.754590 0.455037 0.455239 0.703474
C23   C     C_3   0.254648 0.044979 0.955863 0.703512
C24   C     C_3   0.254654 0.955041 0.455751 0.703626
H49   H     H_    0.817163 0.563821 0.985541 0.074260
H50   H     H_    0.817093 0.436178 0.485130 0.074046
H51   H     H_    0.317138 0.063841 0.986307 0.074917
H52   H     H_    0.317152 0.936183 0.486014 0.074629
C25   C     C_3   0.705842 0.578015 0.064795 -0.760645
C26   C     C_3   0.705863 0.421997 0.564733 -0.760505
C27   C     C_3   0.205646 0.077902 0.064972 -0.760734
C28   C     C_3   0.205753 0.922069 0.564979 -0.761073
H53   H     H_    0.642400 0.562565 0.026316 0.272465
H54   H     H_    0.642408 0.437433 0.526391 0.272255
H55   H     H_    0.142262 0.062293 0.026321 0.272420
H56   H     H_    0.142335 0.937574 0.526363 0.272483
H57   H     H_    0.711495 0.637211 0.062817 0.255236
H58   H     H_    0.711529 0.362801 0.562758 0.255139
H59   H     H_    0.211114 0.137108 0.062888 0.255597
H60   H     H_    0.211360 0.862868 0.563015 0.255331
H61   H     H_    0.725247 0.558136 0.186313 0.274762
H62   H     H_    0.725316 0.441898 0.686227 0.274899
H63   H     H_    0.225049 0.058120 0.186570 0.274776
H64   H     H_    0.225126 0.941937 0.686510 0.274911
O45   O     O_3   0.092100 0.536880 0.086720 -0.416214
O46   O     O_3   0.092100 0.463120 0.586720 -0.416593
O47   O     O_3   0.592100 0.036880 0.086720 -0.416444
O48   O     O_3   0.592100 0.963120 0.586720 -0.416607
P13   P     P_3+3 0.899189 0.734013 0.080927 0.499115
P14   P     P_3+3 0.899190 0.265992 0.580937 0.499001
P15   P     P_3+3 0.399152 0.233954 0.080865 0.499398
P16   P     P_3+3 0.399193 0.765999 0.580910 0.499022
C29   C     C_3   0.001109 0.163924 0.594769 0.479469
C30   C     C_3   0.001078 0.836100 0.094806 0.479550
C31   C     C_3   0.500929 0.663791 0.594555 0.479240
C32   C     C_3   0.499926 0.336913 0.094712 0.480589
H65   H     H_    0.990668 0.178392 0.465316 -0.029854
H66   H     H_    0.990659 0.821621 0.965366 -0.029904
H67   H     H_    0.490310 0.678106 0.464996 -0.029934
H68   H     H_    0.488237 0.323943 0.964312 -0.032086
H69   H     H_    0.548771 0.562711 0.532462 0.262731
H70   H     H_    0.547315 0.438695 0.035857 0.262109
H71   H     H_    0.049123 0.062963 0.532416 0.262824
H72   H     H_    0.049023 0.937078 0.032408 0.262802
H73   H     H_    0.541574 0.572522 0.212207 0.290797
H74   H     H_    0.542112 0.427404 0.714179 0.290508
H75   H     H_    0.041836 0.072408 0.212622 0.290192
H76   H     H_    0.042054 0.927571 0.712737 0.290260
C33   C     C_R   0.139515 0.677277 0.928429 -0.485145
C34   C     C_R   0.139596 0.322787 0.428380 -0.485660
C35   C     C_R   0.639577 0.177233 0.928350 -0.485166
C36   C     C_R   0.639573 0.822776 0.428373 -0.485494
C37   C     C_R   0.864478 0.323376 0.266632 -0.462891
C38   C     C_R   0.864528 0.676643 0.766601 -0.462673
C39   C     C_R   0.364553 0.823333 0.266558 -0.462589
C40   C     C_R   0.364673 0.176734 0.766455 -0.461626
C41   C     C_R   0.803684 0.208167 0.296040 -0.174903
C42   C     C_R   0.803697 0.791839 0.796027 -0.174787
C43   C     C_R   0.303686 0.708165 0.296049 -0.174863
C44   C     C_R   0.303805 0.291919 0.796009 -0.175148
C45   C     C_R   0.853133 0.264878 0.362257 0.151980
C46   C     C_R   0.853164 0.735134 0.862235 0.151735
C47   C     C_R   0.353176 0.764857 0.362215 0.151843
C48   C     C_R   0.353342 0.235237 0.862085 0.150629
C49   C     C_R   0.820945 0.331063 0.108147 0.340670
C50   C     C_R   0.820977 0.668951 0.608127 0.341015
C51   C     C_R   0.320983 0.831039 0.108106 0.340925
C52   C     C_R   0.321051 0.169002 0.608061 0.341023
C53   C     C_R   0.761159 0.277981 0.046937 -0.021990
C54   C     C_R   0.761170 0.722024 0.546945 -0.022306
C55   C     C_R   0.261156 0.777982 0.046952 -0.022181
C56   C     C_R   0.261241 0.222080 0.546917 -0.022537
C57   C     C_R   0.251429 0.715610 0.142183 -0.112954
C58   C     C_R   0.251521 0.284460 0.642155 -0.112299
C59   C     C_R   0.751437 0.215608 0.142165 -0.112820
C60   C     C_R   0.751444 0.784395 0.642172 -0.113126
C61   C     C_R   0.187687 0.665637 0.081100 0.259708
C62   C     C_R   0.187748 0.334407 0.581082 0.259565
C63   C     C_R   0.687714 0.165620 0.081064 0.260072
C64   C     C_R   0.687714 0.834384 0.581078 0.259688
C65   C     C_R   0.154154 0.733335 0.830662 0.174244
C66   C     C_R   0.154234 0.266725 0.330623 0.174659
C67   C     C_R   0.654238 0.233274 0.830565 0.173768
C68   C     C_R   0.654225 0.766724 0.330608 0.174492
C69   C     C_R   0.211355 0.785065 0.892720 -0.157849
C70   C     C_R   0.211433 0.214993 0.392696 -0.157714
C71   C     C_R   0.711398 0.285035 0.892652 -0.157472
C72   C     C_R   0.711395 0.714966 0.392684 -0.157536
H77   H     H_    0.717038 0.330192 0.818195 0.176982
H78   H     H_    0.717042 0.669813 0.318225 0.176976
H79   H     H_    0.217012 0.830215 0.818272 0.176930
H80   H     H_    0.217072 0.169830 0.318268 0.176921
H81   H     H_    0.093234 0.639157 0.879831 0.158285
H82   H     H_    0.093313 0.360912 0.379777 0.158384
H83   H     H_    0.593299 0.139110 0.879748 0.158169
H84   H     H_    0.593303 0.860912 0.379759 0.158325
H85   H     H_    0.904845 0.365530 0.319712 0.168242
H86   H     H_    0.904904 0.634489 0.819677 0.168257
H87   H     H_    0.404938 0.865478 0.319620 0.168289
H88   H     H_    0.405034 0.134569 0.819535 0.168167
Br1   Br    Br    0.699557 0.581302 0.751408 -0.650148
Br2   Br    Br    0.699326 0.418757 0.251170 -0.649754
Br3   Br    Br    0.199773 0.081420 0.751767 -0.650283
Br4   Br    Br    0.199671 0.918656 0.251685 -0.650415
C73   C     C_2   0.320100 0.639100 0.379630 0.693138
H89   H     H_    0.351635 0.598231 0.328672 -0.037760
O49   O     O_2   0.302192 0.628454 0.509274 -0.531429
C74   C     C_2   0.320034 0.360924 0.880024 0.691995
H90   H     H_    0.351734 0.401886 0.829721 -0.036724
O50   O     O_2   0.301925 0.371366 0.009559 -0.531482
C75   C     C_2   0.820174 0.139079 0.379478 0.693037
H91   H     H_    0.851713 0.098260 0.328366 -0.037896
O51   O     O_2   0.802291 0.128348 0.509117 -0.531393
C76   C     C_2   0.820194 0.860932 0.879423 0.693353
H92   H     H_    0.851732 0.901734 0.828268 -0.038070
O52   O     O_2   0.802311 0.871688 0.009055 -0.531246

loop_
_geom_bond_atom_site_label_1
_geom_bond_atom_site_label_2
_geom_bond_distance
_ccdc_geom_bond_type
P6    C61   1.879484 S    
C15   H31   1.108277 S    
C12   H28   1.109295 S    
P1    O17   1.769450 S    
P5    C62   1.879142 S    
C14   C18   1.523707 S    
C21   Br1   1.912644 S    
P3    O19   1.769379 S    
C75   H91   1.077305 S    
C2    H10   1.107863 S    
C20   H40   1.107568 S    
P4    O4    1.549306 D    
C54   C72   1.410659 A    
C28   H60   1.107039 S    
C69   H79   1.068014 S    
C12   H74   1.110995 S    
C9    H23   1.102409 S    
O8    Ba3   2.850971 S    
P2    O2    1.549306 D    
C26   H62   1.079207 S    
O26   Ba2   2.882300 S    
C27   H59   1.106973 S    
C1    H7    1.110130 S    
P11   O43   1.740431 S    
P7    C64   1.879348 S    
C29   H65   1.107140 S    
P1    O1    1.549299 D    
O15   P16   1.540388 D    
O38   C13   1.395464 S    
C25   H57   1.107042 S    
C3    H5    1.110121 S    
P1    Ba1   3.449187 S    
O37   C14   1.395473 S    
C20   H48   1.110820 S    
P3    O3    1.549299 D    
C71   H77   1.068089 S    
O29   Ba1   2.826757 S    
P4    O20   1.769392 S    
P3    Ba3   3.449187 S    
P7    O48   1.598048 S    
C22   Br2   1.913366 S    
O31   Ba3   2.826757 S    
C35   C67   1.388703 A    
C16   H32   1.108286 S    
P9    O29   1.752232 S    
C74   H90   1.077416 S    
C34   C66   1.388687 A    
O22   P13   1.746095 S    
C19   H43   1.106908 S    
C33   C65   1.388721 A    
C36   C68   1.388663 A    
P13   C46   1.856269 S    
O28   Ba4   2.882300 S    
C25   H53   1.111345 S    
P12   O32   1.752312 S    
Ba4   O47   2.976989 S    
O23   C31   1.402802 S    
C30   H66   1.107118 S    
P5    O37   1.747870 S    
C9    H25   1.109471 S    
P11   C68   1.854377 S    
O4    Ba4   2.878693 S    
C10   H24   1.102383 S    
C60   C64   1.449693 A    
P10   C65   1.854570 S    
O21   C29   1.402796 S    
O16   P15   1.540225 D    
C11   H27   1.109526 S    
P9    C66   1.854598 S    
P2    O18   1.769661 S    
P12   C67   1.854527 S    
C56   C70   1.410678 A    
C39   C47   1.396011 A    
C40   C48   1.396040 A    
O41   C5    1.403237 S    
C14   H34   1.109791 S    
C38   C50   1.401110 A    
P4    O8    1.592986 S    
O6    Ba1   2.850971 S    
C3    H11   1.107923 S    
C73   H89   1.077250 S    
C28   H64   1.079129 S    
C43   C47   1.398284 A    
C53   C71   1.410698 A    
C4    H12   1.108674 S    
C52   C56   1.443303 A    
O9    Ba1   2.827507 S    
C28   H56   1.111295 S    
P5    O25   1.548617 D    
P9    O41   1.740689 S    
C17   H37   1.107651 S    
O18   C22   1.405906 S    
O12   P15   1.720879 S    
C25   H61   1.079133 S    
C18   H42   1.106969 S    
C22   H50   1.110636 S    
C37   C45   1.396021 A    
C6    H18   1.109518 S    
C24   Br4   1.912561 S    
C5    H17   1.109500 S    
Ba1   O45   2.851090 S    
C51   C55   1.443363 A    
C10   H26   1.109447 S    
C11   H73   1.110995 S    
H3    C31   1.111413 S    
C8    H20   1.109667 S    
C16   H36   1.109810 S    
C16   C20   1.523820 S    
P9    O33   1.542852 D    
P4    Ba4   3.449115 S    
O10   P13   1.721143 S    
C19   H47   1.110843 S    
P10   O30   1.752289 S    
C7    H19   1.109581 S    
C68   C72   1.399383 A    
O32   Ba4   2.826817 S    
C2    H72   1.109896 S    
P11   O35   1.542869 D    
O2    Ba2   2.878693 S    
C26   H54   1.111330 S    
P14   C45   1.856299 S    
C39   H87   1.082076 S    
C76   O52   1.218912 D    
C20   H44   1.106869 S    
C23   C27   1.508298 S    
C38   H86   1.082073 S    
C27   H63   1.079121 S    
C37   H85   1.082076 S    
O23   P16   1.746052 S    
C40   C52   1.401033 A    
C36   H84   1.082426 S    
C59   C63   1.449749 A    
O22   C30   1.402806 S    
O24   P15   1.745900 S    
P3    C51   1.902315 S    
C8    C12   1.513036 S    
O19   C23   1.405805 S    
C35   H83   1.082425 S    
P2    C50   1.902229 S    
C3    C31   1.516100 S    
C42   C46   1.398245 A    
C1    C29   1.516116 S    
C4    C32   1.516154 S    
O42   C6    1.403248 S    
P12   O44   1.740622 S    
C14   H30   1.108293 S    
P8    Ba4   3.451483 S    
C13   C17   1.523846 S    
O20   C24   1.405816 S    
C39   C51   1.401078 A    
C33   C61   1.399240 A    
C35   C63   1.399212 A    
C32   H68   1.107600 S    
C31   H67   1.107178 S    
C24   H52   1.110642 S    
C15   C19   1.523727 S    
P6    O26   1.548611 D    
C10   H76   1.110927 S    
C76   H92   1.077316 S    
P1    O5    1.593095 S    
O44   C8    1.403317 S    
C75   O51   1.218901 D    
C6    C10   1.513030 S    
C41   C45   1.398300 A    
O13   P14   1.540377 D    
C73   O49   1.218882 D    
O17   C21   1.405814 S    
C43   C73   1.466734 S    
O25   Ba1   2.882145 S    
O39   C16   1.395452 S    
C21   H49   1.110633 S    
Ba2   O46   2.850935 S    
C7    C11   1.512710 S    
P8    O47   1.598159 S    
C12   H22   1.102380 S    
O30   Ba2   2.826817 S    
C11   H21   1.102325 S    
C41   C75   1.466704 S    
P12   O36   1.542952 D    
Ba1   Ba2   4.669562 S    
P10   O34   1.542871 D    
C2    H8    1.110102 S    
C17   H41   1.106868 S    
P11   O31   1.752243 S    
C40   H88   1.082077 S    
Ba3   O47   2.851090 S    
Ba3   Ba4   4.669562 S    
P2    O6    1.592986 S    
P2    Ba2   3.449115 S    
O9    P14   1.721201 S    
C42   C60   1.426822 A    
C37   C49   1.401067 A    
Ba1   O46   2.977014 S    
O24   C32   1.402746 S    
P7    O27   1.548617 D    
C5    C9    1.513092 S    
C23   Br3   1.912501 S    
P4    C52   1.902493 S    
P6    O45   1.598159 S    
C18   H38   1.107667 S    
C57   C61   1.449763 A    
C22   C26   1.508373 S    
C58   C62   1.449672 A    
C55   C69   1.410674 A    
C4    H70   1.110153 S    
P15   C48   1.856181 S    
P6    Ba2   3.451483 S    
C8    H16   1.111195 S    
P16   C47   1.856268 S    
O27   Ba3   2.882145 S    
C2    C30   1.516128 S    
C44   C74   1.467145 S    
Ba3   O48   2.977014 S    
C19   H39   1.107685 S    
O3    Ba3   2.878849 S    
P6    O38   1.747927 S    
P7    Ba3   3.451408 S    
C27   H55   1.111317 S    
P8    O28   1.548611 D    
C24   C28   1.508256 S    
H2    C30   1.111362 S    
C15   H35   1.109821 S    
C43   C57   1.426902 A    
C23   H51   1.110644 S    
O5    Ba2   2.851127 S    
O10   Ba2   2.827446 S    
C42   C76   1.466668 S    
P8    O40   1.747893 S    
C44   C48   1.398256 A    
C1    H9    1.107896 S    
C41   C59   1.426875 A    
C4    H6    1.110490 S    
C67   C71   1.399429 A    
P10   O42   1.740649 S    
O40   C15   1.395446 S    
C13   H33   1.109847 S    
O11   P16   1.721111 S    
O14   P13   1.540385 D    
C70   H80   1.068007 S    
C18   H46   1.110871 S    
C54   C60   1.444206 A    
C17   H45   1.110774 S    
C50   C54   1.443278 A    
C26   H58   1.107042 S    
C49   C53   1.443324 A    
H4    C32   1.111890 S    
P8    C63   1.879513 S    
C44   C58   1.427067 A    
C9    H75   1.110979 S    
C3    H69   1.109926 S    
C74   O50   1.218926 D    
C53   C59   1.444253 A    
O7    Ba4   2.851127 S    
P5    Ba1   3.451408 S    
O12   Ba4   2.827446 S    
C65   C69   1.399428 A    
P3    O7    1.593095 S    
Ba4   O48   2.850935 S    
Ba2   O45   2.976989 S    
C21   C25   1.508320 S    
C56   C58   1.444372 A    
C6    H14   1.111155 S    
C34   C62   1.399266 A    
O1    Ba1   2.878849 S    
O21   P14   1.746073 S    
C55   C57   1.444261 A    
C5    H13   1.111174 S    
P1    C49   1.902241 S    
C34   H82   1.082427 S    
O11   Ba3   2.827507 S    
P5    O46   1.598048 S    
C38   C46   1.396041 A    
H1    C29   1.111395 S    
C33   H81   1.082424 S    
C66   C70   1.399349 A    
C36   C64   1.399185 A    
C7    H15   1.111168 S    
P7    O39   1.747928 S    
C13   H29   1.108237 S    
C72   H78   1.068055 S    
O43   C7    1.403171 S    
C1    H71   1.109908 S    
