data_mof_unit_40347.cif
_audit_creation_date              2013-03-05T15:40:55-0500
_audit_creation_method            fapswitch 2.2
_symmetry_space_group_name_H-M    P1
_symmetry_Int_Tables_number       1
_space_group_crystal_system       triclinic
_cell_length_a                    27.831045
_cell_length_b                    18.865323
_cell_length_c                    16.686211
_cell_angle_alpha                 89.968429
_cell_angle_beta                  63.00175
_cell_angle_gamma                 89.899481
_cell_volume                      7806.17795581

loop_
_atom_site_label
_atom_site_type_symbol
_atom_site_description
_atom_site_fract_x
_atom_site_fract_y
_atom_site_fract_z
_atom_type_partial_charge
O1    O     O_R   0.255040 0.869590 0.478480 -0.516901
O2    O     O_R   0.744960 0.130410 0.521520 -0.478141
O3    O     O_R   0.744960 0.869590 0.521520 -0.489111
O4    O     O_R   0.255040 0.130410 0.478480 -0.499673
O5    O     O_R   0.755040 0.369590 0.478480 -0.490933
O6    O     O_R   0.244960 0.630410 0.521520 -0.512203
O7    O     O_R   0.244960 0.369590 0.521520 -0.493391
O8    O     O_R   0.755040 0.630410 0.478480 -0.479641
O9    O     O_R   0.182050 0.796550 0.624440 -0.568681
O10   O     O_R   0.817950 0.203450 0.375560 -0.569975
O11   O     O_R   0.817950 0.796550 0.375560 -0.568034
O12   O     O_R   0.182050 0.203450 0.624440 -0.581182
O13   O     O_R   0.682050 0.296550 0.624440 -0.570191
O14   O     O_R   0.317950 0.703450 0.375560 -0.583602
O15   O     O_R   0.317950 0.296550 0.375560 -0.582348
O16   O     O_R   0.682050 0.703450 0.624440 -0.572821
Cu1   Cu    Cu3+1 0.209920 0.785290 0.495070 1.195424
Cu2   Cu    Cu3+1 0.790080 0.214710 0.504930 1.173246
Cu3   Cu    Cu3+1 0.790080 0.785290 0.504930 1.162973
Cu4   Cu    Cu3+1 0.209920 0.214710 0.495070 1.167605
Cu5   Cu    Cu3+1 0.709920 0.285290 0.495070 1.141497
Cu6   Cu    Cu3+1 0.290080 0.714710 0.504930 1.166862
Cu7   Cu    Cu3+1 0.290080 0.285290 0.504930 1.166974
Cu8   Cu    Cu3+1 0.709920 0.714710 0.495070 1.178136
C1    C     C_R   0.294654 0.728638 0.328641 0.752331
C2    C     C_R   0.703119 0.267336 0.672243 0.815825
C3    C     C_R   0.703742 0.731355 0.671964 0.812309
C4    C     C_R   0.295800 0.269592 0.328153 0.816107
C5    C     C_R   0.796276 0.231407 0.328012 0.813723
C6    C     C_R   0.209457 0.779331 0.667634 0.814139
C7    C     C_R   0.203237 0.232130 0.672018 0.798330
C8    C     C_R   0.796844 0.767426 0.327798 0.808959
O17   O     O_R   0.250530 0.763330 0.367210 -0.541126
O18   O     O_R   0.749470 0.236670 0.632790 -0.558771
O19   O     O_R   0.749470 0.763330 0.632790 -0.564913
O20   O     O_R   0.250530 0.236670 0.367210 -0.548696
O21   O     O_R   0.750530 0.263330 0.367210 -0.568318
O22   O     O_R   0.249470 0.736670 0.632790 -0.556422
O23   O     O_R   0.249470 0.263330 0.632790 -0.555356
O24   O     O_R   0.750530 0.736670 0.367210 -0.555152
O25   O     O_R   0.177260 0.690030 0.513710 -0.580692
O26   O     O_R   0.822740 0.309970 0.486290 -0.613549
O27   O     O_R   0.822740 0.690030 0.486290 -0.617228
O28   O     O_R   0.177260 0.309970 0.513710 -0.609377
O29   O     O_R   0.677260 0.190030 0.513710 -0.623462
O30   O     O_R   0.322740 0.809970 0.486290 -0.555561
O31   O     O_R   0.322740 0.190030 0.486290 -0.588479
O32   O     O_R   0.677260 0.809970 0.513710 -0.613765
C9    C     C_R   0.199428 0.631080 0.516724 0.812116
C10   C     C_R   0.803031 0.368140 0.473484 0.828780
C11   C     C_R   0.803233 0.631677 0.473080 0.832663
C12   C     C_R   0.196730 0.368484 0.525729 0.831426
C13   C     C_R   0.696604 0.131699 0.526874 0.837006
C14   C     C_R   0.303922 0.868107 0.470974 0.820957
C15   C     C_R   0.300263 0.130937 0.483145 0.812515
C16   C     C_R   0.697182 0.868277 0.525199 0.826331
C17   C     C_R   0.066325 0.625731 0.445044 -0.073167
C18   C     C_R   0.964552 0.369651 0.447134 -0.080473
C19   C     C_R   0.971810 0.625987 0.422093 -0.076423
C20   C     C_R   0.046787 0.371367 0.501285 -0.083829
C21   C     C_R   0.524544 0.123675 0.581786 -0.078179
C22   C     C_R   0.460876 0.873629 0.471014 -0.052075
C23   C     C_R   0.427246 0.120933 0.566006 -0.077345
C24   C     C_R   0.541837 0.870461 0.527926 -0.069719
C25   C     C_R   0.046533 0.690282 0.427191 0.240733
C26   C     C_R   0.985028 0.305032 0.462094 0.261573
C27   C     C_R   0.999727 0.689888 0.414458 0.238289
C28   C     C_R   0.023913 0.306150 0.494250 0.260116
C29   C     C_R   0.490508 0.183991 0.605928 0.249855
C30   C     C_R   0.487873 0.809224 0.468037 0.274861
C31   C     C_R   0.441698 0.182297 0.598999 0.254726
C32   C     C_R   0.525811 0.806899 0.502196 0.255319
C33   C     C_R   0.991449 0.562469 0.440614 -0.014822
C34   C     C_R   0.030334 0.434713 0.476826 -0.009770
C35   C     C_R   0.038020 0.562462 0.453934 -0.017656
C36   C     C_R   0.986666 0.434223 0.456030 -0.012715
C37   C     C_R   0.460430 0.060684 0.543901 -0.013390
C38   C     C_R   0.518194 0.934980 0.523861 -0.005380
C39   C     C_R   0.507764 0.061371 0.555243 -0.016461
C40   C     C_R   0.474819 0.935751 0.502506 -0.012214
C41   C     C_R   0.445412 0.998678 0.513100 0.057336
C42   C     C_R   0.537214 0.998603 0.543588 0.057860
C43   C     C_R   0.964918 0.498478 0.444106 0.055500
C44   C     C_R   0.056422 0.498869 0.475649 0.053491
C45   C     C_R   0.384847 0.936429 0.466330 0.029523
C46   C     C_R   0.609361 0.063920 0.557287 -0.016507
C47   C     C_R   0.611828 0.934305 0.548710 -0.021261
C48   C     C_R   0.368330 0.060676 0.512922 -0.015126
C49   C     C_R   0.889770 0.434130 0.441079 -0.019006
C50   C     C_R   0.129806 0.562794 0.486651 -0.029503
C51   C     C_R   0.118107 0.435590 0.519578 -0.011989
C52   C     C_R   0.890604 0.563658 0.437539 -0.021111
C53   C     C_R   0.335339 0.935119 0.460101 -0.186843
C54   C     C_R   0.664749 0.064864 0.540849 -0.189851
C55   C     C_R   0.665667 0.934657 0.538206 -0.193970
C56   C     C_R   0.326862 0.063185 0.484904 -0.218471
C57   C     C_R   0.834696 0.434477 0.457926 -0.194161
C58   C     C_R   0.171811 0.564154 0.514133 -0.218992
C59   C     C_R   0.165828 0.435231 0.532014 -0.200151
C60   C     C_R   0.834984 0.564635 0.457135 -0.185814
C61   C     C_R   0.311188 0.999885 0.457517 0.246601
C62   C     C_R   0.692562 0.999890 0.527899 0.278049
C63   C     C_R   0.807154 0.499729 0.471414 0.284670
C64   C     C_R   0.187931 0.500386 0.539326 0.252395
C65   C     C_R   0.399899 0.998879 0.496213 0.088686
C66   C     C_R   0.586350 0.999079 0.549731 0.074920
C67   C     C_R   0.915042 0.498789 0.440592 0.077042
C68   C     C_R   0.101308 0.499216 0.494727 0.076600
C69   C     C_R   0.582748 0.871389 0.554295 -0.119338
C70   C     C_R   0.379413 0.117772 0.557204 -0.117036
C71   C     C_R   0.418647 0.876495 0.447089 -0.056880
C72   C     C_R   0.575587 0.124636 0.581186 -0.115157
C73   C     C_R   0.086519 0.374267 0.530682 -0.118756
C74   C     C_R   0.922800 0.625143 0.416807 -0.120076
C75   C     C_R   0.920289 0.371346 0.428609 -0.126533
C76   C     C_R   0.114552 0.622913 0.452219 -0.094295
H1    H     H_    0.590644 0.822565 0.578951 0.214082
H2    H     H_    0.350106 0.159104 0.588427 0.195743
H3    H     H_    0.412187 0.831522 0.413615 0.196621
H4    H     H_    0.587890 0.172415 0.601714 0.211747
H5    H     H_    0.090444 0.328820 0.565923 0.215591
H6    H     H_    0.910446 0.672683 0.395783 0.211818
H7    H     H_    0.909867 0.323115 0.406359 0.214302
H8    H     H_    0.140699 0.667435 0.425925 0.235698
C77   C     C_R   0.250116 0.821352 0.927992 0.022238
C78   C     C_R   0.764554 0.206904 0.062025 0.048863
C79   C     C_R   0.796554 0.737984 0.029947 0.044077
C80   C     C_R   0.204243 0.260977 0.967274 0.024941
C81   C     C_R   0.703176 0.237540 0.970384 0.044031
C82   C     C_R   0.306429 0.778068 0.023717 0.022706
C83   C     C_R   0.266028 0.293336 0.057541 0.025634
C84   C     C_R   0.735117 0.707251 0.938449 0.049441
C85   C     C_R   0.298421 0.780483 0.884959 0.008068
C86   C     C_R   0.724985 0.260572 0.093762 -0.032243
C87   C     C_R   0.755965 0.685556 0.064080 -0.021654
C88   C     C_R   0.243684 0.314758 0.932476 -0.010224
C89   C     C_R   0.743885 0.185133 0.936319 -0.020075
C90   C     C_R   0.264974 0.829220 0.060914 -0.010244
C91   C     C_R   0.225334 0.241313 0.091740 0.010378
C92   C     C_R   0.774561 0.760922 0.906683 -0.032740
C93   C     C_R   0.329233 0.763235 0.931411 0.082201
C94   C     C_R   0.688596 0.267296 0.056130 -0.009184
C95   C     C_R   0.730235 0.663229 0.010894 -0.008394
C96   C     C_R   0.275118 0.332349 0.978266 0.011651
C97   C     C_R   0.769544 0.162797 0.989629 -0.009930
C98   C     C_R   0.234084 0.849070 0.015550 0.013941
C99   C     C_R   0.189570 0.233060 0.053649 0.068762
C100  C     C_R   0.810970 0.767734 0.944258 -0.007797
C101  C     C_R   0.168899 0.872621 0.925236 0.049419
C102  C     C_R   0.836869 0.141550 0.074520 0.029221
C103  C     C_R   0.866516 0.809203 0.042616 0.035605
C104  C     C_R   0.133992 0.189201 0.956522 0.081951
C105  C     C_R   0.633169 0.308738 0.957562 0.033976
C106  C     C_R   0.371252 0.698104 0.040898 0.080718
C107  C     C_R   0.336905 0.359660 0.072890 0.039280
C108  C     C_R   0.662966 0.641791 0.925859 0.031038
C109  C     C_R   0.132150 0.875040 0.886448 -0.106297
C110  C     C_R   0.874031 0.136098 0.111005 -0.107544
C111  C     C_R   0.887277 0.841966 0.097703 -0.114182
C112  C     C_R   0.113313 0.156333 0.901532 -0.103933
C113  C     C_R   0.612540 0.341692 0.902398 -0.112000
C114  C     C_R   0.386711 0.657577 0.098072 -0.103322
C115  C     C_R   0.372749 0.366625 0.111863 -0.107222
C116  C     C_R   0.625928 0.636131 0.889097 -0.104528
C117  C     C_R   0.146783 0.842495 0.803826 -0.241444
C118  C     C_R   0.862835 0.171565 0.190970 -0.221606
C119  C     C_R   0.864746 0.824144 0.188954 -0.217415
C120  C     C_R   0.136259 0.173118 0.809901 -0.244746
C121  C     C_R   0.635127 0.323950 0.811127 -0.210545
C122  C     C_R   0.359668 0.668825 0.190885 -0.245923
C123  C     C_R   0.360725 0.332224 0.192689 -0.244974
C124  C     C_R   0.637218 0.671450 0.808965 -0.225520
H9    H     H_    0.118952 0.843579 0.774818 0.195427
H10   H     H_    0.886825 0.160472 0.225641 0.202227
H11   H     H_    0.878326 0.852048 0.231664 0.210576
H12   H     H_    0.123305 0.144373 0.766942 0.201974
H13   H     H_    0.621556 0.351977 0.768410 0.209189
H14   H     H_    0.371644 0.638398 0.233987 0.200078
H15   H     H_    0.384239 0.343817 0.228006 0.198763
H16   H     H_    0.613368 0.660220 0.774128 0.196906
C125  C     C_R   0.196738 0.809588 0.756972 -0.094112
C126  C     C_R   0.819163 0.217956 0.229628 -0.075665
C127  C     C_R   0.823638 0.773605 0.227390 -0.087789
C128  C     C_R   0.176391 0.224809 0.771968 -0.081846
C129  C     C_R   0.676315 0.273388 0.772663 -0.088463
C130  C     C_R   0.317371 0.717623 0.229951 -0.098627
C131  C     C_R   0.317741 0.284966 0.230278 -0.074869
C132  C     C_R   0.680782 0.717891 0.770399 -0.074584
C133  C     C_R   0.233201 0.806237 0.796209 -0.044496
C134  C     C_R   0.792733 0.239691 0.177528 -0.042236
C135  C     C_R   0.805430 0.737097 0.170626 -0.037553
C136  C     C_R   0.193101 0.262504 0.829298 -0.045083
C137  C     C_R   0.694568 0.236800 0.829448 -0.037151
C138  C     C_R   0.299398 0.755552 0.173648 -0.026327
C139  C     C_R   0.291689 0.263140 0.177541 -0.042805
C140  C     C_R   0.706997 0.739780 0.822696 -0.042467
C141  C     C_R   0.216731 0.832075 0.884058 0.045455
C142  C     C_R   0.798215 0.196308 0.104391 0.029471
C143  C     C_R   0.822566 0.761792 0.081527 0.031036
C144  C     C_R   0.177493 0.236864 0.917220 0.029888
C145  C     C_R   0.677227 0.261364 0.918672 0.031730
C146  C     C_R   0.326432 0.744356 0.079321 0.037562
C147  C     C_R   0.298265 0.305275 0.102530 0.036111
C148  C     C_R   0.701517 0.696539 0.895985 0.029493
C149  C     C_R   0.160251 0.910258 0.003035 -0.171471
C150  C     C_R   0.834235 0.090718 0.014936 -0.139943
C151  C     C_R   0.889574 0.818958 0.948592 -0.127554
C152  C     C_R   0.110982 0.180390 0.050704 -0.237219
C153  C     C_R   0.609915 0.318375 0.051621 -0.127290
C154  C     C_R   0.401058 0.698472 0.946381 -0.234575
C155  C     C_R   0.339485 0.404309 0.003777 -0.156237
C156  C     C_R   0.665633 0.591135 0.985675 -0.136978
C157  C     C_R   0.186500 0.892122 0.054064 -0.058659
C158  C     C_R   0.799633 0.098901 0.975224 -0.032897
C159  C     C_R   0.861861 0.801085 0.899415 -0.035217
C160  C     C_R   0.138215 0.200786 0.099505 -0.069583
C161  C     C_R   0.637603 0.300589 0.100906 -0.028726
C162  C     C_R   0.381992 0.732868 0.891590 -0.039227
C163  C     C_R   0.315961 0.385616 0.948788 -0.042845
C164  C     C_R   0.700219 0.599377 0.025403 -0.031289
C165  C     C_R   0.286717 0.780885 0.749838 0.334556
C166  C     C_R   0.760829 0.301976 0.195409 0.325395
C167  C     C_R   0.770644 0.677262 0.198279 0.327614
C168  C     C_R   0.221589 0.327430 0.806299 0.349057
C169  C     C_R   0.729596 0.177053 0.801756 0.324428
C170  C     C_R   0.258001 0.808306 0.205202 0.336630
C171  C     C_R   0.259890 0.201024 0.195478 0.320693
C172  C     C_R   0.738691 0.802110 0.804869 0.326000
C173  C     C_R   0.313056 0.756110 0.797778 -0.179176
C174  C     C_R   0.726255 0.310195 0.155731 -0.284655
C175  C     C_R   0.742578 0.657824 0.149959 -0.257558
C176  C     C_R   0.244923 0.353353 0.859215 -0.259560
C177  C     C_R   0.757512 0.157486 0.850342 -0.265341
C178  C     C_R   0.255934 0.856180 0.144151 -0.257023
C179  C     C_R   0.225561 0.192819 0.155643 -0.180702
C180  C     C_R   0.773162 0.810466 0.844680 -0.282650
H17   H     H_    0.131300 0.952526 0.028795 0.209002
H18   H     H_    0.855483 0.040967 0.005254 0.196995
H19   H     H_    0.930646 0.836356 0.910772 0.204787
H20   H     H_    0.070011 0.162744 0.089339 0.178053
H21   H     H_    0.568764 0.335730 0.089292 0.204611
H22   H     H_    0.441584 0.677445 0.914214 0.164763
H23   H     H_    0.362167 0.452963 0.988179 0.202806
H24   H     H_    0.644488 0.541395 0.995452 0.196755
H25   H     H_    0.347991 0.723222 0.762020 0.197683
H26   H     H_    0.702740 0.358393 0.169020 0.222443
H27   H     H_    0.710597 0.619673 0.180694 0.203375
H28   H     H_    0.259633 0.406897 0.846091 0.180624
H29   H     H_    0.789598 0.119320 0.819721 0.201363
H30   H     H_    0.235183 0.905441 0.169934 0.192783
H31   H     H_    0.201581 0.145044 0.169925 0.192792
H32   H     H_    0.796516 0.858698 0.831417 0.221934
O33   O     O_R   0.051640 0.926880 0.885090 -0.571300
O34   O     O_R   0.948360 0.073120 0.114910 -0.575055
O35   O     O_R   0.948360 0.926880 0.114910 -0.555824
O36   O     O_R   0.051640 0.073120 0.885090 -0.566835
O37   O     O_R   0.551640 0.426880 0.885090 -0.555728
O38   O     O_R   0.448360 0.573120 0.114910 -0.565361
O39   O     O_R   0.448360 0.426880 0.114910 -0.577997
O40   O     O_R   0.551640 0.573120 0.885090 -0.580497
Cu9   Cu    Cu3+1 0.495240 0.500000 0.924150 1.058790
Cu10  Cu    Cu3+1 0.504760 0.500000 0.075850 1.068262
Cu11  Cu    Cu3+1 0.995240 1.000000 0.924150 1.069672
Cu12  Cu    Cu3+1 0.004760 0.000000 0.075850 1.049011
C181  C     C_R   0.927921 0.900285 0.064822 0.787743
C182  C     C_R   0.072302 0.099145 0.934945 0.786992
C183  C     C_R   0.078676 0.911197 0.929646 0.791109
C184  C     C_R   0.922876 0.091528 0.069632 0.795549
C185  C     C_R   0.422426 0.409463 0.069995 0.794877
C186  C     C_R   0.577127 0.591521 0.930368 0.790176
C187  C     C_R   0.572006 0.400193 0.935246 0.788567
C188  C     C_R   0.428054 0.599954 0.064632 0.778360
O41   O     O_R   0.940620 0.926560 0.986760 -0.592844
O42   O     O_R   0.059380 0.073440 0.013240 -0.608516
O43   O     O_R   0.059380 0.926560 0.013240 -0.589364
O44   O     O_R   0.940620 0.073440 0.986760 -0.576807
O45   O     O_R   0.440620 0.426560 0.986760 -0.578860
O46   O     O_R   0.559380 0.573440 0.013240 -0.574842
O47   O     O_R   0.559380 0.426560 0.013240 -0.593655
O48   O     O_R   0.440620 0.573440 0.986760 -0.596167
N1    N     N_R   0.551887 0.741126 0.501776 0.143614
O49   O     O_R   0.581129 0.708776 0.426193 -0.280881
O50   O     O_R   0.542629 0.710542 0.577299 -0.343533
N2    N     N_R   0.407131 0.243366 0.625540 0.139976
O51   O     O_R   0.388405 0.267692 0.707122 -0.343482
O52   O     O_R   0.397118 0.277336 0.566873 -0.314936
N3    N     N_R   0.475498 0.745491 0.434077 0.153811
O53   O     O_R   0.461478 0.688330 0.483011 -0.233569
O54   O     O_R   0.484954 0.741984 0.350323 -0.349932
N4    N     N_R   0.505198 0.247402 0.637027 0.139587
O55   O     O_R   0.507427 0.307731 0.597679 -0.265561
O56   O     O_R   0.511155 0.246126 0.709981 -0.339423
N5    N     N_R   0.042353 0.240508 0.514146 0.145034
O57   O     O_R   0.065574 0.193412 0.451226 -0.246362
O58   O     O_R   0.029840 0.224141 0.597042 -0.330544
N6    N     N_R   0.978311 0.755471 0.400825 0.143399
O59   O     O_R   0.958081 0.801810 0.465463 -0.273145
O60   O     O_R   0.980565 0.769814 0.322917 -0.334193
N7    N     N_R   0.963577 0.238414 0.451799 0.142436
O61   O     O_R   0.941464 0.195190 0.519616 -0.265914
O62   O     O_R   0.970492 0.218177 0.372743 -0.358847
N8    N     N_R   0.071217 0.757007 0.428251 0.176648
O63   O     O_R   0.076128 0.806114 0.370236 -0.230431
O64   O     O_R   0.081410 0.772672 0.494952 -0.301940
N9    N     N_R   0.272064 0.000940 0.423575 0.169361
O65   O     O_R   0.286988 0.983719 0.340112 -0.285379
O66   O     O_R   0.220813 0.002963 0.479343 -0.275104
N10   N     N_R   0.750069 0.000137 0.494794 0.144137
O67   O     O_R   0.781563 0.000151 0.408571 -0.373389
O68   O     O_R   0.770880 0.999098 0.550665 -0.196171
N11   N     N_R   0.749334 0.500044 0.509347 0.142278
O69   O     O_R   0.725945 0.499459 0.457187 -0.203260
O70   O     O_R   0.720145 0.500543 0.596243 -0.378913
N12   N     N_R   0.223989 0.502380 0.579264 0.180665
O71   O     O_R   0.206138 0.526357 0.660922 -0.278499
O72   O     O_R   0.275845 0.498317 0.528405 -0.283948
C189  C     C_2   0.155643 0.909381 0.150944 0.416473
H33   H     H_    0.149806 0.869295 0.201029 0.161504
O73   O     O_2   0.135217 0.967793 0.175583 -0.506964
C190  C     C_2   0.788920 0.035304 0.933192 0.373392
H34   H     H_    0.751418 0.030861 0.928477 0.101550
O74   O     O_2   0.821351 0.986607 0.904790 -0.514285
C191  C     C_2   0.890233 0.808509 0.799795 0.423325
H35   H     H_    0.877229 0.778142 0.757969 0.083635
O75   O     O_2   0.928839 0.848101 0.763173 -0.470534
C192  C     C_2   0.107738 0.196564 0.199143 0.442664
H36   H     H_    0.076171 0.157256 0.230168 0.134930
O76   O     O_2   0.115456 0.239069 0.247251 -0.498216
C193  C     C_2   0.609162 0.308095 0.200505 0.412743
H37   H     H_    0.622247 0.277842 0.242390 0.079037
O77   O     O_2   0.570412 0.347636 0.237043 -0.482257
C194  C     C_2   0.422737 0.746854 0.797561 0.381944
H38   H     H_    0.455745 0.709870 0.763399 0.122138
O78   O     O_2   0.421682 0.801629 0.759303 -0.499041
C195  C     C_2   0.342327 0.415867 0.856616 0.421811
H39   H     H_    0.347672 0.383762 0.799352 0.159379
O79   O     O_2   0.359641 0.476462 0.843303 -0.514882
C196  C     C_2   0.711037 0.535798 0.067487 0.374169
H40   H     H_    0.748619 0.531217 0.071951 0.100396
O80   O     O_2   0.678602 0.487268 0.096213 -0.513382
N13   N     N_R   0.320470 0.804031 0.660189 0.144719
O81   O     O_R   0.362304 0.766561 0.607832 -0.320643
O82   O     O_R   0.317873 0.870257 0.640952 -0.397574
N14   N     N_R   0.767886 0.360995 0.243816 0.144856
O83   O     O_R   0.728847 0.406058 0.284910 -0.272609
O84   O     O_R   0.815099 0.374528 0.238475 -0.354303
N15   N     N_R   0.770334 0.628345 0.264672 0.145665
O85   O     O_R   0.814892 0.614618 0.269193 -0.369109
O86   O     O_R   0.728007 0.589660 0.311051 -0.251525
N16   N     N_R   0.220099 0.373505 0.739205 0.141829
O87   O     O_R   0.261798 0.412462 0.690521 -0.257288
O88   O     O_R   0.175287 0.382679 0.733786 -0.366140
N17   N     N_R   0.730394 0.128330 0.734917 0.146394
O89   O     O_R   0.686006 0.114247 0.730108 -0.362408
O90   O     O_R   0.773070 0.090110 0.688393 -0.255364
N18   N     N_R   0.206176 0.794639 0.278148 0.135818
O91   O     O_R   0.183061 0.733933 0.282508 -0.391317
O92   O     O_R   0.179102 0.845838 0.332156 -0.261665
N19   N     N_R   0.267163 0.141800 0.243381 0.145181
O93   O     O_R   0.314660 0.127475 0.236494 -0.342497
O94   O     O_R   0.227915 0.097421 0.285634 -0.261077
N20   N     N_R   0.731516 0.861044 0.756352 0.144857
O95   O     O_R   0.770404 0.906182 0.715437 -0.267141
O96   O     O_R   0.684309 0.874457 0.761471 -0.354121

loop_
_geom_bond_atom_site_label_1
_geom_bond_atom_site_label_2
_geom_bond_distance
_ccdc_geom_bond_type
C140  C172  1.419240 A    
Cu2   Cu5   2.664521 S    
C64   N12   1.435245 S    
C70   H2    1.075701 S    
C46   C66   1.413718 A    
O33   C183  1.308950 A    
C183  O43   1.279778 A    
C122  H14   1.083690 S    
O37   Cu9   1.963680 S    
C31   N2    1.434844 S    
N2    O51   1.300400 A    
C77   C98   1.419581 A    
C2    C129  1.497424 S    
C139  C147  1.422457 A    
Cu6   O22   1.952147 S    
C137  C145  1.418386 A    
C6    O22   1.278839 A    
C82   C93   1.402055 A    
C95   C164  1.423744 A    
C171  N19   1.439905 S    
N3    O54   1.301096 A    
O3    Cu3   1.964834 S    
C192  H36   1.085662 S    
C50   C76   1.419766 A    
C140  C148  1.419238 A    
C76   H8    1.067404 S    
C19   C33   1.407413 A    
C82   C146  1.429108 A    
C55   C62   1.410837 A    
O15   Cu7   1.945911 S    
C150  C158  1.403217 A    
C187  O47   1.284331 A    
C33   C35   1.410982 A    
C178  H30   1.074824 S    
C36   C43   1.407774 A    
O25   C9    1.282833 A    
N17   O90   1.301418 A    
C17   C76   1.401543 A    
C105  C145  1.413396 A    
C37   C39   1.413451 A    
C118  H10   1.083677 S    
C75   H7    1.071888 S    
C177  H29   1.077398 S    
C191  H35   1.084799 S    
C154  H22   1.080066 S    
C4    C131  1.489588 S    
C53   C61   1.403520 A    
C195  O79   1.221780 D    
C81   C94   1.414158 A    
C156  C164  1.403620 A    
C3    O19   1.287547 A    
N12   O71   1.301254 A    
Cu12  O42   1.971210 S    
C105  C113  1.428754 A    
C93   C162  1.427369 A    
C38   C42   1.410671 A    
O34   C184  1.296080 A    
O12   Cu4   1.945911 S    
O13   Cu5   1.945874 S    
C150  H18   1.080821 S    
C57   C63   1.412064 A    
N6    O59   1.300947 A    
C23   C31   1.417198 A    
C91   C179  1.406782 A    
C153  H21   1.076683 S    
C82   C90   1.412135 A    
C135  C167  1.421983 A    
C8    O24   1.289629 A    
C133  C141  1.409416 A    
C175  H27   1.077322 S    
C50   C58   1.436800 A    
O2    C13   1.307856 A    
C80   C99   1.409589 A    
C139  C171  1.417311 A    
C153  C161  1.398876 A    
C137  C169  1.422001 A    
C106  C154  1.409856 A    
Cu3   O19   1.952489 S    
C138  C170  1.428598 A    
Cu9   O48   1.968267 S    
O10   Cu2   1.945874 S    
C63   N11   1.437129 S    
Cu10  O47   1.968269 S    
C111  C119  1.399277 A    
C21   C29   1.415854 A    
C112  C120  1.399820 A    
N16   O87   1.301257 A    
C159  C191  1.488188 S    
C97   C158  1.423419 A    
O4    Cu4   1.964836 S    
O5    Cu5   1.968153 S    
C78   C86   1.409078 A    
C30   N3    1.436928 S    
N19   O93   1.301727 A    
C126  C134  1.429702 A    
C103  C151  1.411784 A    
C33   C43   1.403549 A    
C103  C111  1.429982 A    
C138  C146  1.418675 A    
C16   C55   1.486001 S    
C176  H28   1.075051 S    
C49   C75   1.415593 A    
C112  C182  1.484399 S    
C172  N20   1.440963 S    
C118  C126  1.394412 A    
O27   C11   1.290814 A    
C18   C36   1.403756 A    
C83   C147  1.425383 A    
C22   C30   1.416414 A    
C34   C36   1.407280 A    
C22   C40   1.409831 A    
O7    C12   1.312091 A    
Cu2   O26   1.975090 S    
Cu9   Cu10  2.662067 S    
C38   C40   1.405331 A    
C35   C44   1.413762 A    
C61   N9    1.437566 S    
N20   O95   1.301651 A    
C104  C152  1.412028 A    
C162  C194  1.484064 S    
C71   H3    1.075344 S    
C19   C27   1.409400 A    
C45   C53   1.428312 A    
C22   C71   1.403350 A    
N9    O66   1.302562 A    
C47   C55   1.427412 A    
C27   N6    1.434557 S    
C163  C195  1.485064 S    
C81   C145  1.425605 A    
C78   C142  1.420497 A    
O16   C3    1.306402 A    
C136  C144  1.412926 A    
O29   C13   1.286095 A    
C188  O48   1.283917 A    
C193  O77   1.221439 D    
C123  H15   1.083589 S    
O38   Cu10  1.963677 S    
C180  H32   1.081959 S    
C107  C147  1.405041 A    
C121  H13   1.083307 S    
Cu4   O28   1.972498 S    
C78   C97   1.421042 A    
N10   O68   1.301981 A    
Cu5   O29   1.975089 S    
N13   O82   1.299815 A    
C41   C65   1.417007 A    
Cu7   O31   1.972498 S    
C5    C126  1.488507 S    
Cu8   O32   1.972498 S    
C194  H38   1.085545 S    
C102  C150  1.407462 A    
C109  C117  1.390593 A    
Cu11  O41   1.971210 S    
C195  H39   1.083169 S    
C191  O75   1.221447 D    
C190  O74   1.221652 D    
N5    O57   1.300887 A    
Cu2   O18   1.952147 S    
Cu4   Cu7   2.668520 S    
C28   N5    1.434964 S    
C184  O44   1.285461 A    
N18   O92   1.301814 A    
C185  O45   1.284907 A    
C20   C28   1.415462 A    
O9    C6    1.305677 A    
O26   C10   1.286422 A    
C181  O41   1.284213 A    
O11   C8    1.307182 A    
C196  O80   1.221639 D    
N11   O70   1.301140 A    
O12   C7    1.302828 A    
O13   C2    1.306476 A    
C116  C124  1.396008 A    
C81   C89   1.412865 A    
C165  C173  1.387985 A    
O38   C188  1.307083 A    
C119  H11   1.083296 S    
C11   C60   1.494747 S    
C120  H12   1.083342 S    
C13   C54   1.498670 S    
C24   C38   1.398828 A    
C130  C138  1.438577 A    
C34   C44   1.408044 A    
O40   Cu9   1.967040 S    
C174  H26   1.081961 S    
C39   C42   1.401395 A    
C173  H25   1.076032 S    
N1    O50   1.300864 A    
C155  C163  1.393360 A    
O1    Cu1   1.968153 S    
C170  C178  1.381571 A    
C17   C35   1.401515 A    
N2    O52   1.301178 A    
C50   C68   1.411356 A    
N8    O64   1.301480 A    
C48   C65   1.408242 A    
C24   C69   1.394710 A    
C21   C39   1.409277 A    
O7    Cu7   1.964834 S    
O8    Cu8   1.964836 S    
C42   C66   1.417045 A    
O40   C186  1.296988 A    
C83   C91   1.409969 A    
Cu9   O45   1.971210 S    
N14   O83   1.301664 A    
C166  C174  1.402159 A    
C107  C115  1.422977 A    
C192  O76   1.221235 D    
C32   N1    1.434797 S    
C51   C59   1.434293 A    
C21   C72   1.416218 A    
C1    O17   1.276974 A    
C169  N17   1.437990 S    
C48   C56   1.429137 A    
C7    C128  1.492503 S    
C8    C127  1.497494 S    
C164  C196  1.487330 S    
N17   O89   1.301674 A    
C69   H1    1.070931 S    
Cu11  Cu12  2.662067 S    
O11   Cu3   1.945911 S    
C115  C185  1.476160 S    
C89   C97   1.433214 A    
C79   C87   1.413464 A    
C80   C88   1.412817 A    
O2    Cu2   1.968151 S    
C26   C28   1.409539 A    
N12   O72   1.302525 A    
O6    Cu6   1.968151 S    
C29   N4    1.436136 S    
N4    O55   1.301052 A    
C160  C192  1.486508 S    
C189  O73   1.221739 D    
C14   C53   1.501746 S    
C125  C133  1.437148 A    
C167  C175  1.402794 A    
C25   C27   1.411887 A    
C128  C136  1.429311 A    
O37   C187  1.305525 A    
C115  C123  1.393605 A    
C166  N14   1.440995 S    
O39   C185  1.297230 A    
C151  H19   1.076445 S    
C79   C100  1.414009 A    
C48   C70   1.417866 A    
C124  H16   1.083637 S    
C84   C95   1.421118 A    
N6    O60   1.301061 A    
C59   C64   1.405397 A    
C149  C157  1.392589 A    
C87   C175  1.407520 A    
C56   C61   1.417251 A    
C152  H20   1.077176 S    
Cu1   O17   1.952145 S    
C106  C146  1.413887 A    
Cu3   O27   1.972498 S    
C84   C148  1.421185 A    
C155  H23   1.077673 S    
C136  C168  1.415191 A    
C101  C149  1.401443 A    
N15   O85   1.301677 A    
C15   C56   1.482881 S    
O35   C181  1.306512 A    
C60   C63   1.411199 A    
C79   C143  1.426145 A    
N7    O61   1.301025 A    
C80   C144  1.422999 A    
C86   C94   1.418759 A    
N3    O53   1.301175 A    
C114  C122  1.396942 A    
C37   C41   1.415830 A    
C114  C188  1.493449 S    
C122  C130  1.399392 A    
C151  C159  1.399190 A    
N16   O88   1.301995 A    
Cu6   O30   1.975090 S    
C168  N16   1.432336 S    
O4    C15   1.295868 A    
C6    C125  1.481375 S    
O5    C10   1.300142 A    
C90   C178  1.390737 A    
C157  C189  1.481873 S    
C62   N10   1.436673 S    
C110  C118  1.395694 A    
C72   H4    1.074671 S    
C116  C186  1.476939 S    
C102  C110  1.422004 A    
C51   C68   1.415917 A    
C17   C25   1.421763 A    
C45   C71   1.410260 A    
C106  C114  1.431961 A    
C167  N15   1.438501 S    
C47   C69   1.416793 A    
C84   C92   1.409350 A    
C85   C93   1.429792 A    
Cu1   Cu6   2.664521 S    
C169  C177  1.402732 A    
C186  O46   1.285480 A    
C134  C166  1.419274 A    
Cu3   Cu8   2.668520 S    
C88   C96   1.437864 A    
C105  C153  1.411688 A    
O10   C5    1.305538 A    
O14   Cu6   1.945874 S    
O15   C4    1.307176 A    
N20   O96   1.301705 A    
C182  O42   1.282438 A    
C19   C74   1.406337 A    
C44   C68   1.422328 A    
C170  N18   1.426685 S    
C3    C132  1.489246 S    
O14   C1    1.310885 A    
C85   C173  1.398444 A    
C98   C157  1.431979 A    
C1    C130  1.486403 S    
C121  C129  1.401667 A    
C49   C67   1.407326 A    
Cu4   O20   1.952488 S    
C46   C72   1.418075 A    
Cu5   O21   1.952145 S    
O35   Cu12  1.967040 S    
C4    O20   1.286331 A    
N5    O58   1.300953 A    
N9    O65   1.300942 A    
O36   Cu11  1.967040 S    
C5    O21   1.285745 A    
C92   C180  1.407441 A    
C101  C109  1.438017 A    
C102  C142  1.408094 A    
C83   C96   1.432215 A    
C161  C193  1.487994 S    
N11   O69   1.302222 A    
C104  C112  1.427939 A    
C108  C156  1.407468 A    
C193  H37   1.084781 S    
C179  H31   1.082568 S    
O39   Cu10  1.967040 S    
C92   C100  1.419075 A    
N13   O81   1.301066 A    
C113  C187  1.491963 S    
C88   C176  1.409427 A    
C91   C99   1.412082 A    
C135  C143  1.418127 A    
C168  C176  1.400990 A    
C133  C165  1.413293 A    
C117  H9    1.083962 S    
Cu10  O46   1.971210 S    
C26   N7    1.435755 S    
C20   C34   1.404121 A    
C29   C31   1.415076 A    
C46   C54   1.438068 A    
C9    C58   1.490102 S    
C2    O18   1.287993 A    
C119  C127  1.402210 A    
C7    O23   1.291537 A    
C120  C128  1.400126 A    
C158  C190  1.487379 S    
C134  C142  1.419163 A    
C86   C174  1.407550 A    
C77   C141  1.435012 A    
O16   Cu8   1.945911 S    
C104  C144  1.409489 A    
O30   C14   1.289071 A    
C20   C73   1.399695 A    
C45   C65   1.415688 A    
C18   C26   1.414055 A    
C109  C183  1.490868 S    
Cu12  O43   1.968269 S    
C110  C184  1.475181 S    
C165  N13   1.426776 S    
C103  C143  1.414168 A    
C96   C163  1.428177 A    
C99   C160  1.417243 A    
N1    O49   1.300993 A    
C51   C73   1.414555 A    
C49   C57   1.427300 A    
O33   Cu11  1.963680 S    
C149  H17   1.074012 S    
O1    C14   1.308594 A    
C94   C161  1.414740 A    
N15   O86   1.301498 A    
O3    C16   1.303271 A    
C52   C67   1.411111 A    
C73   H5    1.072499 S    
N19   O94   1.301731 A    
N7    O62   1.301049 A    
O8    C11   1.303099 A    
C132  C140  1.429640 A    
O9    Cu1   1.945874 S    
N14   O84   1.301733 A    
C196  H40   1.085102 S    
C18   C75   1.399899 A    
C89   C177  1.407180 A    
C108  C148  1.408585 A    
C100  C159  1.414989 A    
N10   O67   1.301244 A    
C52   C60   1.429612 A    
O31   C15   1.291968 A    
C23   C37   1.402989 A    
C77   C85   1.427542 A    
O32   C16   1.285698 A    
O36   C182  1.303655 A    
N8    O63   1.301299 A    
C10   C57   1.485271 S    
C131  C139  1.431907 A    
C129  C137  1.437847 A    
C40   C41   1.405641 A    
C127  C135  1.437389 A    
C25   N8    1.439066 S    
C111  C181  1.493722 S    
C171  C179  1.398510 A    
C12   C59   1.500257 S    
C154  C162  1.406094 A    
C123  C131  1.393281 A    
C90   C98   1.428879 A    
C117  C125  1.392924 A    
C190  H34   1.085107 S    
C23   C70   1.405368 A    
C107  C155  1.403062 A    
C113  C121  1.399016 A    
C156  H24   1.080775 S    
O28   C12   1.285860 A    
C47   C66   1.407975 A    
C124  C132  1.395144 A    
Cu7   O23   1.952489 S    
C87   C95   1.433979 A    
N18   O91   1.300260 A    
Cu8   O24   1.952488 S    
C43   C67   1.415702 A    
N4    O56   1.301216 A    
C24   C32   1.413313 A    
O6    C9    1.305520 A    
C189  H33   1.083138 S    
Cu1   O25   1.975089 S    
C172  C180  1.402062 A    
O34   Cu12  1.963677 S    
C74   H6    1.074122 S    
C194  O78   1.221635 D    
C108  C116  1.422945 A    
C152  C160  1.395445 A    
Cu11  O44   1.968267 S    
C30   C32   1.409897 A    
C52   C74   1.410594 A    
C58   C64   1.412088 A    
C54   C62   1.411897 A    
C101  C141  1.412752 A    
