data_mof_unit_19024.cif
_audit_creation_date              2012-12-10T17:58:17-0500
_audit_creation_method            fapswitch 2.2
_symmetry_space_group_name_H-M    P1
_symmetry_Int_Tables_number       1
_space_group_crystal_system       triclinic
_cell_length_a                    9.521102
_cell_length_b                    10.834016
_cell_length_c                    15.406924
_cell_angle_alpha                 89.877031
_cell_angle_beta                  73.90919
_cell_angle_gamma                 90.011223
_cell_volume                      1526.98635081

loop_
_atom_site_label
_atom_site_type_symbol
_atom_type_description
_atom_site_fract_x
_atom_site_fract_y
_atom_site_fract_z
_atom_type_partial_charge
C1    C     C_R   0.999936 0.262071 0.500047 0.789936
C2    C     C_R   0.000079 0.737925 0.499917 0.793414
C3    C     C_R   0.595827 0.550282 0.101674 0.395890
C4    C     C_R   0.437512 0.641009 0.915458 0.401230
C5    C     C_R   0.739598 0.524699 0.054611 -0.224250
C6    C     C_R   0.289702 0.655394 0.963180 -0.327997
C7    C     C_R   0.872154 0.063800 0.500444 -0.180513
C8    C     C_R   0.127896 0.936176 0.499436 -0.182760
C9    C     C_R   0.872225 0.936098 0.500341 -0.174539
C10   C     C_R   0.127824 0.063878 0.499543 -0.181922
C11   C     C_R   0.000081 0.871770 0.499872 -0.018596
C12   C     C_R   0.999959 0.128212 0.500033 -0.021381
C13   C     C_R   0.547726 0.427700 0.559243 -0.017384
C14   C     C_R   0.452250 0.572356 0.440786 0.010723
C15   C     C_R   0.398922 0.427774 0.559246 -0.030663
C16   C     C_R   0.601079 0.572220 0.440734 0.001533
C17   C     C_R   0.917597 0.500342 0.672647 0.802519
C18   C     C_R   0.082503 0.503679 0.327484 0.799035
C19   C     C_R   0.872601 0.506851 0.771864 -0.088817
C20   C     C_R   0.129474 0.528584 0.229915 -0.067043
C21   C     C_R   0.928899 0.494048 0.915331 -0.184127
C22   C     C_R   0.087909 0.623995 0.097005 -0.196472
C23   C     C_R   0.974003 0.489007 0.821431 -0.183647
C24   C     C_R   0.034447 0.582782 0.185925 -0.190926
C25   C     C_R   0.726813 0.533500 0.817257 -0.157403
C26   C     C_R   0.277304 0.515018 0.183695 -0.235198
C27   C     C_R   0.681553 0.550115 0.911506 0.104099
C28   C     C_R   0.335685 0.566661 0.097481 0.079082
C29   C     C_R   0.783299 0.522435 0.960687 0.055835
C30   C     C_R   0.237480 0.614863 0.052133 0.126984
C31   C     C_R   0.535834 0.584830 0.958673 -0.019691
C32   C     C_R   0.488273 0.566509 0.053894 -0.119157
Cu1   Cu    Cu3+1 0.140660 0.500020 0.500000 0.947661
Cu2   Cu    Cu3+1 0.859340 0.499980 0.500000 0.953778
H1    H     H_    0.818141 0.507822 0.092350 0.166246
H2    H     H_    0.214640 0.697444 0.930235 0.142987
H3    H     H_    0.346141 0.464154 0.216320 0.199224
H4    H     H_    0.648862 0.535959 0.778205 0.202697
H5    H     H_    0.919975 0.596071 0.220826 0.167470
H6    H     H_    0.087263 0.468107 0.787830 0.151718
H7    H     H_    0.007971 0.475543 0.952536 0.145004
H8    H     H_    0.012945 0.665446 0.063826 0.143606
H9    H     H_    0.772295 0.888043 0.500664 0.151321
H10   H     H_    0.227753 0.111929 0.499224 0.151311
H11   H     H_    0.321512 0.369808 0.606635 0.116740
H12   H     H_    0.678482 0.630161 0.393310 0.123691
N1    N     N_R   0.352080 0.500030 0.499980 -0.163332
N2    N     N_R   0.647920 0.499970 0.500020 -0.162282
O1    O     O_R   0.118740 0.319660 0.500000 -0.586020
O2    O     O_R   0.881260 0.680340 0.500000 -0.585927
O3    O     O_R   0.881170 0.319630 0.500010 -0.585926
O4    O     O_R   0.118830 0.680370 0.499990 -0.589767
O5    O     O_R   0.055570 0.500030 0.629830 -0.582309
O6    O     O_R   0.944430 0.499970 0.370170 -0.578218
O7    O     O_R   0.818000 0.500000 0.629840 -0.582398
O8    O     O_R   0.182000 0.500000 0.370160 -0.579146
O9    O     O_3   0.569173 0.571056 0.193059 -0.762810
H13   H     H_    0.494754 0.637233 0.210112 0.318041
O10   O     O_3   0.489286 0.692588 0.830408 -0.752954
H14   H     H_    0.406915 0.728168 0.810937 0.324216
H15   H     H_    0.772168 0.111790 0.500860 0.150934
H16   H     H_    0.227884 0.888182 0.499017 0.149676
H17   H     H_    0.582421 0.369568 0.606609 0.119368
H18   H     H_    0.417492 0.630588 0.393505 0.127609

loop_
_geom_bond_atom_site_label_1
_geom_bond_atom_site_label_2
_ccdc_geom_bond_type
C13   N2    A    
C19   C23   A    
C26   H3    S    
C21   C29   A    
C14   N1    A    
C18   O8    A    
C25   H4    S    
C27   C29   A    
C1    O3    A    
C17   O7    A    
C26   C28   A    
C31   C32   A    
C13   H17   S    
C15   N1    A    
C3    C5    A    
C14   H18   S    
C16   N2    A    
Cu1   O8    S    
C28   C30   A    
Cu1   Cu2   S    
Cu2   O3    S    
C17   O5    A    
Cu2   O7    S    
O10   H14   S    
Cu1   O4    S    
C9    C11   A    
O9    H13   S    
C22   H8    S    
C1    C12   S    
C2    O4    A    
C8    C11   A    
C19   C25   A    
C2    C11   S    
C10   C12   A    
C22   C24   A    
C4    C6    A    
C17   C19   S    
C6    H2    S    
Cu2   O6    S    
C5    C29   A    
C13   C15   A    
C21   C23   A    
Cu1   O5    S    
C3    C32   A    
Cu1   N1    S    
C14   C16   A    
C7    C12   A    
C9    H9    S    
C4    C31   A    
Cu2   N2    S    
C18   O6    A    
C10   H10   S    
C23   H6    S    
C3    O9    S    
C28   C32   A    
C24   H5    S    
C4    O10   S    
C18   C20   S    
C8    C10   A    
Cu2   O2    S    
C21   H7    S    
C16   H12   S    
C2    O2    A    
C7    C9    A    
C15   H11   S    
C27   C31   A    
C7    H15   S    
C22   C30   A    
C6    C30   A    
Cu1   O1    S    
C5    H1    S    
C20   C24   A    
C8    H16   S    
C20   C26   A    
C25   C27   A    
C1    O1    A    
