data_mof_unit_39373.cif
_audit_creation_date              2012-12-11T14:17:44-0500
_audit_creation_method            fapswitch 2.2
_symmetry_space_group_name_H-M    P1
_symmetry_Int_Tables_number       1
_space_group_crystal_system       triclinic
_cell_length_a                    11.575828
_cell_length_b                    11.575826
_cell_length_c                    19.02422
_cell_angle_alpha                 90.0
_cell_angle_beta                  89.999966
_cell_angle_gamma                 120.000299
_cell_volume                      2207.70091722

loop_
_atom_site_label
_atom_site_type_symbol
_atom_type_description
_atom_site_fract_x
_atom_site_fract_y
_atom_site_fract_z
_atom_type_partial_charge
C1    C     C_R   0.521191 0.447285 0.145268 0.499231
C2    C     C_R   0.552715 0.073906 0.145268 0.499229
C3    C     C_R   0.926093 0.478809 0.145268 0.499229
C4    C     C_R   0.453254 0.522358 0.853085 0.552508
C5    C     C_R   0.069105 0.546746 0.853085 0.552511
C6    C     C_R   0.477641 0.930896 0.853085 0.552512
C7    C     C_R   0.386043 0.941413 0.449317 -0.004354
C8    C     C_R   0.058593 0.444634 0.449316 -0.004358
C9    C     C_R   0.555370 0.613958 0.449316 -0.004352
C10   C     C_R   0.092889 0.458895 0.521743 -0.035296
C11   C     C_R   0.366007 0.907114 0.521743 -0.035292
C12   C     C_R   0.541108 0.633995 0.521742 -0.035290
C13   C     C_R   0.688540 0.163782 0.596981 -0.094003
C14   C     C_R   0.836221 0.524768 0.596977 -0.094005
C15   C     C_R   0.475236 0.311457 0.596980 -0.094001
C16   C     C_R   0.874860 0.632465 0.462802 -0.099594
C17   C     C_R   0.757608 0.125161 0.462805 -0.099602
C18   C     C_R   0.367541 0.242393 0.462804 -0.099593
C19   C     C_R   0.819897 0.209702 0.580951 -0.125870
C20   C     C_R   0.790305 0.610208 0.580944 -0.125869
C21   C     C_R   0.389794 0.180100 0.580949 -0.125869
C22   C     C_R   0.817519 0.669087 0.514793 -0.147704
C23   C     C_R   0.851567 0.182495 0.514799 -0.147712
C24   C     C_R   0.330917 0.148433 0.514797 -0.147704
C25   C     C_R   0.521646 0.450714 0.354631 0.552265
C26   C     C_R   0.549287 0.070935 0.354631 0.552265
C27   C     C_R   0.929068 0.478354 0.354630 0.552265
C28   C     C_R   0.452870 0.527775 0.644081 0.496650
C29   C     C_R   0.074904 0.547129 0.644081 0.496648
C30   C     C_R   0.472225 0.925096 0.644081 0.496649
C31   C     C_R   0.497971 0.987334 0.924018 0.001540
C32   C     C_R   0.012667 0.510637 0.924018 0.001542
C33   C     C_R   0.489361 0.502028 0.924018 0.001542
C34   C     C_R   0.968342 0.506724 0.070172 -0.018616
C35   C     C_R   0.538382 0.031658 0.070172 -0.018616
C36   C     C_R   0.493275 0.461617 0.070172 -0.018615
C37   C     C_R   0.389868 0.930354 0.972968 0.011164
C38   C     C_R   0.069648 0.459516 0.972968 0.011165
C39   C     C_R   0.540485 0.610131 0.972968 0.011165
C40   C     C_R   0.067002 0.484299 0.045277 0.019682
C41   C     C_R   0.417297 0.933000 0.045277 0.019682
C42   C     C_R   0.515701 0.582702 0.045277 0.019682
C43   C     C_R   0.645877 0.100653 0.021360 -0.036773
C44   C     C_R   0.899345 0.545222 0.021360 -0.036774
C45   C     C_R   0.454775 0.354122 0.021361 -0.036773
C46   C     C_R   0.928257 0.557972 0.948658 0.002623
C47   C     C_R   0.629716 0.071742 0.948658 0.002623
C48   C     C_R   0.442024 0.370283 0.948658 0.002620
C49   C     C_R   0.255221 0.880756 0.954512 -0.093059
C50   C     C_R   0.119245 0.374466 0.954512 -0.093060
C51   C     C_R   0.625534 0.744779 0.954512 -0.093060
C52   C     C_R   0.149137 0.466133 0.092408 -0.105563
C53   C     C_R   0.316995 0.850864 0.092408 -0.105564
C54   C     C_R   0.533867 0.683004 0.092408 -0.105564
C55   C     C_R   0.156463 0.824274 0.005441 -0.132605
C56   C     C_R   0.175725 0.332188 0.005443 -0.132605
C57   C     C_R   0.667812 0.843536 0.005442 -0.132605
C58   C     C_R   0.199625 0.386080 0.072873 -0.131668
C59   C     C_R   0.186454 0.800375 0.072872 -0.131669
C60   C     C_R   0.613920 0.813545 0.072872 -0.131668
C61   C     C_R   0.473665 0.974833 0.571587 -0.018152
C62   C     C_R   0.025168 0.498834 0.571586 -0.018153
C63   C     C_R   0.501168 0.526335 0.571586 -0.018156
C64   C     C_R   0.977550 0.496355 0.426841 0.010752
C65   C     C_R   0.518807 0.022457 0.426842 0.010754
C66   C     C_R   0.503648 0.481194 0.426841 0.010752
C67   C     C_R   0.591225 0.080147 0.548418 0.021710
C68   C     C_R   0.919857 0.511085 0.548416 0.021710
C69   C     C_R   0.488920 0.408774 0.548417 0.021713
C70   C     C_R   0.920147 0.543168 0.477544 0.018171
C71   C     C_R   0.623021 0.079863 0.477546 0.018169
C72   C     C_R   0.456838 0.376979 0.477545 0.018171
Cr1   Cr    Cr6+3 0.768550 0.541320 0.250660 0.961772
Cr2   Cr    Cr6+3 0.458680 0.227230 0.250660 0.961770
Cr3   Cr    Cr6+3 0.772770 0.231450 0.250660 0.961769
Cr4   Cr    Cr6+3 0.541320 0.768550 0.749340 0.962164
Cr5   Cr    Cr6+3 0.227230 0.458680 0.749340 0.962162
Cr6   Cr    Cr6+3 0.231450 0.772770 0.749340 0.962162
H1    H     H_    0.224791 0.899664 0.904392 0.144288
H2    H     H_    0.100337 0.325129 0.904393 0.144287
H3    H     H_    0.674872 0.775208 0.904392 0.144287
H4    H     H_    0.158870 0.497316 0.146844 0.107153
H5    H     H_    0.338444 0.841131 0.146844 0.107153
H6    H     H_    0.502684 0.661554 0.146844 0.107153
H7    H     H_    0.058468 0.804956 0.992649 0.115774
H8    H     H_    0.195041 0.253510 0.992651 0.115773
H9    H     H_    0.746489 0.941531 0.992650 0.115773
H10   H     H_    0.244821 0.357425 0.113112 0.140694
H11   H     H_    0.112603 0.755178 0.113110 0.140695
H12   H     H_    0.642575 0.887396 0.113111 0.140694
H13   H     H_    0.662922 0.174565 0.650456 0.106714
H14   H     H_    0.825435 0.488368 0.650453 0.106715
H15   H     H_    0.511636 0.337073 0.650455 0.106714
H16   H     H_    0.898770 0.691989 0.416031 0.143322
H17   H     H_    0.793233 0.101269 0.416032 0.143333
H18   H     H_    0.308019 0.206771 0.416032 0.143322
H19   H     H_    0.893030 0.254850 0.622024 0.128723
H20   H     H_    0.745157 0.638195 0.622017 0.128723
H21   H     H_    0.361807 0.106966 0.622022 0.128720
H22   H     H_    0.800159 0.746748 0.501749 0.124758
H23   H     H_    0.946587 0.199858 0.501756 0.124769
H24   H     H_    0.253258 0.053412 0.501753 0.124760
O1    O     O_R   0.910960 0.572410 0.171010 -0.541633
O2    O     O_R   0.427590 0.338550 0.171010 -0.541633
O3    O     O_R   0.661450 0.089040 0.171010 -0.541631
O4    O     O_R   0.572410 0.910960 0.828990 -0.529951
O5    O     O_R   0.338550 0.427590 0.828990 -0.529955
O6    O     O_R   0.089040 0.661450 0.828990 -0.529956
O7    O     O_R   0.639750 0.528530 0.175600 -0.529081
O8    O     O_R   0.471470 0.111220 0.175600 -0.529081
O9    O     O_R   0.888780 0.360250 0.175600 -0.529080
O10   O     O_R   0.528530 0.639750 0.824400 -0.527738
O11   O     O_R   0.111220 0.471470 0.824400 -0.527735
O12   O     O_R   0.360250 0.888780 0.824400 -0.527737
O13   O     O_R   0.909330 0.572400 0.331540 -0.553738
O14   O     O_R   0.427600 0.336930 0.331540 -0.553740
O15   O     O_R   0.663070 0.090670 0.331540 -0.553741
O16   O     O_R   0.572400 0.909330 0.668460 -0.542312
O17   O     O_R   0.336930 0.427600 0.668460 -0.542315
O18   O     O_R   0.090670 0.663070 0.668460 -0.542314
O19   O     O_R   0.638240 0.528520 0.324410 -0.505642
O20   O     O_R   0.471480 0.109720 0.324410 -0.505645
O21   O     O_R   0.890280 0.361760 0.324410 -0.505647
O22   O     O_R   0.528520 0.638240 0.675590 -0.523645
O23   O     O_R   0.109720 0.471480 0.675590 -0.523647
O24   O     O_R   0.361760 0.890280 0.675590 -0.523646
O25   O     O_3   0.666667 0.333333 0.250630 -0.273639
O26   O     O_3   0.333333 0.666667 0.749370 -0.272599
C73   C     C_3   0.775896 0.210365 0.046100 -0.220812
C74   C     C_3   0.870824 0.160566 0.070454 -0.367420
H25   H     H_    0.821907 0.068889 0.101602 0.152635
H26   H     H_    0.919695 0.141672 0.025637 0.099138
H27   H     H_    0.948783 0.232185 0.105273 0.178785
H28   H     H_    0.821280 0.286734 0.005200 0.128750
H29   H     H_    0.752040 0.263382 0.085530 0.170226
C75   C     C_3   0.789633 0.565528 0.046100 -0.220814
C76   C     C_3   0.839432 0.710256 0.070453 -0.367422
H30   H     H_    0.767814 0.716597 0.105272 0.178785
H31   H     H_    0.931110 0.753017 0.101601 0.152635
H32   H     H_    0.858325 0.778019 0.025635 0.099140
H33   H     H_    0.713264 0.534541 0.005201 0.128749
H34   H     H_    0.736617 0.488655 0.085531 0.170227
C77   C     C_3   0.434468 0.224103 0.046100 -0.220812
C78   C     C_3   0.289741 0.129176 0.070455 -0.367419
H35   H     H_    0.246981 0.178093 0.101603 0.152635
H36   H     H_    0.221974 0.080303 0.025639 0.099138
H37   H     H_    0.283401 0.051216 0.105274 0.178785
H38   H     H_    0.465452 0.178719 0.005201 0.128747
H39   H     H_    0.511342 0.247960 0.085530 0.170226
C79   C     C_3   0.876169 0.630347 0.899943 -0.248439
C80   C     C_3   0.785892 0.544111 0.840724 -0.437629
H40   H     H_    0.836058 0.506895 0.805360 0.161263
H41   H     H_    0.696656 0.459851 0.864323 0.138380
H42   H     H_    0.753652 0.603021 0.808560 0.144063
H43   H     H_    0.819582 0.669784 0.926877 0.119986
H44   H     H_    0.957811 0.725556 0.879363 0.162870
C81   C     C_3   0.754181 0.123825 0.899943 -0.248440
C82   C     C_3   0.758226 0.214098 0.840722 -0.437642
H45   H     H_    0.763220 0.303336 0.864313 0.138378
H46   H     H_    0.849360 0.246317 0.808559 0.144064
H47   H     H_    0.670848 0.163946 0.805361 0.161257
H48   H     H_    0.850203 0.180410 0.926878 0.119985
H49   H     H_    0.767744 0.042179 0.879367 0.162870
C83   C     C_3   0.369640 0.245818 0.899945 -0.248439
C84   C     C_3   0.455865 0.241768 0.840722 -0.437614
H50   H     H_    0.540112 0.236765 0.864318 0.138377
H51   H     H_    0.396938 0.150626 0.808554 0.144061
H52   H     H_    0.493099 0.329160 0.805363 0.161262
H53   H     H_    0.330201 0.149796 0.926880 0.119985
H54   H     H_    0.274431 0.232257 0.879368 0.162868
C85   C     C_3   0.267307 0.896684 0.398041 -0.262700
C86   C     C_3   0.259867 0.800661 0.341333 -0.442043
H55   H     H_    0.246219 0.709486 0.367232 0.141326
H56   H     H_    0.349724 0.844439 0.307520 0.156036
H57   H     H_    0.172218 0.773152 0.307063 0.156055
H58   H     H_    0.169386 0.846422 0.423784 0.130275
H59   H     H_    0.266676 0.983391 0.374206 0.161747
C87   C     C_3   0.103318 0.370624 0.398041 -0.262703
C88   C     C_3   0.199343 0.459205 0.341332 -0.442040
H60   H     H_    0.155568 0.505289 0.307522 0.156032
H61   H     H_    0.290521 0.536727 0.367231 0.141328
H62   H     H_    0.226846 0.399062 0.307060 0.156056
H63   H     H_    0.153576 0.322960 0.423784 0.130276
H64   H     H_    0.016610 0.283288 0.374205 0.161746
C89   C     C_3   0.629379 0.732694 0.398040 -0.262701
C90   C     C_3   0.540799 0.740136 0.341331 -0.442038
H65   H     H_    0.463278 0.753796 0.367228 0.141326
H66   H     H_    0.494713 0.650275 0.307521 0.156033
H67   H     H_    0.600944 0.827780 0.307057 0.156055
H68   H     H_    0.677039 0.830616 0.423782 0.130280
H69   H     H_    0.716717 0.733324 0.374206 0.161748
C91   C     C_3   0.204693 0.438102 0.543323 -0.226639
C92   C     C_3   0.157018 0.292533 0.565690 -0.366154
H70   H     H_    0.079746 0.257084 0.606863 0.153607
H71   H     H_    0.235549 0.278419 0.586638 0.193535
H72   H     H_    0.127929 0.222791 0.521148 0.082159
H73   H     H_    0.278277 0.467762 0.500460 0.130242
H74   H     H_    0.259582 0.513421 0.583325 0.168189
C93   C     C_3   0.233412 0.795304 0.543322 -0.226637
C94   C     C_3   0.135512 0.842973 0.565687 -0.366146
H75   H     H_    0.177329 0.920246 0.606859 0.153604
H76   H     H_    0.042867 0.764439 0.586632 0.193537
H77   H     H_    0.094857 0.872057 0.521143 0.082156
H78   H     H_    0.189495 0.721721 0.500459 0.130240
H79   H     H_    0.253843 0.740417 0.583325 0.168186
C95   C     C_3   0.561894 0.766590 0.543321 -0.226642
C96   C     C_3   0.707462 0.864490 0.565685 -0.366153
H80   H     H_    0.742920 0.822676 0.606857 0.153605
H81   H     H_    0.721570 0.957136 0.586630 0.193538
H82   H     H_    0.777201 0.905146 0.521141 0.082159
H83   H     H_    0.532227 0.810508 0.500457 0.130240
H84   H     H_    0.486576 0.746159 0.583324 0.168187

loop_
_geom_bond_atom_site_label_1
_geom_bond_atom_site_label_2
_ccdc_geom_bond_type
C2    C35   S    
C44   C75   S    
C39   C51   A    
C85   C86   S    
C30   O24   A    
C84   H50   S    
C29   O23   A    
C18   H18   S    
C83   H54   S    
Cr3   O15   S    
C26   O15   A    
Cr6   O26   S    
C54   H6    S    
C87   C88   S    
C53   C59   A    
C89   H68   S    
Cr6   O12   S    
Cr6   O18   S    
C7    C11   A    
C76   H31   S    
C17   C23   A    
Cr3   O21   S    
C83   C84   S    
Cr1   O1    S    
C55   C59   A    
C13   C67   A    
C21   H21   S    
C4    C33   S    
C95   H84   S    
C77   C78   S    
C93   H79   S    
C96   H81   S    
Cr6   O6    S    
C59   H11   S    
C80   H42   S    
C9    C66   A    
C6    O12   A    
C75   H34   S    
C82   H47   S    
C1    O7    A    
C73   H29   S    
C36   C42   A    
C95   H83   S    
C81   C82   S    
C66   C72   A    
C63   C69   A    
C44   C46   A    
C94   H75   S    
C92   H71   S    
C18   C72   A    
C96   H82   S    
C16   C22   A    
C80   H40   S    
C51   C57   A    
C32   C38   A    
C35   C43   A    
C51   H3    S    
C24   H24   S    
C87   H63   S    
C86   H57   S    
C5    C32   S    
C5    O11   A    
C6    C31   S    
C4    O10   A    
C76   H30   S    
C93   C94   S    
C84   H51   S    
C79   H44   S    
C13   H13   S    
C82   H46   S    
Cr3   O9    S    
C83   H53   S    
C10   C62   A    
C32   C46   A    
C78   H37   S    
Cr5   O11   S    
C4    O5    A    
C86   H56   S    
C89   H69   S    
C39   C42   A    
C11   C93   S    
C19   H19   S    
C77   H38   S    
C15   C69   A    
C76   H32   S    
C22   H22   S    
C13   C19   A    
C96   H80   S    
Cr4   O22   S    
C14   C20   A    
C43   C73   S    
C16   C70   A    
C18   C24   A    
C78   H36   S    
C25   O14   A    
C3    O9    A    
C12   C63   A    
C27   O21   A    
C95   C96   S    
C78   H35   S    
C57   C60   A    
C54   C60   A    
C30   O16   A    
C3    C34   S    
C11   C61   A    
Cr1   O25   S    
C10   C91   S    
C57   H9    S    
C31   C37   A    
C12   C95   S    
C55   H7    S    
C69   C72   A    
C74   H26   S    
C64   C70   A    
C15   H15   S    
C75   H33   S    
C8    C87   S    
C7    C65   A    
C37   C49   A    
C61   C67   A    
C56   H8    S    
Cr2   O25   S    
Cr5   O5    S    
Cr4   O10   S    
C92   H72   S    
Cr2   O14   S    
C6    O4    A    
C34   C44   A    
C36   C45   A    
C33   C39   A    
C91   H73   S    
C52   H4    S    
C1    O2    A    
C41   C53   A    
Cr5   O26   S    
C52   C58   A    
C8    C64   A    
C48   C83   S    
C8    C10   A    
Cr2   O20   S    
C14   H14   S    
C93   H78   S    
C17   C71   A    
C84   H52   S    
C91   H74   S    
C79   H43   S    
C82   H45   S    
Cr4   O26   S    
C34   C40   A    
C21   C24   A    
C74   H27   S    
C90   H66   S    
Cr6   O24   S    
C29   O18   A    
C50   H2    S    
Cr5   O23   S    
C86   H55   S    
C19   C23   A    
Cr2   O2    S    
C73   C74   S    
C47   C81   S    
C45   C48   A    
C3    O1    A    
C33   C48   A    
C81   H49   S    
C29   C62   S    
C2    O8    A    
Cr4   O4    S    
C46   C79   S    
C26   C65   S    
C16   H16   S    
C25   C66   S    
C20   C22   A    
C75   C76   S    
Cr5   O17   S    
C28   O17   A    
C58   H10   S    
Cr2   O8    S    
C28   O22   A    
Cr1   O7    S    
C38   C50   A    
C60   H12   S    
C88   H60   S    
C85   H58   S    
C2    O3    A    
C9    C89   S    
Cr1   O13   S    
C62   C68   A    
C53   H5    S    
C91   C92   S    
C88   H62   S    
C90   H67   S    
C74   H25   S    
C90   H65   S    
C40   C52   A    
C50   C56   A    
C42   C54   A    
C38   C40   A    
Cr3   O25   S    
C89   C90   S    
C23   H23   S    
C15   C21   A    
C25   O19   A    
C94   H77   S    
C56   C58   A    
C67   C71   A    
C65   C71   A    
C80   H41   S    
C49   C55   A    
C37   C41   A    
C35   C41   A    
C9    C12   A    
Cr4   O16   S    
C27   C64   S    
C73   H28   S    
C28   C63   S    
C49   H1    S    
C77   H39   S    
C20   H20   S    
C94   H76   S    
C92   H70   S    
C30   C61   S    
C17   H17   S    
C45   C77   S    
C68   C70   A    
C14   C68   A    
C79   C80   S    
C85   H59   S    
C31   C47   A    
C26   O20   A    
Cr3   O3    S    
C7    C85   S    
C43   C47   A    
C81   H48   S    
C87   H64   S    
C1    C36   S    
Cr1   O19   S    
C88   H61   S    
C5    O6    A    
C27   O13   A    
