data_mof_unit_57286.cif
_audit_creation_date              2012-12-10T18:13:55-0500
_audit_creation_method            fapswitch 2.2
_symmetry_space_group_name_H-M    P1
_symmetry_Int_Tables_number       1
_space_group_crystal_system       triclinic
_cell_length_a                    10.846613
_cell_length_b                    9.41818
_cell_length_c                    23.256734
_cell_angle_alpha                 90.878238
_cell_angle_beta                  93.184047
_cell_angle_gamma                 91.133376
_cell_volume                      2371.3471038

loop_
_atom_site_label
_atom_site_type_symbol
_atom_type_description
_atom_site_fract_x
_atom_site_fract_y
_atom_site_fract_z
_atom_type_partial_charge
C1    C     C_R   0.259739 0.498706 0.498990 0.802021
C2    C     C_R   0.257882 0.672285 0.963692 0.305917
C3    C     C_R   0.249953 0.666363 0.024168 0.344637
C4    C     C_R   0.319641 0.564263 0.055723 -0.177941
C5    C     C_R   0.372060 0.450783 0.025600 -0.056155
C6    C     C_R   0.434096 0.343231 0.056563 -0.077409
C7    C     C_R   0.483488 0.229054 0.026997 -0.101559
C8    C     C_R   0.478735 0.223312 0.967131 0.412728
C9    C     C_R   0.343751 0.573752 0.116352 0.691970
C10   C     C_R   0.447460 0.352992 0.116789 0.659985
C11   C     C_R   0.518283 0.563821 0.230920 -0.130116
C12   C     C_R   0.495317 0.498653 0.390632 0.781388
C13   C     C_R   0.544762 0.572301 0.290329 0.367096
C14   C     C_R   0.470751 0.493434 0.327438 -0.312636
C15   C     C_R   0.370452 0.407559 0.303348 0.265526
C16   C     C_R   0.346570 0.399130 0.243218 0.460689
C17   C     C_R   0.421886 0.477105 0.207017 0.035121
C18   C     C_R   0.327564 0.372142 0.739731 0.416496
C19   C     C_R   0.367054 0.394384 0.683941 -0.318541
C20   C     C_R   0.459880 0.495856 0.672130 -0.240678
C21   C     C_R   0.510028 0.581192 0.719699 0.310079
C22   C     C_R   0.464943 0.562529 0.774308 -0.218688
C23   C     C_R   0.740445 0.501543 0.503912 0.920632
C24   C     C_R   0.378174 0.457600 0.785306 0.165452
C25   C     C_3   0.084929 0.628692 0.538342 0.201542
C26   C     C_3   0.073794 0.357697 0.528769 0.252263
C27   C     C_3   0.943122 0.645418 0.532347 0.222012
C28   C     C_3   0.932534 0.367567 0.537412 0.235689
C29   C     C_3   0.060255 0.507233 0.440506 -0.569697
C30   C     C_3   0.122627 0.497591 0.501932 -0.046590
C31   C     C_3   0.879207 0.503424 0.506864 -0.169382
C32   C     C_3   0.918023 0.493382 0.443138 -0.553952
C33   C     C_3   0.621728 0.085653 0.486713 -0.319418
C34   C     C_3   0.619894 0.918359 0.484183 -0.317603
C35   C     C_3   0.472149 0.085212 0.558485 0.376468
C36   C     C_3   0.476904 0.917229 0.558794 0.364110
C37   C     C_3   0.407418 0.080262 0.458115 -0.168028
C38   C     C_3   0.404066 0.912889 0.459725 -0.177613
C39   C     C_R   0.495738 0.500754 0.610187 0.962698
C40   C     C_R   0.413456 0.331405 0.874196 0.636786
C41   C     C_R   0.290917 0.538543 0.872566 0.669902
C42   C     C_R   0.302530 0.552907 0.933348 -0.194968
C43   C     C_R   0.362203 0.443671 0.964615 -0.094611
C44   C     C_R   0.417483 0.330454 0.934952 -0.110820
Cu1   Cu    Cu3+1 0.499860 0.642410 0.500030 0.991404
Cu2   Cu    Cu3+1 0.499860 0.357590 0.500030 0.982934
H1    H     H_    0.325369 0.330595 0.649194 0.241026
H2    H     H_    0.503125 0.624277 0.810924 0.210365
H3    H     H_    0.125776 0.728692 0.521597 0.090365
H4    H     H_    0.087706 0.269596 0.497076 0.063454
H5    H     H_    0.926713 0.724966 0.497882 0.054151
H6    H     H_    0.889565 0.273121 0.514260 0.053533
H7    H     H_    0.085332 0.610443 0.421105 0.209361
H8    H     H_    0.092918 0.421384 0.412136 0.226214
H9    H     H_    0.874103 0.578286 0.416767 0.211492
H10   H     H_    0.885468 0.390303 0.423010 0.211399
H11   H     H_    0.694528 0.121968 0.519524 0.200749
H12   H     H_    0.696303 0.880195 0.512979 0.230302
H13   H     H_    0.648732 0.127713 0.444674 0.188007
H14   H     H_    0.639086 0.880941 0.440008 0.186959
H15   H     H_    0.543473 0.126482 0.591315 0.083351
H16   H     H_    0.555680 0.888872 0.588188 0.143332
H17   H     H_    0.313968 0.120563 0.465568 0.189640
H18   H     H_    0.310568 0.876301 0.470987 0.184089
H19   H     H_    0.428580 0.114470 0.414115 0.177512
H20   H     H_    0.416848 0.870000 0.415723 0.163469
H21   H     H_    0.530517 0.145235 0.050262 0.220866
H22   H     H_    0.575633 0.622965 0.202602 0.206823
N1    N     N_R   0.352575 0.435485 0.844683 -0.449447
N2    N     N_R   0.403203 0.467265 0.145288 -0.440964
N3    N     N_3   0.500250 0.143650 0.501250 -0.155583
N4    N     N_3   0.500250 0.856350 0.501250 -0.156229
O1    O     O_R   0.317570 0.620260 0.500030 -0.591958
O2    O     O_R   0.317570 0.379740 0.500030 -0.546419
O3    O     O_R   0.499840 0.620290 0.417900 -0.591972
O4    O     O_R   0.499840 0.379710 0.417900 -0.579271
O5    O     O_R   0.682190 0.620260 0.500010 -0.579075
O6    O     O_R   0.682190 0.379740 0.500010 -0.591929
O7    O     O_R   0.499920 0.620230 0.582140 -0.519918
O8    O     O_R   0.499920 0.379770 0.582140 -0.553232
O9    O     O_2   0.472351 0.231880 0.844508 -0.458872
O10   O     O_2   0.217431 0.624783 0.840956 -0.389972
O11   O     O_2   0.312804 0.690091 0.146247 -0.425506
O12   O     O_2   0.506192 0.250292 0.146738 -0.486954
S1    S     S_3+6 0.239624 0.840043 0.929397 0.152896
O13   O     O_2   0.335518 0.858982 0.885703 -0.190159
O14   O     O_2   0.113128 0.845847 0.899723 -0.148720
O15   O     O_3   0.257358 0.974932 0.977515 -0.459543
H23   H     H_    0.232960 0.060643 0.955865 0.384427
S2    S     S_3+6 0.642236 0.692928 0.719616 0.101059
O16   O     O_2   0.622406 0.809005 0.677279 -0.248254
O17   O     O_2   0.670858 0.761805 0.777741 -0.218970
O18   O     O_3   0.763027 0.593875 0.704067 -0.381575
H24   H     H_    0.772059 0.525882 0.736031 0.362440
O19   O     O_3   0.127886 0.612775 0.595992 -0.585728
H25   H     H_    0.215833 0.643975 0.599322 0.356283
O20   O     O_3   0.141539 0.327715 0.580134 -0.622629
H26   H     H_    0.133903 0.223625 0.585439 0.372671
S3    S     S_3+6 0.883264 0.739235 0.593031 0.126082
O21   O     O_2   0.751716 0.697161 0.599666 -0.192276
O22   O     O_2   0.954492 0.717309 0.649312 -0.068679
O23   O     O_3   0.889685 0.913543 0.578984 -0.531789
H27   H     H_    0.978106 0.935045 0.573752 0.348624
S4    S     S_3+6 0.892029 0.343240 0.611290 0.101871
O24   O     O_2   0.910553 0.190167 0.626026 -0.234533
O25   O     O_2   0.971827 0.433659 0.652585 -0.085703
O26   O     O_3   0.743690 0.380375 0.619447 -0.533324
H28   H     H_    0.719602 0.324117 0.652832 0.365331
S5    S     S_3+6 0.134328 0.766478 0.057569 0.128793
O27   O     O_2   0.035321 0.809563 0.013891 -0.212200
O28   O     O_2   0.075269 0.677334 0.101997 -0.220056
O29   O     O_3   0.199098 0.913035 0.089789 -0.410210
H29   H     H_    0.130084 0.962143 0.107265 0.397597
O30   O     O_3   0.356186 0.131621 0.574011 -0.693340
H30   H     H_    0.350137 0.109923 0.615391 0.311090
O31   O     O_3   0.367398 0.857689 0.578618 -0.707785
H31   H     H_    0.375760 0.859946 0.621367 0.323627
O32   O     O_3   0.535378 0.111490 0.941561 -0.611589
H32   H     H_    0.606780 0.153344 0.922488 0.366426
O33   O     O_3   0.645544 0.655614 0.309490 -0.690545
H33   H     H_    0.669050 0.634317 0.350059 0.319312
O34   O     O_3   0.294104 0.329941 0.337297 -0.663269
H34   H     H_    0.289355 0.378707 0.375003 0.311142
S6    S     S_3+6 0.221515 0.290054 0.214187 0.094047
O35   O     O_2   0.173228 0.341786 0.156590 -0.268420
O36   O     O_2   0.266565 0.141200 0.207324 -0.222219
O37   O     O_3   0.104993 0.289054 0.259020 -0.470854
H35   H     H_    0.044501 0.217701 0.242193 0.379783
S7    S     S_3+6 0.217879 0.235562 0.751540 0.120181
O38   O     O_2   0.135276 0.280098 0.798067 -0.182809
O39   O     O_2   0.140077 0.202576 0.697446 -0.212414
O40   O     O_3   0.291391 0.087685 0.772062 -0.406342
H36   H     H_    0.343373 0.063617 0.739730 0.341952

loop_
_geom_bond_atom_site_label_1
_geom_bond_atom_site_label_2
_ccdc_geom_bond_type
C22   H2    S    
O18   H24   S    
C15   O34   S    
C11   C13   A    
C41   C42   A    
O19   H25   S    
Cu2   O4    S    
O20   H26   S    
C8    O32   S    
C7    C8    A    
Cu1   Cu2   S    
C11   H22   S    
C27   S3    S    
C37   C38   S    
C35   O30   S    
C18   C24   A    
C1    O2    A    
C41   N1    A    
C3    S5    S    
C29   C32   S    
C26   H4    S    
C5    C6    A    
C19   H1    S    
C29   H8    S    
C15   C16   A    
O31   H31   S    
C2    S1    S    
Cu1   O1    S    
C18   C19   A    
O32   H32   S    
O29   H29   S    
C38   H20   S    
O40   H36   S    
C37   H19   S    
O26   H28   S    
C32   H9    S    
S7    O40   S    
C5    C43   A    
C35   N3    S    
C17   N2    S    
C33   H13   S    
C21   C22   A    
Cu1   N4    S    
C34   H14   S    
C36   H16   S    
S4    O25   D    
S4    O24   D    
C37   H17   S    
C27   H5    S    
C24   N1    S    
O30   H30   S    
C38   H18   S    
C21   S2    S    
S1    O14   D    
C38   N4    S    
O34   H34   S    
C40   N1    A    
C27   C31   S    
C9    N2    A    
Cu1   O7    S    
S5    O29   S    
Cu2   O6    S    
C20   C39   S    
C16   C17   A    
S1    O13   D    
C3    C4    A    
C35   C36   S    
C23   C31   S    
C43   C44   A    
C29   C30   S    
C28   S4    S    
S2    O17   D    
C31   C32   S    
C20   C21   A    
C33   C34   S    
C35   H15   S    
C23   O5    A    
Cu2   N3    S    
C9    O11   S    
S6    O37   S    
C10   N2    A    
S3    O22   D    
C12   C14   S    
C26   C30   S    
C37   N3    S    
C12   O4    A    
C22   C24   A    
C42   C43   A    
O37   H35   S    
C36   O31   S    
C34   N4    S    
Cu2   O2    S    
C13   O33   S    
O33   H33   S    
S2    O18   S    
S6    O36   D    
S7    O38   D    
S1    O15   S    
C25   C30   S    
C11   C17   A    
C33   H11   S    
C40   O9    S    
C28   C31   S    
C8    C44   A    
C4    C5    A    
C6    C10   A    
C25   O19   S    
C6    C7    A    
C25   C27   S    
C26   C28   S    
S3    O21   D    
Cu1   O3    S    
C1    O1    A    
C39   O8    A    
C19   C20   A    
S5    O28   D    
C2    C3    A    
C16   S6    S    
S5    O27   D    
Cu2   O8    S    
C28   H6    S    
S2    O16   D    
C29   H7    S    
C2    C42   A    
C41   O10   S    
C10   O12   S    
C1    C30   S    
C23   O6    A    
O23   H27   S    
C25   H3    S    
C33   N3    S    
C26   O20   S    
C7    H21   S    
C40   C44   A    
S3    O23   S    
O15   H23   S    
C12   O3    A    
C34   H12   S    
C14   C15   A    
C18   S7    S    
Cu1   O5    S    
C4    C9    A    
C13   C14   A    
C32   H10   S    
S4    O26   S    
C36   N4    S    
C39   O7    A    
S6    O35   D    
S7    O39   D    
