data_mof_unit_31296.cif
_audit_creation_date              2012-12-10T18:25:10-0500
_audit_creation_method            fapswitch 2.2
_symmetry_space_group_name_H-M    P1
_symmetry_Int_Tables_number       1
_space_group_crystal_system       triclinic
_cell_length_a                    19.321168
_cell_length_b                    15.894898
_cell_length_c                    14.622036
_cell_angle_alpha                 89.860346
_cell_angle_beta                  90.165968
_cell_angle_gamma                 90.256458
_cell_volume                      4490.46713191

loop_
_atom_site_label
_atom_site_type_symbol
_atom_type_description
_atom_site_fract_x
_atom_site_fract_y
_atom_site_fract_z
_atom_type_partial_charge
C1    C     C_R   0.499899 0.339567 0.500096 0.808072
C2    C     C_R   0.500182 0.660469 0.499919 0.828245
C3    C     C_3   0.556728 0.972316 0.550074 -0.287456
C4    C     C_3   0.445493 0.027922 0.450571 -0.286644
C5    C     C_3   0.559305 0.028608 0.463493 0.250488
C6    C     C_3   0.442910 0.971700 0.537166 0.252204
C7    C     C_1   0.500041 0.250239 0.500378 -0.180173
C8    C     C_1   0.500847 0.749876 0.499754 -0.173569
C9    C     C_3   0.496569 0.027246 0.585696 0.274987
C10   C     C_3   0.505658 0.973036 0.414939 0.275951
C11   C     C_3   0.500355 0.083641 0.500212 -0.020229
C12   C     C_3   0.501833 0.916586 0.500418 -0.021190
C13   C     C_1   0.500198 0.174965 0.500484 -0.031119
C14   C     C_1   0.501430 0.825194 0.499895 -0.027423
C15   C     C_3   0.486629 0.576444 0.969479 0.417263
C16   C     C_3   0.513365 0.422438 0.030555 0.413398
C17   C     C_3   0.438482 0.523239 0.030448 0.410268
C18   C     C_3   0.561529 0.475625 0.969545 0.412996
C19   C     C_3   0.550022 0.554310 0.030279 -0.464825
C20   C     C_3   0.449999 0.444579 0.969691 -0.470189
C21   C     C_3   0.500923 0.500128 0.091840 -0.124658
C22   C     C_3   0.499072 0.498812 0.908175 -0.123531
C23   C     C_R   0.367159 0.497320 0.499743 0.822531
C24   C     C_R   0.632667 0.497551 0.500242 0.836048
C25   C     C_1   0.500369 0.499981 0.194262 0.243333
C26   C     C_1   0.499610 0.499524 0.805742 0.250776
C27   C     C_R   0.254714 0.533834 0.567814 -0.302616
C28   C     C_R   0.744930 0.549826 0.444508 -0.307186
C29   C     C_R   0.182449 0.532230 0.570033 0.224722
C30   C     C_R   0.817238 0.548812 0.441859 0.231552
C31   C     C_R   0.145694 0.486570 0.502987 -0.117848
C32   C     C_R   0.853732 0.491760 0.497950 -0.132297
C33   C     C_R   0.181790 0.440400 0.436307 0.379009
C34   C     C_R   0.817188 0.435743 0.555339 0.388222
C35   C     C_R   0.254527 0.445386 0.431916 0.136336
C36   C     C_R   0.744575 0.435274 0.555363 0.148780
C37   C     C_R   0.291172 0.491752 0.499253 -0.181485
C38   C     C_R   0.708366 0.494180 0.500939 -0.175439
C39   C     C_R   0.929756 0.490753 0.498229 0.452674
C40   C     C_R   0.069685 0.488101 0.501203 0.480735
Cu1   Cu    Cu3+1 0.500010 0.500000 0.590220 0.977693
Cu2   Cu    Cu3+1 0.499990 0.500000 0.409780 0.975186
H1    H     H_    0.282606 0.569131 0.619592 0.170200
H2    H     H_    0.717016 0.594060 0.401735 0.159641
H3    H     H_    0.409563 0.400262 0.945032 0.152755
H4    H     H_    0.590504 0.598589 0.054895 0.153460
H5    H     H_    0.601690 0.949421 0.590299 0.157486
H6    H     H_    0.400537 0.050848 0.410350 0.154989
N1    N     N_R   0.032939 0.415429 0.495939 -0.240941
N2    N     N_R   0.966468 0.563546 0.503524 -0.212593
N3    N     N_R   0.964168 0.416686 0.494659 -0.200010
N4    N     N_R   0.035307 0.562230 0.505168 -0.202906
N5    N     N_1   0.499980 0.500000 0.274190 -0.164245
N6    N     N_1   0.500020 0.500000 0.725810 -0.164424
O1    O     O_R   0.500010 0.379080 0.576170 -0.575657
O2    O     O_R   0.499990 0.620920 0.423830 -0.575191
O3    O     O_R   0.500000 0.379080 0.423800 -0.568284
O4    O     O_R   0.500000 0.620920 0.576200 -0.560298
O5    O     O_R   0.400150 0.499990 0.576210 -0.578083
O6    O     O_R   0.599850 0.500010 0.423790 -0.573465
O7    O     O_R   0.400140 0.499990 0.423840 -0.573156
O8    O     O_R   0.599860 0.500010 0.576160 -0.582275
N7    N     N_2   0.147046 0.576379 0.640347 -0.401748
H7    H     H_    0.173173 0.628905 0.663667 0.252827
C41   C     C_3   0.123124 0.523635 0.714714 -0.683297
H8    H     H_    0.167918 0.494957 0.750858 0.215276
H9    H     H_    0.088368 0.473072 0.689004 0.234695
H10   H     H_    0.093587 0.562315 0.764100 0.226569
N8    N     N_2   0.852827 0.604728 0.381815 -0.402396
H11   H     H_    0.827403 0.660813 0.370798 0.248634
C42   C     C_3   0.874918 0.566576 0.297099 -0.652791
H12   H     H_    0.829197 0.545937 0.256487 0.211578
H13   H     H_    0.908809 0.511674 0.310701 0.240663
H14   H     H_    0.904806 0.613209 0.256414 0.225551
O9    O     O_3   0.145237 0.395809 0.370630 -0.565196
C43   C     C_3   0.146715 0.309255 0.393039 0.099026
H15   H     H_    0.131466 0.297771 0.465525 0.137737
H16   H     H_    0.199121 0.282732 0.381694 0.158835
C44   C     C_3   0.095960 0.262385 0.331720 -0.758289
H17   H     H_    0.110543 0.271046 0.258870 0.244213
H18   H     H_    0.096741 0.194199 0.348394 0.192354
H19   H     H_    0.042757 0.286639 0.342262 0.264044
O10   O     O_3   0.852516 0.379261 0.610225 -0.545897
C45   C     C_3   0.862566 0.416165 0.697049 0.088555
H20   H     H_    0.812060 0.428759 0.730831 0.152098
H21   H     H_    0.892501 0.476070 0.691522 0.128815
C46   C     C_3   0.903348 0.355982 0.757308 -0.763402
H22   H     H_    0.954621 0.343314 0.726166 0.250508
H23   H     H_    0.911289 0.384230 0.825953 0.191052
H24   H     H_    0.874542 0.295771 0.765082 0.254267
N9    N     N_2   0.289558 0.400607 0.361596 -0.440178
H25   H     H_    0.336041 0.373796 0.379979 0.252138
C47   C     C_3   0.290418 0.441916 0.273277 -0.540641
H26   H     H_    0.236843 0.454015 0.249079 0.240675
H27   H     H_    0.316308 0.400852 0.222584 0.216866
H28   H     H_    0.319165 0.502475 0.277297 0.240930
N10   N     N_2   0.709529 0.373094 0.608380 -0.407666
H29   H     H_    0.669470 0.394704 0.648003 0.275016
C48   C     C_3   0.692859 0.296906 0.559020 -0.627413
H30   H     H_    0.668699 0.250602 0.606264 0.221431
H31   H     H_    0.740604 0.268638 0.530408 0.249899
H32   H     H_    0.655915 0.310567 0.502596 0.199206
N11   N     N_2   0.621683 0.063212 0.423309 -0.419978
H33   H     H_    0.640299 0.114858 0.458273 0.256615
C49   C     C_3   0.675157 0.002718 0.403472 -0.698396
H34   H     H_    0.718361 0.034654 0.367251 0.231068
H35   H     H_    0.654930 0.952026 0.358704 0.232932
H36   H     H_    0.695461 0.974900 0.467898 0.221998
N12   N     N_2   0.380480 0.937387 0.577489 -0.418837
H37   H     H_    0.361687 0.885806 0.542594 0.258381
C50   C     C_3   0.327189 0.998126 0.597357 -0.704438
H38   H     H_    0.283915 0.966397 0.633645 0.230409
H39   H     H_    0.306924 0.026016 0.532945 0.219481
H40   H     H_    0.347577 0.048750 0.642081 0.233608
N13   N     N_2   0.510293 0.940591 0.322748 -0.420195
H41   H     H_    0.547334 0.894753 0.314982 0.245330
C51   C     C_3   0.510903 0.003404 0.251107 -0.668002
H42   H     H_    0.508771 0.971859 0.183488 0.215662
H43   H     H_    0.558999 0.041752 0.254848 0.249948
H44   H     H_    0.465159 0.045090 0.256916 0.231909
N14   N     N_2   0.492015 0.059806 0.677848 -0.421454
H45   H     H_    0.455092 0.105788 0.685594 0.245547
C52   C     C_3   0.491348 0.997094 0.749587 -0.667804
H46   H     H_    0.493591 0.028728 0.817152 0.215450
H47   H     H_    0.537013 0.955281 0.743780 0.232934
H48   H     H_    0.443180 0.958871 0.745970 0.249679
O11   O     O_3   0.375448 0.550604 0.068430 -0.590645
C53   C     C_3   0.324387 0.554758 0.999531 0.074999
H49   H     H_    0.310107 0.490425 0.976137 0.143375
H50   H     H_    0.342102 0.592942 0.940002 0.175363
C54   C     C_3   0.260010 0.595949 0.038354 -0.795592
H51   H     H_    0.272471 0.660778 0.061554 0.250691
H52   H     H_    0.219135 0.599089 0.984916 0.199713
H53   H     H_    0.240268 0.558750 0.097237 0.249491
O12   O     O_3   0.624466 0.448373 0.931155 -0.583912
C55   C     C_3   0.675421 0.442327 0.000010 0.083905
H54   H     H_    0.657726 0.402075 0.057895 0.175725
H55   H     H_    0.689380 0.505904 0.026029 0.142811
C56   C     C_3   0.740065 0.402835 0.959750 -0.797906
H56   H     H_    0.759876 0.442176 0.902564 0.246185
H57   H     H_    0.780824 0.397963 0.013176 0.199003
H58   H     H_    0.727904 0.338837 0.933729 0.252082
O13   O     O_3   0.470380 0.655680 0.931542 -0.580359
C57   C     C_3   0.471707 0.717404 0.000628 0.087878
H59   H     H_    0.525609 0.727955 0.025110 0.142680
H60   H     H_    0.438262 0.699411 0.059474 0.174882
C58   C     C_3   0.444823 0.799824 0.961554 -0.794450
H61   H     H_    0.390666 0.791567 0.937380 0.249030
H62   H     H_    0.446086 0.849194 0.015158 0.197682
H63   H     H_    0.477617 0.820421 0.903297 0.253171
O14   O     O_3   0.529496 0.343191 0.068552 -0.581160
C59   C     C_3   0.528098 0.281427 0.999508 0.084809
H64   H     H_    0.561499 0.299369 0.940597 0.174662
H65   H     H_    0.474172 0.270886 0.975116 0.142578
C60   C     C_3   0.554986 0.199018 0.038601 -0.793744
H66   H     H_    0.522235 0.178475 0.096922 0.252456
H67   H     H_    0.553660 0.149616 0.985033 0.197736
H68   H     H_    0.609166 0.207262 0.062687 0.249873

loop_
_geom_bond_atom_site_label_1
_geom_bond_atom_site_label_2
_ccdc_geom_bond_type
C7    C13   T    
C39   N3    A    
C46   H22   S    
C5    N11   S    
C16   C21   S    
C60   H67   S    
N13   C51   S    
Cu1   Cu2   S    
C58   H61   S    
C45   C46   S    
C54   H53   S    
C53   H49   S    
C6    C9    S    
C29   N7    S    
N10   H29   S    
C19   H4    S    
C52   H46   S    
C23   O5    A    
C49   H35   S    
C47   H26   S    
C43   H16   S    
C58   H62   S    
C25   N5    T    
Cu1   O4    S    
C5    C11   S    
C51   H43   S    
Cu2   N5    S    
C6    C12   S    
N7    C41   S    
C56   H58   S    
C52   H47   S    
C27   C29   A    
N13   H41   S    
C17   C20   S    
C31   C40   S    
C18   C19   S    
C32   C39   S    
C3    H5    S    
N8    C42   S    
Cu1   O1    S    
C3    C12   S    
C42   H14   S    
Cu2   O2    S    
C33   O9    S    
C15   C22   S    
C50   H38   S    
N1    N3    A    
C9    N14   S    
O14   C59   S    
C31   C33   A    
C36   N10   S    
C24   C38   S    
C16   O14   S    
C20   H3    S    
C24   O6    A    
C47   H27   S    
C1    C7    S    
C60   H68   S    
C24   O8    A    
Cu1   O8    S    
C57   C58   S    
C26   N6    T    
Cu2   O3    S    
N10   C48   S    
C49   H36   S    
C56   H57   S    
O12   C55   S    
C58   H63   S    
C45   H20   S    
Cu1   O5    S    
C4    C6    S    
C51   H44   S    
Cu2   O6    S    
N9    H25   S    
C42   H13   S    
C17   O11   S    
C52   H48   S    
C41   H9    S    
C40   N4    A    
C28   H2    S    
C17   C21   S    
C44   H17   S    
C55   C56   S    
C15   C19   S    
O9    C43   S    
C3    C9    S    
C1    O3    A    
N9    C47   S    
N2    N4    A    
O10   C45   S    
C59   C60   S    
C28   C38   A    
C16   C20   S    
C41   H10   S    
C48   H32   S    
C18   O12   S    
C50   H39   S    
C43   H15   S    
C4    C11   S    
C9    C11   S    
Cu2   O7    S    
N14   H45   S    
C10   C12   S    
C15   O13   S    
C57   H60   S    
C48   H31   S    
C59   H65   S    
C47   H28   S    
C46   H23   S    
N11   C49   S    
C34   O10   S    
C20   C22   S    
C4    C10   S    
O11   C53   S    
C53   C54   S    
C3    C5    S    
C60   H66   S    
C30   N8    S    
C43   C44   S    
C55   H55   S    
C44   H18   S    
C4    H6    S    
C15   C17   S    
C21   C25   S    
C8    C14   T    
C35   C37   A    
C18   C22   S    
C2    C8    S    
C45   H21   S    
C55   H54   S    
C54   H52   S    
C54   H51   S    
C53   H50   S    
C44   H19   S    
C56   H56   S    
C2    O4    A    
C49   H34   S    
C48   H30   S    
C57   H59   S    
N12   C50   S    
C12   C14   S    
C5    C10   S    
C29   C31   A    
C2    O2    A    
N12   H37   S    
C36   C38   A    
C30   C32   A    
C11   C13   S    
C33   C35   A    
C40   N1    A    
C27   C37   A    
C28   C30   A    
C6    N12   S    
C23   C37   S    
C50   H40   S    
C34   C36   A    
C1    O1    A    
N8    H11   S    
Cu1   N6    S    
N14   C52   S    
N7    H7    S    
C27   H1    S    
C23   O7    A    
C39   N2    A    
C42   H12   S    
C59   H64   S    
C16   C18   S    
C41   H8    S    
C22   C26   S    
C46   H24   S    
N11   H33   S    
C51   H42   S    
C10   N13   S    
O13   C57   S    
C32   C34   A    
C19   C21   S    
C35   N9    S    
