data_mof_unit_23887.cif
_audit_creation_date              2013-03-05T15:41:03-0500
_audit_creation_method            fapswitch 2.2
_symmetry_space_group_name_H-M    P1
_symmetry_Int_Tables_number       1
_space_group_crystal_system       triclinic
_cell_length_a                    28.121027
_cell_length_b                    18.453604
_cell_length_c                    16.95491
_cell_angle_alpha                 90.075863
_cell_angle_beta                  61.266911
_cell_angle_gamma                 90.080717
_cell_volume                      7715.1055737

loop_
_atom_site_label
_atom_site_type_symbol
_atom_site_description
_atom_site_fract_x
_atom_site_fract_y
_atom_site_fract_z
_atom_type_partial_charge
O1    O     O_R   0.746490 0.236330 0.638080 -0.613002
O2    O     O_R   0.253510 0.763670 0.361920 -0.609477
O3    O     O_R   0.253510 0.236330 0.361920 -0.597633
O4    O     O_R   0.746490 0.763670 0.638080 -0.607838
O5    O     O_R   0.246490 0.736330 0.638080 -0.605252
O6    O     O_R   0.753510 0.263670 0.361920 -0.609835
O7    O     O_R   0.753510 0.736330 0.361920 -0.613903
O8    O     O_R   0.246490 0.263670 0.638080 -0.599858
O9    O     O_R   0.674170 0.186160 0.516270 -0.597336
O10   O     O_R   0.325830 0.813840 0.483730 -0.581016
O11   O     O_R   0.325830 0.186160 0.483730 -0.650868
O12   O     O_R   0.674170 0.813840 0.516270 -0.584410
O13   O     O_R   0.174170 0.686160 0.516270 -0.603297
O14   O     O_R   0.825830 0.313840 0.483730 -0.584750
O15   O     O_R   0.825830 0.686160 0.483730 -0.600592
O16   O     O_R   0.174170 0.313840 0.516270 -0.663230
O17   O     O_R   0.739960 0.127620 0.525000 -0.616549
O18   O     O_R   0.260040 0.872380 0.475000 -0.635777
O19   O     O_R   0.260040 0.127620 0.475000 -0.597407
O20   O     O_R   0.739960 0.872380 0.525000 -0.622688
O21   O     O_R   0.239960 0.627620 0.525000 -0.616831
O22   O     O_R   0.760040 0.372380 0.475000 -0.622111
O23   O     O_R   0.760040 0.627620 0.475000 -0.616186
O24   O     O_R   0.239960 0.372380 0.525000 -0.578253
O25   O     O_R   0.680700 0.294870 0.629350 -0.645653
O26   O     O_R   0.319300 0.705130 0.370650 -0.635105
O27   O     O_R   0.319300 0.294870 0.370650 -0.641833
O28   O     O_R   0.680700 0.705130 0.629350 -0.635545
O29   O     O_R   0.180700 0.794870 0.629350 -0.644556
O30   O     O_R   0.819300 0.205130 0.370650 -0.635443
O31   O     O_R   0.819300 0.794870 0.370650 -0.644312
O32   O     O_R   0.180700 0.205130 0.629350 -0.630237
C1    C     C_R   0.707609 0.278996 0.671882 0.904191
C2    C     C_R   0.294566 0.723411 0.325906 0.919925
C3    C     C_R   0.298566 0.266929 0.322698 0.909044
C4    C     C_R   0.705395 0.723522 0.674160 0.928165
C5    C     C_R   0.207617 0.779050 0.671842 0.913751
C6    C     C_R   0.794335 0.223101 0.326180 0.929386
C7    C     C_R   0.792367 0.779084 0.328201 0.906585
C8    C     C_R   0.200166 0.235214 0.677340 0.929096
C9    C     C_R   0.690694 0.129597 0.537148 0.930187
C10   C     C_R   0.309364 0.870319 0.462828 0.912895
C11   C     C_R   0.309253 0.129495 0.463102 0.904831
C12   C     C_R   0.690615 0.870360 0.537464 0.924165
C13   C     C_R   0.192082 0.629200 0.531465 0.922761
C14   C     C_R   0.809321 0.370410 0.463081 0.924171
C15   C     C_R   0.809142 0.629438 0.463774 0.931349
C16   C     C_R   0.192218 0.370834 0.530990 0.935805
Zn1   Zn    Zn3+2 0.792340 0.208750 0.507670 1.067899
Zn2   Zn    Zn3+2 0.207660 0.791250 0.492330 1.037939
Zn3   Zn    Zn3+2 0.207660 0.208750 0.492330 1.050806
Zn4   Zn    Zn3+2 0.792340 0.791250 0.507670 1.040912
Zn5   Zn    Zn3+2 0.292340 0.708750 0.507670 1.081036
Zn6   Zn    Zn3+2 0.707660 0.291250 0.492330 1.039302
Zn7   Zn    Zn3+2 0.707660 0.708750 0.492330 1.066668
Zn8   Zn    Zn3+2 0.292340 0.291250 0.507670 1.044813
H1    H     H_    0.031658 0.251260 0.533345 0.159497
H2    H     H_    0.963698 0.748401 0.485086 0.157008
H3    H     H_    0.967357 0.251561 0.474417 0.175061
H4    H     H_    0.028533 0.748063 0.542946 0.152680
H5    H     H_    0.532215 0.751462 0.528721 0.172561
H6    H     H_    0.466954 0.248470 0.473145 0.148637
H7    H     H_    0.467875 0.751478 0.470034 0.172776
H8    H     H_    0.532452 0.248389 0.529577 0.155055
C17   C     C_R   0.538453 0.131382 0.530833 0.116861
C18   C     C_R   0.461938 0.868477 0.468436 0.107555
C19   C     C_R   0.461483 0.131451 0.470068 0.094933
C20   C     C_R   0.538374 0.868457 0.530439 0.109912
C21   C     C_R   0.033994 0.631049 0.544867 0.111086
C22   C     C_R   0.959283 0.368473 0.477375 0.108466
C23   C     C_R   0.957622 0.631386 0.482677 0.115196
C24   C     C_R   0.035302 0.368231 0.540384 0.091508
C25   C     C_R   0.518335 0.197088 0.517353 -0.130004
C26   C     C_R   0.481821 0.802803 0.482520 -0.112007
C27   C     C_R   0.481285 0.197138 0.484603 -0.189161
C28   C     C_R   0.518386 0.802794 0.516249 -0.112462
C29   C     C_R   0.013955 0.696837 0.531505 -0.142169
C30   C     C_R   0.980053 0.302782 0.489597 -0.112108
C31   C     C_R   0.977352 0.697004 0.497767 -0.123320
C32   C     C_R   0.016461 0.302572 0.523744 -0.169153
C33   C     C_R   0.480169 0.065633 0.486102 0.039213
C34   C     C_R   0.520057 0.934231 0.513559 0.028436
C35   C     C_R   0.520036 0.065609 0.513888 0.030565
C36   C     C_R   0.480332 0.934248 0.485437 0.025237
C37   C     C_R   0.975370 0.565543 0.500222 0.029609
C38   C     C_R   0.015676 0.434002 0.526091 0.036240
C39   C     C_R   0.014948 0.565403 0.528519 0.030362
C40   C     C_R   0.976203 0.434086 0.497552 0.028195
C41   C     C_R   0.955618 0.499877 0.485100 -0.029618
C42   C     C_R   0.036191 0.499670 0.539042 -0.027228
C43   C     C_R   0.459708 0.999953 0.472828 -0.030922
C44   C     C_R   0.540624 0.999909 0.526578 -0.029992
C45   C     C_R   0.893230 0.433867 0.448496 0.067466
C46   C     C_R   0.105485 0.565678 0.557793 0.049148
C47   C     C_R   0.105707 0.433740 0.556720 0.033595
C48   C     C_R   0.892612 0.566184 0.450619 0.063864
C49   C     C_R   0.394671 0.933732 0.442808 0.070525
C50   C     C_R   0.605708 0.066119 0.556508 0.065125
C51   C     C_R   0.605563 0.933718 0.556711 0.063002
C52   C     C_R   0.394359 0.066181 0.443671 0.047260
C53   C     C_R   0.845115 0.434611 0.439478 -0.147302
C54   C     C_R   0.160478 0.564380 0.541449 -0.116887
C55   C     C_R   0.160589 0.435413 0.540955 -0.130100
C56   C     C_R   0.844793 0.565321 0.440651 -0.154085
C57   C     C_R   0.345360 0.934474 0.437633 -0.157327
C58   C     C_R   0.654791 0.065386 0.562433 -0.154856
C59   C     C_R   0.654696 0.934542 0.562647 -0.146375
C60   C     C_R   0.345147 0.065318 0.437945 -0.138881
C61   C     C_R   0.826418 0.499989 0.423209 -0.125874
C62   C     C_R   0.189121 0.499964 0.516691 -0.109448
C63   C     C_R   0.325947 0.999755 0.422728 -0.152457
C64   C     C_R   0.673876 0.000017 0.578163 -0.123063
C65   C     C_R   0.914029 0.499982 0.460610 0.065497
C66   C     C_R   0.081842 0.499689 0.552839 0.065865
C67   C     C_R   0.416589 0.999962 0.451923 0.065000
C68   C     C_R   0.583654 0.999907 0.547693 0.066954
C69   C     C_R   0.075968 0.369186 0.565392 -0.189991
C70   C     C_R   0.920154 0.630752 0.450944 -0.146057
C71   C     C_R   0.921445 0.369439 0.446293 -0.122212
C72   C     C_R   0.075352 0.630008 0.568321 -0.164903
C73   C     C_R   0.577375 0.869172 0.559018 -0.117185
C74   C     C_R   0.422318 0.130790 0.441921 -0.213249
C75   C     C_R   0.422856 0.869203 0.440070 -0.113818
C76   C     C_R   0.577617 0.130658 0.558950 -0.157788
H9    H     H_    0.084993 0.318347 0.586427 0.192133
H10   H     H_    0.914527 0.681280 0.424644 0.163965
H11   H     H_    0.915448 0.319294 0.419439 0.174136
H12   H     H_    0.084662 0.680628 0.589625 0.168974
H13   H     H_    0.584481 0.818643 0.583541 0.176515
H14   H     H_    0.415231 0.181385 0.417536 0.178015
H15   H     H_    0.415582 0.818681 0.415564 0.176514
H16   H     H_    0.584655 0.181136 0.583833 0.162607
C77   C     C_R   0.736900 0.292318 0.940671 0.024302
C78   C     C_R   0.289559 0.744208 0.037119 0.032034
C79   C     C_R   0.266906 0.290210 0.056026 0.022270
C80   C     C_R   0.710157 0.744955 0.963307 0.030818
C81   C     C_R   0.236861 0.792228 0.940495 0.023533
C82   C     C_R   0.789374 0.244291 0.037627 0.030947
C83   C     C_R   0.762757 0.792958 0.060140 0.024321
C84   C     C_R   0.206256 0.259348 0.965603 0.025898
C85   C     C_R   0.788739 0.259766 0.894783 0.035268
C86   C     C_R   0.235944 0.770914 0.082845 0.025314
C87   C     C_R   0.225248 0.238005 0.090297 0.022222
C88   C     C_R   0.763625 0.772209 0.917794 0.024504
C89   C     C_R   0.288614 0.759522 0.894463 0.034030
C90   C     C_R   0.735798 0.271149 0.083136 0.023881
C91   C     C_R   0.711101 0.759902 0.105999 0.036041
C92   C     C_R   0.248330 0.311594 0.928955 0.031361
C93   C     C_R   0.818293 0.244793 0.942398 -0.003946
C94   C     C_R   0.213527 0.805946 0.033522 -0.010895
C95   C     C_R   0.190257 0.229963 0.051770 -0.011392
C96   C     C_R   0.785932 0.807212 0.967327 -0.012962
C97   C     C_R   0.318251 0.744508 0.941860 -0.000067
C98   C     C_R   0.713525 0.306196 0.033632 -0.012427
C99   C     C_R   0.681482 0.744889 0.058556 -0.005540
C100  C     C_R   0.278385 0.328948 0.975825 -0.008469
C101  C     C_R   0.662188 0.356993 0.935412 -0.017563
C102  C     C_R   0.369080 0.695462 0.042797 -0.009976
C103  C     C_R   0.335612 0.359811 0.073746 -0.033066
C104  C     C_R   0.630874 0.695585 0.957326 -0.016606
C105  C     C_R   0.162136 0.856966 0.935433 -0.018223
C106  C     C_R   0.868638 0.195278 0.043755 -0.013219
C107  C     C_R   0.837492 0.857685 0.065311 -0.018391
C108  C     C_R   0.131297 0.194951 0.960135 -0.004324
C109  C     C_R   0.629792 0.367725 0.891134 -0.085703
C110  C     C_R   0.390276 0.662696 0.095539 -0.028642
C111  C     C_R   0.370998 0.366310 0.112116 -0.079348
C112  C     C_R   0.609873 0.662532 0.904417 -0.038083
C113  C     C_R   0.129758 0.867758 0.891134 -0.085893
C114  C     C_R   0.889508 0.161786 0.096480 -0.043216
C115  C     C_R   0.870075 0.868114 0.109238 -0.084885
C116  C     C_R   0.110466 0.163022 0.905721 -0.044176
C117  C     C_R   0.645539 0.339013 0.807698 -0.300330
C118  C     C_R   0.365968 0.675192 0.186767 -0.225431
C119  C     C_R   0.361245 0.328403 0.188011 -0.291745
C120  C     C_R   0.634115 0.675115 0.813235 -0.235216
C121  C     C_R   0.145518 0.839144 0.807631 -0.303847
C122  C     C_R   0.865120 0.173837 0.187680 -0.243849
C123  C     C_R   0.854441 0.839305 0.192555 -0.300037
C124  C     C_R   0.131975 0.181421 0.816073 -0.230457
H17   H     H_    0.619517 0.344885 0.777207 0.184899
H18   H     H_    0.385969 0.657875 0.224560 0.207409
H19   H     H_    0.385773 0.338644 0.220445 0.186932
H20   H     H_    0.614172 0.657540 0.775381 0.208381
H21   H     H_    0.119492 0.845012 0.777146 0.185676
H22   H     H_    0.884953 0.156035 0.225553 0.206782
H23   H     H_    0.880591 0.845012 0.222851 0.185342
H24   H     H_    0.117305 0.154319 0.775124 0.199022
C125  C     C_R   0.694783 0.305515 0.761081 -0.075080
C126  C     C_R   0.314709 0.704467 0.231096 -0.100099
C127  C     C_R   0.318703 0.280798 0.225980 -0.064549
C128  C     C_R   0.685266 0.704784 0.769001 -0.104885
C129  C     C_R   0.194769 0.805693 0.760976 -0.078754
C130  C     C_R   0.814129 0.203767 0.231746 -0.100497
C131  C     C_R   0.805157 0.805825 0.239243 -0.076366
C132  C     C_R   0.173797 0.230751 0.776608 -0.086450
C133  C     C_R   0.729353 0.295851 0.801720 -0.011611
C134  C     C_R   0.285340 0.717153 0.182729 -0.011009
C135  C     C_R   0.290637 0.259939 0.176438 -0.016474
C136  C     C_R   0.714542 0.717927 0.817498 -0.017653
C137  C     C_R   0.229337 0.796092 0.801547 -0.011149
C138  C     C_R   0.784817 0.216866 0.183370 -0.017296
C139  C     C_R   0.770486 0.796302 0.198842 -0.011412
C140  C     C_R   0.194112 0.265669 0.830591 -0.014934
C141  C     C_R   0.708535 0.312813 0.893481 -0.001144
C142  C     C_R   0.314803 0.719544 0.087380 0.008737
C143  C     C_R   0.298056 0.302697 0.101489 -0.012215
C144  C     C_R   0.685044 0.720100 0.912873 0.004876
C145  C     C_R   0.208502 0.812872 0.893373 -0.001571
C146  C     C_R   0.814379 0.219309 0.088075 0.005631
C147  C     C_R   0.791177 0.813442 0.107213 -0.001091
C148  C     C_R   0.177808 0.239066 0.918228 -0.010859
C149  C     C_R   0.653830 0.393194 0.015455 0.268681
C150  C     C_R   0.400278 0.706682 0.948606 0.302808
C151  C     C_R   0.337191 0.407710 0.007470 0.269203
C152  C     C_R   0.599583 0.706664 0.051567 0.300932
C153  C     C_R   0.153688 0.892917 0.015691 0.271515
C154  C     C_R   0.900324 0.207721 0.949986 0.293378
C155  C     C_R   0.845688 0.894190 0.985651 0.269971
C156  C     C_R   0.106046 0.188568 0.055482 0.317292
C157  C     C_R   0.673681 0.361462 0.069943 -0.167647
C158  C     C_R   0.375397 0.733722 0.899379 -0.122207
C159  C     C_R   0.319413 0.383147 0.947584 -0.128730
C160  C     C_R   0.624379 0.733770 0.100978 -0.128443
C161  C     C_R   0.173537 0.861027 0.070092 -0.171982
C162  C     C_R   0.875539 0.234471 0.900326 -0.130942
C163  C     C_R   0.825643 0.862709 0.931227 -0.168502
C164  C     C_R   0.136790 0.201550 0.100112 -0.129265
C165  C     C_R   0.784312 0.272798 0.754969 0.321765
C166  C     C_R   0.228178 0.726060 0.224370 0.334422
C167  C     C_R   0.256170 0.198557 0.196868 0.320340
C168  C     C_R   0.771624 0.727642 0.776016 0.331995
C169  C     C_R   0.284272 0.773062 0.754672 0.322336
C170  C     C_R   0.727716 0.226396 0.224898 0.329507
C171  C     C_R   0.715584 0.773026 0.245704 0.321398
C172  C     C_R   0.226739 0.328996 0.804729 0.312306
C173  C     C_R   0.809896 0.246537 0.802392 -0.270347
C174  C     C_R   0.204968 0.756939 0.175379 -0.278230
C175  C     C_R   0.222800 0.190420 0.156869 -0.270290
C176  C     C_R   0.794648 0.758785 0.825195 -0.278103
C177  C     C_R   0.309668 0.746240 0.802077 -0.264641
C178  C     C_R   0.704707 0.257421 0.175690 -0.276792
C179  C     C_R   0.690135 0.746280 0.198255 -0.270904
C180  C     C_R   0.252955 0.350741 0.853773 -0.275079
H25   H     H_    0.848187 0.219414 0.764048 0.192611
H26   H     H_    0.161424 0.764211 0.208223 0.187375
H27   H     H_    0.197966 0.142178 0.172583 0.205871
H28   H     H_    0.838142 0.766703 0.792362 0.187891
H29   H     H_    0.347740 0.718642 0.763715 0.193532
H30   H     H_    0.661206 0.265111 0.208443 0.189323
H31   H     H_    0.652082 0.718537 0.236507 0.192808
H32   H     H_    0.272452 0.402738 0.836549 0.200868
O33   O     O_R   0.062020 0.072840 0.007170 -0.545855
O34   O     O_R   0.937980 0.927160 0.992830 -0.603020
O35   O     O_R   0.937980 0.072840 0.992830 -0.547474
O36   O     O_R   0.062020 0.927160 0.007170 -0.600128
O37   O     O_R   0.562020 0.572840 0.007170 -0.547383
O38   O     O_R   0.437980 0.427160 0.992830 -0.624338
O39   O     O_R   0.437980 0.572840 0.992830 -0.559946
O40   O     O_R   0.562020 0.427160 0.007170 -0.600287
O41   O     O_R   0.947860 0.073950 0.109290 -0.605937
O42   O     O_R   0.052140 0.926050 0.890710 -0.632790
O43   O     O_R   0.052140 0.073950 0.890710 -0.611232
O44   O     O_R   0.947860 0.926050 0.109290 -0.629298
O45   O     O_R   0.447860 0.573950 0.109290 -0.609059
O46   O     O_R   0.552140 0.426050 0.890710 -0.630927
O47   O     O_R   0.552140 0.573950 0.890710 -0.612699
O48   O     O_R   0.447860 0.426050 0.109290 -0.630057
C181  C     C_R   0.071988 0.102759 0.936320 0.974436
C182  C     C_R   0.921188 0.907166 0.069562 0.909766
C183  C     C_R   0.929979 0.104527 0.062239 0.994523
C184  C     C_R   0.078737 0.907012 0.930527 0.904931
C185  C     C_R   0.569674 0.604855 0.938191 0.980217
C186  C     C_R   0.420056 0.409555 0.071527 0.942968
C187  C     C_R   0.430620 0.605154 0.061597 0.996699
C188  C     C_R   0.578769 0.407045 0.930499 0.918022
Zn9   Zn    Zn3+2 0.505960 0.500000 0.080520 1.122510
Zn10  Zn    Zn3+2 0.494040 0.500000 0.919480 1.088328
Zn11  Zn    Zn3+2 0.005960 1.000000 0.080520 1.130000
Zn12  Zn    Zn3+2 0.994040 0.000000 0.919480 1.114602
C189  C     C_1   0.789518 0.499994 0.385754 0.245066
N1    N     N_1   0.760280 0.499985 0.355642 -0.174231
C190  C     C_1   0.246852 0.500073 0.450237 0.311956
N2    N     N_1   0.292407 0.500168 0.397332 -0.166473
C191  C     C_1   0.286212 0.998476 0.391357 0.330919
N3    N     N_1   0.254330 0.995575 0.366878 -0.074337
C192  C     C_1   0.711898 0.000115 0.613371 0.247862
N4    N     N_1   0.742029 0.000185 0.641713 -0.173421
N5    N     N_R   0.641362 0.469464 0.025839 0.225052
O49   O     O_R   0.665256 0.512246 0.956651 -0.396058
O50   O     O_R   0.608586 0.497050 0.104167 -0.377948
N6    N     N_R   0.458375 0.700170 0.904362 0.184030
O51   O     O_R   0.486267 0.738098 0.932454 -0.389086
O52   O     O_R   0.483724 0.664118 0.829397 -0.390969
N7    N     N_R   0.345405 0.484310 0.013509 0.222992
O53   O     O_R   0.330318 0.513060 0.092168 -0.415998
O54   O     O_R   0.356717 0.527325 0.945964 -0.385293
N8    N     N_R   0.541485 0.700035 0.095654 0.185256
O55   O     O_R   0.513671 0.737761 0.067399 -0.389937
O56   O     O_R   0.516050 0.664062 0.170609 -0.385027
N9    N     N_R   0.141198 0.969174 0.026391 0.222354
O57   O     O_R   0.165352 0.012181 0.957497 -0.419154
O58   O     O_R   0.108301 0.996546 0.104786 -0.377061
N10   N     N_R   0.958568 0.202965 0.907249 0.189976
O59   O     O_R   0.984957 0.235563 0.942454 -0.388671
O60   O     O_R   0.985537 0.170253 0.830157 -0.382761
N11   N     N_R   0.858238 0.970452 0.975735 0.225123
O61   O     O_R   0.834379 0.013023 0.045206 -0.397461
O62   O     O_R   0.890768 0.998305 0.897482 -0.380227
N12   N     N_R   0.047807 0.183139 0.107675 0.196038
O63   O     O_R   0.017187 0.221325 0.085508 -0.392967
O64   O     O_R   0.025116 0.140401 0.177146 -0.372077
C193  C     C_1   0.662496 0.396735 0.153589 0.280326
N13   N     N_1   0.653648 0.424920 0.220306 -0.157754
C194  C     C_1   0.410699 0.764513 0.811563 0.274375
N14   N     N_1   0.439043 0.789348 0.741731 -0.174692
C195  C     C_1   0.351523 0.405241 0.854784 0.244875
N15   N     N_1   0.377674 0.422859 0.780567 -0.164874
C196  C     C_1   0.589040 0.764358 0.188932 0.281101
N16   N     N_1   0.560673 0.789042 0.258871 -0.172066
C197  C     C_1   0.161870 0.895793 0.154320 0.281805
N17   N     N_1   0.152516 0.923499 0.221614 -0.136787
C198  C     C_1   0.910773 0.265793 0.812891 0.280265
N18   N     N_1   0.939046 0.291115 0.743352 -0.159491
C199  C     C_1   0.836481 0.898361 0.848047 0.280327
N19   N     N_1   0.845036 0.926851 0.781717 -0.157832
C200  C     C_1   0.109351 0.200104 0.197704 0.293290
N20   N     N_1   0.087432 0.199159 0.275558 -0.173087
N21   N     N_R   0.819044 0.294862 0.664161 0.230499
O65   O     O_R   0.859143 0.253708 0.610279 -0.424258
O66   O     O_R   0.817585 0.361982 0.642068 -0.393611
N22   N     N_R   0.192680 0.693644 0.309969 0.225661
O67   O     O_R   0.204551 0.630667 0.330321 -0.408394
O68   O     O_R   0.144972 0.721150 0.361437 -0.411000
N23   N     N_R   0.259219 0.138949 0.248326 0.221311
O69   O     O_R   0.305926 0.118223 0.238756 -0.426551
O70   O     O_R   0.216268 0.100013 0.296532 -0.390994
N24   N     N_R   0.807403 0.696113 0.690068 0.226445
O71   O     O_R   0.796604 0.632625 0.669043 -0.387972
O72   O     O_R   0.854215 0.725783 0.638191 -0.420252
N25   N     N_R   0.319096 0.795523 0.663969 0.229044
O73   O     O_R   0.359753 0.755069 0.610261 -0.422891
O74   O     O_R   0.317161 0.862549 0.641988 -0.411101
N26   N     N_R   0.691971 0.194815 0.310887 0.227052
O75   O     O_R   0.703206 0.131771 0.332108 -0.385782
O76   O     O_R   0.644694 0.223491 0.362236 -0.412159
N27   N     N_R   0.680799 0.795347 0.336481 0.230779
O77   O     O_R   0.640284 0.754629 0.390147 -0.426101
O78   O     O_R   0.682528 0.862473 0.358528 -0.392043
N28   N     N_R   0.226089 0.378852 0.740065 0.220292
O79   O     O_R   0.268219 0.419137 0.691657 -0.385652
O80   O     O_R   0.181208 0.390889 0.737660 -0.407273

loop_
_geom_bond_atom_site_label_1
_geom_bond_atom_site_label_2
_geom_bond_distance
_ccdc_geom_bond_type
O4    C4    1.256057 A    
O5    C5    1.242462 A    
C134  C142  1.419220 A    
C59   C64   1.397759 A    
O7    Zn7   2.017549 S    
O31   Zn4   2.069585 S    
C115  C123  1.369544 A    
O8    Zn8   2.017549 S    
C123  C131  1.368654 A    
N9    O57   1.301432 A    
O46   Zn10  2.001967 S    
C84   C148  1.428775 A    
C121  C129  1.368491 A    
C114  C122  1.375042 A    
C100  C159  1.423946 A    
C171  N27   1.430852 S    
C160  C196  1.450689 S    
C105  C153  1.426713 A    
C38   C40   1.408090 A    
C131  C139  1.446364 A    
C83   C96   1.408847 A    
C129  C137  1.446807 A    
O30   C6    1.296746 A    
C1    C125  1.459751 S    
C161  C197  1.451318 S    
C135  C167  1.420427 A    
C150  C158  1.413756 A    
O20   C12   1.299823 A    
O28   Zn7   2.069585 S    
C151  N7    1.443393 S    
C36   C43   1.405026 A    
C49   C67   1.409435 A    
C91   C99   1.435451 A    
C124  C132  1.378972 A    
C51   C73   1.419943 A    
C49   C57   1.431030 A    
O2    C2    1.257440 A    
C87   C95   1.426290 A    
C136  C144  1.419469 A    
C94   C161  1.418940 A    
C25   C27   1.396448 A    
C52   C67   1.410780 A    
O6    Zn6   2.016989 S    
C29   C31   1.397437 A    
C41   C65   1.416735 A    
C110  C118  1.376907 A    
C198  N18   1.157464 T    
C87   C175  1.406267 A    
C103  C151  1.414399 A    
C38   C42   1.403086 A    
C45   C53   1.432921 A    
C51   C68   1.409969 A    
N23   O70   1.301179 A    
C106  C146  1.409998 A    
O27   C3    1.311724 A    
C7    C131  1.458654 S    
O48   Zn9   1.999708 S    
C5    C129  1.459361 S    
C152  C160  1.413432 A    
C138  C170  1.420759 A    
C149  N5    1.440916 S    
C90   C98   1.422362 A    
C91   C179  1.404074 A    
C140  C148  1.416116 A    
C173  H25   1.077143 S    
O23   Zn7   2.021474 S    
C44   C68   1.417368 A    
C171  C179  1.398024 A    
H2    C31   1.083586 S    
O30   Zn1   2.069456 S    
C34   C36   1.409752 A    
C48   C56   1.433701 A    
H6    C27   1.083633 S    
N8    O55   1.299483 A    
O17   Zn1   2.018975 S    
C119  H19   1.085313 S    
C125  C133  1.447940 A    
C120  H20   1.084725 S    
C166  N22   1.438177 S    
O47   C185  1.263363 A    
C15   C56   1.477496 S    
C20   C73   1.395970 A    
C103  C143  1.402866 A    
H7    C26   1.083482 S    
O24   Zn8   2.021474 S    
C170  N26   1.437776 S    
O9    C9    1.261436 A    
C50   C58   1.431376 A    
C60   C63   1.397547 A    
N6    O52   1.301632 A    
C97   C158  1.424273 A    
C140  C172  1.418179 A    
O13   C13   1.245758 A    
O40   Zn9   1.988769 S    
C108  C148  1.408307 A    
C103  C111  1.431668 A    
C11   C60   1.480334 S    
C104  C112  1.425634 A    
N28   O79   1.301583 A    
C13   C54   1.449899 S    
N23   O69   1.301584 A    
C122  H22   1.084776 S    
C164  C200  1.451393 S    
C40   C41   1.404917 A    
C46   C54   1.434207 A    
O12   C12   1.260257 A    
C197  N17   1.158740 T    
O48   C186  1.262559 A    
O7    C7    1.241549 A    
O9    Zn6   2.107592 S    
C136  C168  1.420401 A    
C154  C162  1.415879 A    
O11   Zn8   2.109044 S    
C104  C152  1.420222 A    
O37   Zn9   1.987992 S    
O38   C186  1.222303 A    
C21   C29   1.402906 A    
O16   Zn3   2.109044 S    
C168  N24   1.436703 S    
C118  H18   1.084711 S    
C23   C31   1.404730 A    
C121  H21   1.085620 S    
O22   Zn6   2.018975 S    
C47   C69   1.421085 A    
C42   C66   1.411200 A    
C50   C76   1.419568 A    
C26   C28   1.396310 A    
C55   C62   1.383191 A    
O18   C10   1.301086 A    
C30   C32   1.397623 A    
C78   C97   1.416582 A    
C150  N6    1.438154 S    
O43   Zn12  1.999707 S    
C18   C26   1.403365 A    
C88   C176  1.403595 A    
C17   C76   1.394711 A    
O2    Zn2   2.016989 S    
C46   C72   1.419861 A    
H8    C25   1.083642 S    
O6    C6    1.256198 A    
O33   Zn11  1.987992 S    
C105  C113  1.446108 A    
C128  C136  1.436137 A    
C93   C162  1.425836 A    
N21   O66   1.300880 A    
H1    C32   1.083573 S    
C139  C147  1.408480 A    
O34   Zn12  1.987992 S    
H3    C30   1.083468 S    
C113  C121  1.369337 A    
C33   C35   1.409466 A    
C47   C55   1.434421 A    
O21   C13   1.297623 A    
N25   O74   1.301017 A    
C82   C93   1.416304 A    
C14   C53   1.479040 S    
C52   C60   1.433152 A    
O23   C15   1.300444 A    
C77   C98   1.408965 A    
O24   C16   1.297064 A    
C2    C126  1.466529 S    
N22   O67   1.301552 A    
C179  H31   1.076985 S    
C101  C109  1.446102 A    
C80   C99   1.416398 A    
C16   C55   1.448384 S    
C82   C146  1.420845 A    
C107  C155  1.426110 A    
C79   C100  1.429745 A    
C104  C144  1.410066 A    
C96   C163  1.418375 A    
H5    C28   1.083463 S    
O3    C3    1.247119 A    
C90   C178  1.404421 A    
N5    O49   1.301534 A    
C170  C178  1.401376 A    
C19   C33   1.401868 A    
N24   O72   1.300890 A    
C81   C94   1.409509 A    
C108  C116  1.434810 A    
C19   C27   1.403349 A    
C79   C143  1.436219 A    
C12   C59   1.480779 S    
C112  C120  1.376926 A    
C3    C127  1.477549 S    
C4    C128  1.466793 S    
N26   O76   1.301323 A    
C133  C165  1.421612 A    
C102  C150  1.419947 A    
O8    C8    1.257423 A    
O47   Zn10  1.999707 S    
C20   C34   1.401732 A    
C49   C75   1.419671 A    
C165  N21   1.430015 S    
C82   C90   1.412184 A    
C111  C119  1.372190 A    
O41   C183  1.263040 A    
O12   Zn7   2.109044 S    
O42   C184  1.274932 A    
O13   Zn2   2.107592 S    
O40   C188  1.208316 A    
O43   C181  1.266978 A    
C158  C194  1.450778 S    
C113  C184  1.452466 S    
C114  C183  1.454386 S    
C92   C180  1.416471 A    
C18   C75   1.395547 A    
C115  C182  1.451412 S    
C45   C71   1.420754 A    
C69   H9    1.077197 S    
C153  C161  1.416314 A    
C71   H11   1.079026 S    
C106  C154  1.418679 A    
O35   Zn12  1.988767 S    
O10   C10   1.259516 A    
O36   Zn11  1.988769 S    
C133  C141  1.408804 A    
C153  N9    1.440830 S    
O14   C14   1.259549 A    
C19   C74   1.395055 A    
C122  C130  1.374943 A    
C81   C89   1.414417 A    
C78   C142  1.421552 A    
C123  H23   1.085607 S    
C47   C66   1.407403 A    
C53   C61   1.396487 A    
C130  C138  1.435875 A    
O44   Zn11  1.999708 S    
C34   C44   1.404365 A    
C156  C164  1.416097 A    
C175  H27   1.082210 S    
O10   Zn5   2.107592 S    
C124  H24   1.084537 S    
C149  C157  1.416389 A    
O45   C187  1.264689 A    
O33   C181  1.226370 A    
O38   Zn10  1.987992 S    
O44   C182  1.273609 A    
O39   C187  1.234632 A    
C64   C192  1.453690 S    
C107  C115  1.444466 A    
C21   C39   1.403986 A    
C116  C124  1.381408 A    
C95   C164  1.421765 A    
C57   C63   1.395848 A    
C117  H17   1.085618 S    
C194  N14   1.157684 T    
O16   C16   1.243229 A    
N8    O56   1.301647 A    
C111  C186  1.448856 S    
O19   C11   1.299470 A    
N12   O64   1.301922 A    
N9    O58   1.301924 A    
C152  N8    1.438211 S    
C9    C58   1.479535 S    
C159  C195  1.446341 S    
C85   C93   1.437062 A    
N11   O61   1.301498 A    
C178  H30   1.082636 S    
O25   Zn6   2.069456 S    
N7    O54   1.301631 A    
N27   O77   1.301244 A    
C80   C144  1.420911 A    
C37   C41   1.405993 A    
O27   Zn8   2.069585 S    
O35   C183  1.233469 A    
C105  C145  1.406481 A    
C6    C130  1.463853 S    
C81   C145  1.426062 A    
C102  C142  1.410781 A    
O32   Zn3   2.069585 S    
C139  C171  1.420925 A    
C191  N3    1.156088 T    
C78   C86   1.412225 A    
C137  C169  1.421002 A    
C192  N4    1.157722 T    
O41   Zn11  2.001966 S    
O42   Zn12  2.001967 S    
C174  H26   1.082672 S    
C177  H29   1.076930 S    
C45   C65   1.409136 A    
O15   Zn4   2.109044 S    
N28   O80   1.301624 A    
C84   C95   1.414318 A    
C118  C126  1.376229 A    
O22   C14   1.301362 A    
C48   C65   1.408759 A    
C54   C62   1.383586 A    
C20   C28   1.403347 A    
O46   C188  1.275127 A    
N7    O53   1.301858 A    
C126  C134  1.435861 A    
O5    Zn5   2.016989 S    
C86   C174  1.404712 A    
N12   O63   1.301080 A    
O3    Zn3   2.017549 S    
C75   H15   1.078821 S    
C101  C149  1.426421 A    
C73   H13   1.078752 S    
C155  N11   1.440669 S    
C24   C38   1.402749 A    
C72   H12   1.077470 S    
C51   C59   1.432829 A    
C21   C72   1.398537 A    
C77   C85   1.414932 A    
C86   C94   1.422714 A    
C98   C157  1.418773 A    
C200  N20   1.157751 T    
C80   C88   1.411571 A    
O45   Zn9   2.001966 S    
C193  N13   1.157663 T    
C43   C67   1.417417 A    
C109  C188  1.453137 S    
C199  N19   1.157634 T    
C10   C57   1.480187 S    
C110  C187  1.455991 S    
C17   C35   1.401542 A    
C196  N16   1.157626 T    
C33   C43   1.404485 A    
O28   C4    1.296391 A    
C24   C32   1.403342 A    
C39   C42   1.401836 A    
O29   C5    1.304885 A    
C176  H28   1.082715 S    
C156  N12   1.442808 S    
C92   C100  1.446632 A    
C155  C163  1.415774 A    
C77   C141  1.426426 A    
C88   C96   1.421247 A    
C22   C30   1.404511 A    
C172  N28   1.439024 S    
N21   O65   1.301150 A    
O15   C15   1.257247 A    
C22   C40   1.401136 A    
C84   C92   1.416701 A    
C46   C66   1.408223 A    
O1    C1    1.242004 A    
C58   C64   1.398068 A    
N25   O73   1.301267 A    
C35   C44   1.404944 A    
O36   C184  1.208188 A    
C83   C91   1.414083 A    
O4    Zn4   2.017549 S    
O18   Zn2   2.018975 S    
C48   C70   1.421631 A    
N6    O51   1.299494 A    
C127  C135  1.453396 A    
C119  C127  1.369456 A    
C56   C61   1.397209 A    
C120  C128  1.375838 A    
O14   Zn1   2.107592 S    
C109  C117  1.369101 A    
C17   C25   1.403395 A    
C167  C175  1.405106 A    
C117  C125  1.368665 A    
C23   C37   1.399758 A    
O26   C2    1.296823 A    
C106  C114  1.425650 A    
C24   C69   1.397862 A    
O11   C11   1.259948 A    
C61   C189  1.453812 S    
C89   C97   1.436075 A    
C108  C156  1.424103 A    
C99   C160  1.423731 A    
C138  C146  1.418577 A    
C76   H16   1.078697 S    
C162  C198  1.449797 S    
O29   Zn2   2.069456 S    
C37   C39   1.407965 A    
C137  C145  1.409009 A    
H4    C29   1.083575 S    
C169  N25   1.431214 S    
C163  C199  1.450294 S    
C107  C147  1.405888 A    
C62   C190  1.465073 S    
C83   C147  1.424858 A    
C189  N1    1.157710 T    
O34   C182  1.209049 A    
N11   O62   1.301873 A    
N27   O78   1.301004 A    
C132  C140  1.442024 A    
C50   C68   1.409377 A    
C22   C71   1.396221 A    
C135  C143  1.424154 A    
C63   C191  1.450289 S    
C89   C177  1.404256 A    
N26   O75   1.301608 A    
C112  C185  1.454130 S    
C169  C177  1.398207 A    
N10   O59   1.300957 A    
C167  N23   1.432903 S    
C166  C174  1.401505 A    
O26   Zn5   2.069456 S    
C154  N10   1.440353 S    
C190  N2    1.157975 T    
C8    C132  1.479747 S    
C85   C173  1.403830 A    
C180  H32   1.073275 S    
C23   C70   1.394577 A    
C116  C181  1.461189 S    
C151  C159  1.404473 A    
C134  C166  1.420796 A    
O37   C185  1.233945 A    
C172  C180  1.408425 A    
O20   Zn4   2.021474 S    
O21   Zn5   2.018975 S    
O1    Zn1   2.016989 S    
N10   O60   1.301599 A    
C79   C87   1.407788 A    
N5    O50   1.301926 A    
O31   C7    1.303609 A    
C52   C74   1.419712 A    
O32   C8    1.302333 A    
C195  N15   1.157849 T    
O17   C9    1.299562 A    
C18   C36   1.401579 A    
C102  C110  1.426669 A    
O19   Zn3   2.021474 S    
N22   O68   1.301591 A    
N24   O71   1.301498 A    
O25   C1    1.305483 A    
C168  C176  1.400514 A    
O39   Zn10  1.988767 S    
C70   H10   1.078256 S    
C165  C173  1.398977 A    
C74   H14   1.078503 S    
C101  C141  1.406887 A    
C157  C193  1.450235 S    
