data_mof_unit_37175.cif
_audit_creation_date              2012-12-10T18:58:37-0500
_audit_creation_method            fapswitch 2.2
_symmetry_space_group_name_H-M    P1
_symmetry_Int_Tables_number       1
_space_group_crystal_system       triclinic
_cell_length_a                    10.730122
_cell_length_b                    9.904516
_cell_length_c                    17.528938
_cell_angle_alpha                 89.916211
_cell_angle_beta                  91.167761
_cell_angle_gamma                 90.052528
_cell_volume                      1862.52743653

loop_
_atom_site_label
_atom_site_type_symbol
_atom_type_description
_atom_site_fract_x
_atom_site_fract_y
_atom_site_fract_z
_atom_type_partial_charge
C1    C     C_R   0.260049 0.499952 0.500026 0.850796
C2    C     C_R   0.500330 0.499953 0.646563 0.891675
C3    C     C_R   0.872515 0.500070 0.499563 -0.037575
C4    C     C_R   0.127494 0.499918 0.500084 -0.038503
C5    C     C_R   0.531738 0.625695 0.848074 0.506864
C6    C     C_R   0.555091 0.379485 0.154315 0.499485
C7    C     C_R   0.519349 0.623094 0.151772 0.508031
C8    C     C_R   0.539540 0.378592 0.848210 0.500859
C9    C     C_R   0.509625 0.623044 0.769119 -0.338943
C10   C     C_R   0.539485 0.379435 0.232984 -0.313191
C11   C     C_R   0.504838 0.621870 0.230508 -0.313528
C12   C     C_R   0.739956 0.500045 0.499874 0.853825
C13   C     C_R   0.524075 0.378365 0.769257 -0.322492
C14   C     C_R   0.509482 0.500215 0.729519 -0.164172
C15   C     C_R   0.513243 0.500143 0.271084 -0.176666
C16   C     C_R   0.599479 0.071890 0.529675 0.372661
C17   C     C_R   0.400771 0.928092 0.469968 0.375892
C18   C     C_R   0.401087 0.071836 0.469604 0.372772
C19   C     C_R   0.599281 0.928159 0.529891 0.378703
C20   C     C_R   0.545479 0.502363 0.886588 -0.110108
C21   C     C_R   0.547757 0.502167 0.114750 -0.119040
C22   C     C_3   0.601211 0.847085 0.855650 -0.294400
C23   C     C_1   0.555448 0.502232 0.966948 0.115586
C24   C     C_3   0.481277 0.177409 0.111525 -0.281007
C25   C     C_3   0.388723 0.786970 0.106783 -0.303739
C26   C     C_3   0.441626 0.191589 0.892563 -0.323428
C27   C     C_3   0.704810 0.163156 0.632490 -0.190244
C28   C     C_3   0.297891 0.836650 0.366268 -0.207272
C29   C     C_3   0.307933 0.169016 0.364339 -0.204537
C30   C     C_3   0.697598 0.833502 0.634238 -0.212994
C31   C     C_1   0.556264 0.502077 0.034587 0.109007
C32   C     C_R   0.063526 0.377144 0.496076 -0.191496
C33   C     C_R   0.936496 0.622842 0.503440 -0.189285
C34   C     C_R   0.935918 0.377233 0.495571 -0.181027
C35   C     C_R   0.064094 0.622762 0.503954 -0.183624
C36   C     C_R   0.501882 0.500062 0.353557 0.891922
H1    H     H_    0.492028 0.716276 0.738747 0.170383
H2    H     H_    0.689182 0.807784 0.831274 0.144084
H3    H     H_    0.627942 0.922164 0.899946 0.222001
H4    H     H_    0.400969 0.229441 0.082966 0.136358
H5    H     H_    0.454612 0.139237 0.168636 0.142089
H6    H     H_    0.504932 0.088621 0.076215 0.214828
H7    H     H_    0.357110 0.823739 0.163084 0.136639
H8    H     H_    0.325283 0.706266 0.084640 0.157379
H9    H     H_    0.382300 0.872727 0.066154 0.191104
H10   H     H_    0.407779 0.156746 0.835515 0.158576
H11   H     H_    0.370364 0.256430 0.919754 0.154946
H12   H     H_    0.550592 0.285571 0.264106 0.179213
H13   H     H_    0.454298 0.100796 0.928986 0.199226
H14   H     H_    0.623396 0.119752 0.662677 0.094793
H15   H     H_    0.708096 0.273410 0.642932 0.182449
H16   H     H_    0.791141 0.120772 0.658715 0.155579
H17   H     H_    0.294485 0.726419 0.355781 0.178962
H18   H     H_    0.380207 0.879712 0.336795 0.097099
H19   H     H_    0.212232 0.879155 0.339272 0.154474
H20   H     H_    0.401091 0.147054 0.340006 0.111033
H21   H     H_    0.286988 0.277433 0.354874 0.179270
H22   H     H_    0.236202 0.111815 0.331530 0.143076
H23   H     H_    0.488242 0.716174 0.259583 0.171672
H24   H     H_    0.711360 0.723877 0.644002 0.183498
H25   H     H_    0.608740 0.864409 0.661162 0.099777
H26   H     H_    0.775803 0.885188 0.664378 0.147477
H27   H     H_    0.523582 0.282880 0.739484 0.168699
H28   H     H_    0.111349 0.281257 0.493316 0.217319
H29   H     H_    0.888717 0.718731 0.506132 0.218549
H30   H     H_    0.887604 0.281449 0.491852 0.214720
H31   H     H_    0.112410 0.718563 0.507625 0.213564
H32   H     H_    0.544823 0.900988 0.811383 0.150812
N1    N     N_R   0.500000 0.857200 0.500000 -0.209562
N2    N     N_R   0.500000 0.142800 0.500000 -0.209867
O1    O     O_R   0.316770 0.614620 0.500000 -0.576770
O2    O     O_3   0.586784 0.262135 0.116577 -0.574966
O3    O     O_3   0.513688 0.743060 0.111167 -0.578114
O4    O     O_3   0.557146 0.258738 0.887712 -0.593171
O5    O     O_3   0.705994 0.139547 0.553033 -0.565362
O6    O     O_3   0.294815 0.860326 0.445698 -0.561817
O7    O     O_3   0.296794 0.139743 0.442894 -0.564855
O8    O     O_3   0.704506 0.860347 0.555200 -0.563794
O9    O     O_R   0.683230 0.385380 0.500000 -0.576346
O10   O     O_R   0.683230 0.614620 0.500000 -0.575025
O11   O     O_R   0.316770 0.385380 0.500000 -0.576681
O12   O     O_R   0.500010 0.614710 0.389120 -0.618061
O13   O     O_R   0.499990 0.385290 0.610880 -0.622616
O14   O     O_R   0.499990 0.614710 0.610880 -0.622157
O15   O     O_R   0.500010 0.385290 0.389120 -0.623116
O16   O     O_3   0.529785 0.744778 0.890164 -0.592643
Zn1   Zn    Zn3+2 0.500000 0.653120 0.500000 0.993660
Zn2   Zn    Zn3+2 0.500000 0.346880 0.500000 0.990806

loop_
_geom_bond_atom_site_label_1
_geom_bond_atom_site_label_2
_ccdc_geom_bond_type
C18   N2    A    
C17   N1    A    
C8    C13   A    
C16   O5    S    
C24   H6    S    
C2    O14   A    
O14   Zn1   S    
N2    Zn2   S    
C34   H30   S    
C33   H29   S    
C7    O3    S    
C5    C20   A    
C6    O2    S    
C21   C31   S    
C8    C20   A    
O10   Zn1   S    
C10   C15   A    
C16   C19   A    
C11   H23   S    
C3    C33   A    
C1    O11   A    
O12   Zn1   S    
C22   H2    S    
C12   O9    A    
C26   O4    S    
C3    C12   S    
C24   H4    S    
C11   C15   A    
C36   O12   A    
C30   H24   S    
C17   O6    S    
N1    Zn1   S    
C27   H14   S    
O13   Zn2   S    
C4    C35   A    
C13   C14   A    
C24   H5    S    
C25   H7    S    
C2    O13   A    
C27   O5    S    
C25   H8    S    
C9    H1    S    
O9    Zn2   S    
C28   H19   S    
C27   H15   S    
C16   N2    A    
C32   H28   S    
C26   H13   S    
C28   H18   S    
C3    C34   A    
C7    C21   A    
C6    C21   A    
C23   C31   T    
C19   O8    S    
C7    C11   A    
C9    C14   A    
C5    C9    A    
C13   H27   S    
C20   C23   S    
C35   H31   S    
C8    O4    S    
C17   C18   A    
C1    O1    A    
C22   H32   S    
C4    C32   A    
C26   H11   S    
O1    Zn1   S    
C5    O16   S    
C29   H21   S    
C30   H26   S    
C10   H12   S    
C19   N1    A    
C28   O6    S    
C25   H9    S    
C15   C36   S    
C27   H16   S    
C24   O2    S    
O15   Zn2   S    
C6    C10   A    
C28   H17   S    
C29   H20   S    
C36   O15   A    
C1    C4    S    
C18   O7    S    
C22   H3    S    
C12   O10   A    
C33   C35   A    
C25   O3    S    
C22   O16   S    
C2    C14   S    
O11   Zn2   S    
C26   H10   S    
C30   O8    S    
C29   O7    S    
C29   H22   S    
C30   H25   S    
C32   C34   A    
