data_mof_unit_48089.cif
_audit_creation_date              2012-12-10T17:42:39-0500
_audit_creation_method            fapswitch 2.2
_symmetry_space_group_name_H-M    P1
_symmetry_Int_Tables_number       1
_space_group_crystal_system       triclinic
_cell_length_a                    10.010765
_cell_length_b                    10.711228
_cell_length_c                    13.334901
_cell_angle_alpha                 92.358049
_cell_angle_beta                  71.733064
_cell_angle_gamma                 88.260051
_cell_volume                      1355.25254232

loop_
_atom_site_label
_atom_site_type_symbol
_atom_type_description
_atom_site_fract_x
_atom_site_fract_y
_atom_site_fract_z
_atom_type_partial_charge
C1    C     C_R   0.499276 0.739949 0.491833 0.930039
C2    C     C_R   0.446436 0.463049 0.975833 0.075723
C3    C     C_R   0.466247 0.515536 0.877225 0.090892
C4    C     C_R   0.549354 0.482085 0.027107 0.070832
C5    C     C_R   0.677577 0.537229 0.973849 0.096248
C6    C     C_R   0.684378 0.601463 0.884225 -0.149458
C7    C     C_R   0.577044 0.596569 0.839691 -0.172214
C8    C     C_R   0.523042 0.459228 0.133038 -0.215532
C9    C     C_R   0.759675 0.510430 0.124139 -0.243789
C10   C     C_R   0.377216 0.484094 0.817396 -0.130186
C11   C     C_R   0.228479 0.907492 0.542428 -0.141833
C12   C     C_R   0.422364 0.500436 0.703028 0.852632
C13   C     C_R   0.110806 0.984880 0.595910 -0.219217
C14   C     C_R   0.125036 0.097318 0.646664 0.061876
C15   C     C_R   0.260362 0.138198 0.632596 -0.125546
C16   C     C_R   0.378287 0.070472 0.561843 0.051088
C17   C     C_R   0.365434 0.946514 0.531206 0.093746
C18   C     C_R   0.490248 0.874083 0.476665 -0.174398
C19   C     C_R   0.606747 0.935204 0.413386 -0.059190
C20   C     C_R   0.612791 0.062896 0.432360 -0.215236
C21   C     C_R   0.502257 0.128537 0.508495 -0.095993
C22   C     C_R   0.834053 0.710853 0.586009 -0.010417
C23   C     C_R   0.500149 0.261214 0.504926 0.866332
C24   C     C_R   0.845931 0.770437 0.678025 -0.378626
C25   C     C_R   0.968756 0.748486 0.705479 -0.058251
C26   C     C_R   0.072273 0.662743 0.641596 -0.140012
C27   C     C_R   0.043106 0.584893 0.564370 0.109306
C28   C     C_R   0.905469 0.594074 0.554205 0.151281
C29   C     C_R   0.950480 0.406960 0.450530 -0.106848
C30   C     C_R   0.094053 0.407548 0.447556 0.011658
C31   C     C_R   0.577519 0.492425 0.297672 0.967706
C32   C     C_R   0.788388 0.540019 0.018953 -0.019070
C33   C     C_R   0.623002 0.483507 0.183107 -0.069695
C34   C     C_R   0.259059 0.413862 0.861651 -0.220494
C35   C     C_R   0.231345 0.369324 0.962874 0.005466
C36   C     C_R   0.327568 0.390594 0.017913 -0.225742
H1    H     H_    0.840328 0.518748 0.162211 0.213638
H2    H     H_    0.210184 0.824855 0.500674 0.181948
H3    H     H_    0.008040 0.957824 0.597293 0.179003
H4    H     H_    0.272458 0.227860 0.668426 0.158718
H5    H     H_    0.699331 0.113307 0.382763 0.186324
H6    H     H_    0.914539 0.331959 0.409844 0.174534
H7    H     H_    0.776192 0.850436 0.714531 0.222720
H8    H     H_    0.172880 0.658237 0.653453 0.234904
H9    H     H_    0.768010 0.662576 0.853433 0.184902
H10   H     H_    0.419439 0.436230 0.180334 0.203703
H11   H     H_    0.192219 0.388545 0.814931 0.253850
H12   H     H_    0.310533 0.345220 0.091301 0.187517
H13   H     H_    0.583030 0.655201 0.774482 0.170627
N1    N     N_R   0.856860 0.501200 0.500990 -0.116418
N2    N     N_R   0.142450 0.501280 0.501020 -0.148927
O1    O     O_R   0.385310 0.683220 0.500000 -0.655226
O2    O     O_R   0.614640 0.683250 0.500010 -0.610301
O3    O     O_R   0.328400 0.499950 0.653610 -0.622974
O4    O     O_R   0.557730 0.499970 0.653620 -0.612054
O5    O     O_R   0.385360 0.316750 0.499990 -0.602904
O6    O     O_R   0.614690 0.316780 0.500000 -0.621535
O7    O     O_R   0.442270 0.500030 0.346380 -0.581426
O8    O     O_R   0.671600 0.500050 0.346390 -0.599903
Zn1   Zn    Zn3+2 0.346880 0.499980 0.499990 0.995069
Zn2   Zn    Zn3+2 0.653120 0.500020 0.500010 1.003291
C37   C     C_2   0.998011 0.175717 0.704646 0.479256
H14   H     H_    0.894455 0.138023 0.720009 0.085931
O9    O     O_2   0.006883 0.283764 0.733867 -0.532289
C38   C     C_2   0.849598 0.798618 0.500282 0.910801
O10   O     O_2   0.904539 0.761752 0.407892 -0.588166
O11   O     O_R   0.814402 0.925952 0.525482 -0.837157
H15   H     H_    0.856244 0.979364 0.463294 0.366656
C39   C     C_2   0.995265 0.823862 0.792818 0.940020
O12   O     O_2   0.902480 0.894654 0.850978 -0.638448
O13   O     O_R   0.126999 0.814760 0.808345 -0.813169
H16   H     H_    0.132419 0.871502 0.869567 0.358369
C40   C     C_2   0.183034 0.297266 0.392921 0.959446
O14   O     O_2   0.299210 0.309126 0.329784 -0.627679
O15   O     O_R   0.129533 0.178111 0.409661 -0.817063
H17   H     H_    0.199028 0.109466 0.367770 0.358843
C41   C     C_2   0.932816 0.575588 0.960345 0.917585
O16   O     O_2   0.981537 0.550873 0.865288 -0.603758
O17   O     O_R   0.015426 0.632938 0.014711 -0.793416
H18   H     H_    0.112823 0.650661 0.966635 0.365704
C42   C     C_2   0.105353 0.295424 0.008962 0.922415
O18   O     O_2   0.080031 0.258168 0.098243 -0.615458
O19   O     O_R   0.014229 0.269024 0.950804 -0.768849
H19   H     H_    0.931641 0.219266 0.991071 0.362837
C43   C     C_2   0.708892 0.874262 0.316593 0.994792
O20   O     O_2   0.818804 0.924019 0.272073 -0.577091
O21   O     O_R   0.676167 0.764308 0.271823 -0.813874
H20   H     H_    0.749972 0.739411 0.201831 0.361606

loop_
_geom_bond_atom_site_label_1
_geom_bond_atom_site_label_2
_ccdc_geom_bond_type
C30   N2    A    
C16   C21   A    
C6    H9    S    
C29   H6    S    
C40   O14   D    
C19   C20   A    
C4    C8    A    
C42   O18   D    
C35   C42   S    
C26   H8    S    
C23   O5    A    
O3    Zn1   S    
C41   O16   D    
C26   C27   A    
C29   C30   A    
C31   O7    A    
C18   C19   A    
C3    C7    A    
C5    C6    A    
O7    Zn1   S    
C15   C16   A    
C14   C37   S    
C34   C35   A    
C31   O8    A    
C39   O13   S    
C1    O2    A    
C37   O9    D    
O1    Zn1   S    
C9    C32   A    
C32   C41   S    
O2    Zn2   S    
C35   C36   A    
C16   C17   A    
C38   O11   S    
C31   C33   S    
C5    C32   A    
C43   O21   S    
C22   C28   A    
C13   C14   A    
C9    C33   A    
C40   O15   S    
C28   N1    A    
C42   O19   S    
C27   N2    A    
C20   H5    S    
C29   N1    A    
C41   O17   S    
O8    Zn2   S    
O11   H15   S    
C24   C25   A    
C7    H13   S    
C30   C40   S    
C25   C26   A    
C43   O20   D    
O5    Zn1   S    
C11   H2    S    
C2    C4    A    
O15   H17   S    
C22   C38   S    
C37   H14   S    
O19   H19   S    
C9    H1    S    
C17   C18   A    
C1    C18   S    
C10   C34   A    
C10   C12   S    
C21   C23   S    
C22   C24   A    
C25   C39   S    
C2    C36   A    
C23   O6    A    
C11   C17   A    
C4    C5    A    
C19   C43   S    
O6    Zn2   S    
C6    C7    A    
N2    Zn1   S    
C2    C3    A    
O13   H16   S    
C3    C10   A    
C11   C13   A    
O4    Zn2   S    
C36   H12   S    
C8    C33   A    
C39   O12   D    
C24   H7    S    
C1    O1    A    
C8    H10   S    
C15   H4    S    
C13   H3    S    
C12   O4    A    
O17   H18   S    
C20   C21   A    
O21   H20   S    
C38   O10   D    
C27   C28   A    
N1    Zn2   S    
C14   C15   A    
C34   H11   S    
C12   O3    A    
