data_mof_unit_67959.cif
_audit_creation_date              2013-03-05T16:43:30-0500
_audit_creation_method            fapswitch 2.2
_symmetry_space_group_name_H-M    P1
_symmetry_Int_Tables_number       1
_space_group_crystal_system       triclinic
_cell_length_a                    10.788
_cell_length_b                    10.963209
_cell_length_c                    10.068703
_cell_angle_alpha                 89.729516
_cell_angle_beta                  89.56985
_cell_angle_gamma                 88.14992
_cell_volume                      1190.17032071

loop_
_atom_site_label
_atom_site_type_symbol
_atom_site_description
_atom_site_fract_x
_atom_site_fract_y
_atom_site_fract_z
_atom_type_partial_charge
O1    O     O_R   0.500020 0.316790 0.614690 -0.575780
O2    O     O_R   0.500000 0.316760 0.385350 -0.592248
C1    C     C_R   0.501000 0.260170 0.499883 0.943800
O3    O     O_R   0.313960 0.499990 0.614650 -0.591144
O4    O     O_R   0.313940 0.499950 0.385310 -0.578273
C2    C     C_R   0.257332 0.502285 0.501010 0.990474
Zn1   Zn    Zn3+2 0.500010 0.500020 0.653130 0.992948
Zn2   Zn    Zn3+2 0.499990 0.499980 0.346870 0.999661
O5    O     O_R   0.500000 0.683240 0.614650 -0.659492
O6    O     O_R   0.499980 0.683210 0.385310 -0.594012
O7    O     O_R   0.686060 0.500050 0.614690 -0.599820
O8    O     O_R   0.686040 0.500010 0.385350 -0.647316
C3    C     C_R   0.497515 0.739169 0.499225 0.928991
C4    C     C_R   0.742376 0.497201 0.498495 1.034506
C5    C     C_3   0.037032 0.475043 0.624987 -0.243698
C6    C     C_3   0.964716 0.387985 0.536571 -0.136157
H1    H     H_    0.062468 0.455599 0.728647 0.248637
C7    C     C_3   0.878293 0.496641 0.493979 -0.349664
C8    C     C_3   0.951200 0.583334 0.581425 -0.164393
C9    C     C_3   0.035887 0.609390 0.461307 0.402479
C10   C     C_3   0.964010 0.523106 0.373189 0.411539
C11   C     C_3   0.049526 0.414880 0.415808 0.305729
C12   C     C_3   0.121125 0.501907 0.503475 -0.138712
C13   C     C_R   0.545376 0.058331 0.607548 -0.046433
C14   C     C_R   0.509532 0.127083 0.496188 -0.246486
C15   C     C_R   0.492567 0.063481 0.375136 0.477088
C16   C     C_R   0.488553 0.935523 0.376347 -0.351741
H2    H     H_    0.469113 0.888418 0.284878 0.188501
C17   C     C_R   0.502336 0.870530 0.495597 -0.098910
C18   C     C_R   0.533110 0.934083 0.607763 0.037246
C19   C     C_3   0.489498 0.926256 0.747126 -0.580595
C20   C     C_3   0.514388 0.062008 0.753748 0.389757
H3    H     H_    0.389310 0.907667 0.749469 0.187684
H4    H     H_    0.547730 0.865584 0.810631 0.204289
H5    H     H_    0.429635 0.118265 0.776394 0.138220
C21   C     C_R   0.412054 0.441431 0.072036 0.071438
N1    N     N_R   0.499140 0.499140 0.142800 -0.081906
C22   C     C_R   0.585013 0.561315 0.070382 -0.100332
H6    H     H_    0.651766 0.614005 0.122848 0.157339
C23   C     C_R   0.584752 0.561845 0.927663 -0.177948
H7    H     H_    0.652204 0.614284 0.874167 0.170993
N2    N     N_R   0.499140 0.499180 0.857150 -0.117297
C24   C     C_R   0.413405 0.438820 0.931067 0.064593
C25   C     C_3   0.274026 0.455018 0.928205 0.279996
C26   C     C_3   0.275124 0.465318 0.080948 -0.399126
H8    H     H_    0.230857 0.389635 0.133387 0.214043
C27   C     C_2   0.918022 0.267563 0.580657 0.891478
O9    O     O_2   0.985717 0.195831 0.641450 -0.667677
O10   O     O_R   0.797958 0.236785 0.547296 -0.856304
H9    H     H_    0.780040 0.149693 0.570646 0.322278
O11   O     O_3   0.613767 0.090064 0.840450 -0.652168
C28   C     C_3   0.732503 0.036224 0.808945 0.131138
H10   H     H_    0.799002 0.111382 0.807144 0.202052
H11   H     H_    0.741496 0.992976 0.710759 0.121535
C29   C     C_3   0.773196 0.940308 0.912834 -0.405079
H12   H     H_    0.730846 0.960062 0.009777 0.234828
H13   H     H_    0.740860 0.848925 0.887565 0.207580
C30   C     C_3   0.913800 0.932866 0.925668 -0.862660
H14   H     H_    0.956654 0.910556 0.827847 0.285870
H15   H     H_    0.940112 0.861222 0.999372 0.278893
H16   H     H_    0.949870 0.021044 0.959499 0.272398
O12   O     O_3   0.219436 0.557437 0.859029 -0.650417
C31   C     C_3   0.284641 0.667844 0.861172 0.136574
H17   H     H_    0.339392 0.674378 0.769474 0.187558
H18   H     H_    0.351059 0.674549 0.943607 0.146193
C32   C     C_3   0.191438 0.776344 0.862132 -0.343598
H19   H     H_    0.182413 0.814760 0.760067 0.185645
H20   H     H_    0.099356 0.744050 0.892331 0.305939
C33   C     C_3   0.226123 0.876917 0.958527 -0.964134
H21   H     H_    0.327820 0.887083 0.965345 0.265768
H22   H     H_    0.190129 0.854755 0.058545 0.294892
H23   H     H_    0.183167 0.965554 0.926644 0.281129
C34   C     C_2   0.219927 0.337596 0.879459 0.887964
O13   O     O_2   0.143987 0.283665 0.946413 -0.698863
O14   O     O_R   0.256725 0.291089 0.755869 -0.789426
H24   H     H_    0.215761 0.211830 0.733996 0.348500
C35   C     C_2   0.236235 0.589475 0.137359 1.067421
O15   O     O_2   0.128290 0.624248 0.131578 -0.598943
O16   O     O_R   0.322708 0.666614 0.192203 -0.781890
H25   H     H_    0.283172 0.743357 0.231604 0.337761
C36   C     C_2   0.880899 0.669806 0.670444 0.900384
O17   O     O_2   0.908077 0.677927 0.786998 -0.693257
O18   O     O_R   0.780578 0.737236 0.618704 -0.840970
H26   H     H_    0.728985 0.779934 0.688999 0.330421
O19   O     O_3   0.090957 0.716695 0.414914 -0.649092
C37   C     C_3   0.017559 0.820938 0.446297 0.081637
H27   H     H_    0.075229 0.899653 0.429286 0.169395
H28   H     H_    0.995887 0.827875 0.553420 0.138039
C38   C     C_3   0.903227 0.834111 0.357189 -0.252901
H29   H     H_    0.933039 0.839216 0.251511 0.232064
H30   H     H_    0.843097 0.754735 0.369353 0.266813
C39   C     C_3   0.826594 0.947870 0.392633 -0.994359
H31   H     H_    0.794178 0.942803 0.496748 0.289926
H32   H     H_    0.744404 0.954138 0.327848 0.271507
H33   H     H_    0.882302 0.030185 0.379479 0.270134
O20   O     O_3   0.923168 0.564743 0.246771 -0.602423
C40   C     C_3   0.900778 0.466510 0.161842 0.073581
H34   H     H_    0.812342 0.425500 0.191315 0.162745
H35   H     H_    0.977718 0.398755 0.162921 0.173360
C41   C     C_3   0.893653 0.509797 0.017557 -0.252657
H36   H     H_    0.833966 0.593436 0.010626 0.237639
H37   H     H_    0.987017 0.533039 0.981008 0.293973
C42   C     C_3   0.845998 0.410659 0.926646 -0.925817
H38   H     H_    0.754086 0.380449 0.960752 0.271713
H39   H     H_    0.911542 0.330766 0.924724 0.299286
H40   H     H_    0.836444 0.446237 0.824033 0.294066
O21   O     O_3   0.125693 0.341623 0.332353 -0.660574
C43   C     C_3   0.077900 0.226873 0.306138 0.044660
H41   H     H_    0.072791 0.218700 0.196537 0.204708
H42   H     H_    0.982656 0.213628 0.343969 0.109950
C44   C     C_3   0.167770 0.128399 0.359145 -0.272376
H43   H     H_    0.257356 0.168771 0.384726 0.271773
H44   H     H_    0.129996 0.089976 0.452401 0.195811
C45   C     C_3   0.191677 0.028830 0.255824 -0.925096
H45   H     H_    0.246965 0.952441 0.300018 0.259649
H46   H     H_    0.243496 0.065894 0.169711 0.310700
H47   H     H_    0.102459 0.993852 0.220060 0.252105
O22   O     O_3   0.466465 0.126318 0.258477 -0.635849
C46   C     C_3   0.567583 0.112767 0.169487 0.112408
H48   H     H_    0.533961 0.140434 0.069728 0.206864
H49   H     H_    0.599872 0.016026 0.161626 0.117113
C47   C     C_3   0.673805 0.195923 0.207070 -0.323275
H50   H     H_    0.644975 0.292127 0.186642 0.239502
H51   H     H_    0.696465 0.186415 0.313793 0.250206
C48   C     C_3   0.791085 0.165554 0.129045 -1.041807
H52   H     H_    0.827643 0.073044 0.153684 0.286162
H53   H     H_    0.863495 0.228513 0.154750 0.247926
H54   H     H_    0.773099 0.175225 0.022051 0.313526

loop_
_geom_bond_atom_site_label_1
_geom_bond_atom_site_label_2
_geom_bond_distance
_ccdc_geom_bond_type
C32   H20   1.105338 S    
C29   H12   1.094212 S    
C31   H18   1.104826 S    
C16   C17   1.399725 A    
C7    C10   1.554200 S    
C34   O13   1.222468 D    
C4    C7    1.466448 S    
C8    C9    1.541424 S    
O14   H24   1.013371 S    
C45   H45   1.106034 S    
C27   O10   1.392902 S    
C35   O15   1.215295 D    
C28   H10   1.109839 S    
Zn1   O7    2.041238 S    
C15   C16   1.404883 A    
C17   C18   1.378093 A    
O18   H26   1.005115 S    
C3    C17   1.443032 S    
C21   N1    1.357664 A    
O4    C2    1.311215 A    
O7    C4    1.314260 A    
C37   H28   1.104374 S    
C32   C33   1.529691 S    
C30   H15   1.109724 S    
C5    C6    1.542280 S    
C43   H41   1.109519 S    
C5    H1    1.099324 S    
C7    C8    1.537443 S    
Zn1   N2    2.054147 S    
C33   H22   1.105378 S    
O5    C3    1.311496 A    
O22   C46   1.411034 S    
C41   H36   1.105535 S    
C36   O18   1.393686 S    
C44   H43   1.108480 S    
C48   H54   1.100075 S    
O21   C43   1.401855 S    
C19   H3    1.106379 S    
C38   H30   1.107835 S    
C28   C29   1.536020 S    
C30   H16   1.109667 S    
C5    C12   1.550413 S    
C32   H19   1.112525 S    
C31   C32   1.532563 S    
C10   C11   1.540602 S    
C9    O19   1.410975 S    
C34   O14   1.396992 S    
C33   H21   1.108998 S    
O3    Zn1   2.047025 S    
C6    C27   1.492575 S    
C39   H32   1.104865 S    
C40   H35   1.095939 S    
C28   H11   1.100720 S    
C40   H34   1.105711 S    
C46   H49   1.108592 S    
O11   C28   1.427104 S    
C20   H5    1.109123 S    
C1    C14   1.459618 S    
C35   O16   1.397664 S    
C13   C14   1.398060 A    
C44   H44   1.107595 S    
C37   H27   1.092153 S    
C25   O12   1.431368 S    
C14   C15   1.422986 A    
O19   C37   1.405036 S    
O6    C3    1.302988 A    
C41   C42   1.528399 S    
C36   O17   1.216124 D    
O16   H25   1.012232 S    
O1    C1    1.314473 A    
C42   H40   1.106994 S    
C33   H23   1.110102 S    
C5    C8    1.545792 S    
C24   C25   1.508847 S    
C13   C20   1.507513 S    
C20   O11   1.429677 S    
N1    C22   1.371294 A    
C19   C20   1.522664 S    
C9    C12   1.531515 S    
C18   C19   1.479610 S    
Zn2   O8    2.047026 S    
O20   C40   1.406407 S    
O12   C31   1.419798 S    
C41   H37   1.106767 S    
C19   H4    1.104972 S    
C21   C26   1.493989 S    
C42   H39   1.107915 S    
C38   C39   1.516387 S    
O3    C2    1.300875 A    
C23   H7    1.080905 S    
O8    C4    1.294988 A    
C29   H13   1.102931 S    
C48   H52   1.104063 S    
Zn2   N1    2.054875 S    
C47   H51   1.107502 S    
C38   H29   1.110956 S    
C42   H38   1.107156 S    
C40   C41   1.527899 S    
C25   C26   1.542758 S    
C46   C47   1.537744 S    
Zn1   O5    2.043903 S    
C6    C11   1.549152 S    
O1    Zn1   2.047525 S    
Zn2   O6    2.047525 S    
O2    Zn2   2.043903 S    
C15   O22   1.385051 S    
C27   O9    1.221284 D    
C37   C38   1.533306 S    
O4    Zn2   2.041238 S    
C45   H46   1.110616 S    
C46   H48   1.108142 S    
C10   O20   1.418675 S    
C43   C44   1.524818 S    
C47   C48   1.513004 S    
O2    C1    1.306862 A    
C30   H14   1.109854 S    
C22   C23   1.437001 A    
C22   H6    1.080183 S    
C2    C12   1.469568 S    
C23   N2    1.372766 A    
C39   H31   1.104316 S    
C43   H42   1.106860 S    
C44   C45   1.526056 S    
C39   H33   1.107162 S    
C25   C34   1.515734 S    
C13   C18   1.372802 A    
C45   H47   1.110604 S    
C31   H17   1.095612 S    
C26   H8    1.101340 S    
C9    C10   1.532606 S    
C6    C7    1.549716 S    
O10   H9    1.006678 S    
N2    C24   1.368137 A    
C29   C30   1.522821 S    
C16   H2    1.083177 S    
C48   H53   1.092317 S    
C11   C12   1.533565 S    
C21   C24   1.419752 A    
C26   C35   1.522569 S    
C47   H50   1.108683 S    
C8    C36   1.492868 S    
C11   O21   1.407004 S    
