data_mof_unit_11709.cif
_audit_creation_date              2012-10-26T21:13:39-0400
_audit_creation_method            fapswitch 2.2
_symmetry_space_group_name_H-M    P1
_symmetry_Int_Tables_number       1
_space_group_crystal_system       triclinic
_cell_length_a                    9.071812
_cell_length_b                    10.861817
_cell_length_c                    9.560406
_cell_angle_alpha                 90.010571
_cell_angle_beta                  90.14481
_cell_angle_gamma                 90.171658
_cell_volume                      942.040370516

loop_
_atom_site_label
_atom_site_type_symbol
_atom_type_description
_atom_site_fract_x
_atom_site_fract_y
_atom_site_fract_z
_atom_type_partial_charge
C1    C     C_R   0.500455 0.262740 0.499844 0.547007
C2    C     C_R   0.566323 0.593364 0.927039 0.178442
C3    C     C_3   0.725633 0.631727 0.926731 -0.052102
C4    C     C_R   0.220724 0.499988 0.499878 0.553245
C5    C     C_3   0.718843 0.638218 0.085762 -0.264599
C6    C     C_R   0.500841 0.737258 0.499857 0.547431
C7    C     C_R   0.779262 0.500119 0.500131 0.559669
C8    C     C_1   0.065551 0.500089 0.499866 -0.058978
C9    C     C_1   0.934412 0.500141 0.500180 -0.052473
C10   C     C_R   0.493401 0.061998 0.620511 0.021960
C11   C     C_R   0.503238 0.130109 0.498210 0.010628
C12   C     C_R   0.516443 0.935407 0.371271 -0.163183
C13   C     C_R   0.516134 0.064595 0.371225 -0.163886
C14   C     C_R   0.503838 0.869895 0.498309 0.009509
C15   C     C_R   0.493909 0.938035 0.620608 0.020715
C16   C     C_3   0.473108 0.929235 0.774839 -0.266420
C17   C     C_3   0.472415 0.071011 0.774652 -0.271708
C18   C     C_R   0.563383 0.594893 0.074166 0.130921
C19   C     C_R   0.423878 0.413728 0.074125 -0.016732
C20   C     C_R   0.423340 0.414058 0.925355 -0.019658
Cu1   Cu    Cu3+1 0.499990 0.499980 0.640670 0.962625
Cu2   Cu    Cu3+1 0.500010 0.500020 0.359330 0.931187
H1    H     H_    0.525234 0.112372 0.272173 0.131554
H2    H     H_    0.364560 0.342393 0.129540 0.115759
H3    H     H_    0.363162 0.343309 0.869573 0.112051
H4    H     H_    0.932830 0.561584 0.901205 0.222552
H5    H     H_    0.804049 0.452315 0.930120 0.235639
H6    H     H_    0.745150 0.721909 0.875018 0.131616
H7    H     H_    0.791991 0.571649 0.140066 0.162729
H8    H     H_    0.725530 0.733933 0.126471 0.100327
H9    H     H_    0.525727 0.887626 0.272241 0.131446
H10   H     H_    0.365007 0.887786 0.803007 0.140598
H11   H     H_    0.570415 0.889184 0.828640 0.124293
H12   H     H_    0.363745 0.111001 0.802511 0.127183
H13   H     H_    0.569273 0.112789 0.828242 0.139277
N1    N     N_R   0.500920 0.500930 0.147930 -0.231756
N2    N     N_R   0.500930 0.500890 0.852020 -0.219805
N3    N     N_3   0.824835 0.534944 0.877231 -0.580064
O1    O     O_R   0.500000 0.319640 0.618810 -0.506646
O2    O     O_R   0.500020 0.319680 0.381230 -0.516040
O3    O     O_R   0.288380 0.499980 0.618770 -0.499020
O4    O     O_R   0.288400 0.500020 0.381190 -0.496581
O5    O     O_R   0.499980 0.680320 0.618770 -0.501634
O6    O     O_R   0.500000 0.680360 0.381190 -0.507533
O7    O     O_R   0.711600 0.499980 0.618810 -0.448218
O8    O     O_R   0.711620 0.500020 0.381230 -0.511328

loop_
_geom_bond_atom_site_label_1
_geom_bond_atom_site_label_2
_ccdc_geom_bond_type
C8    C9    T    
C20   H3    S    
C16   H11   S    
C6    C14   S    
Cu2   N1    S    
C5    H7    S    
C19   C20   A    
Cu1   O1    S    
C4    C8    S    
Cu2   O2    S    
C2    C3    S    
C10   C11   A    
C6    O6    A    
Cu1   Cu2   S    
C20   N2    A    
C11   C13   A    
C2    N2    A    
Cu2   O4    S    
C4    O4    A    
Cu1   O3    S    
C7    O7    A    
C17   H13   S    
C3    H6    S    
Cu2   O8    S    
C12   C14   A    
C19   H2    S    
Cu1   O7    S    
C19   N1    A    
C12   H9    S    
Cu2   O6    S    
C16   H10   S    
C17   H12   S    
C1    O1    A    
H5    N3    S    
C2    C18   A    
C15   C16   S    
C7    O8    A    
Cu1   N2    S    
C12   C13   A    
C13   H1    S    
C5    H8    S    
C4    O3    A    
C7    C9    S    
C6    O5    A    
H4    N3    S    
C5    C18   S    
C10   C17   S    
C1    O2    A    
C10   C15   A    
C14   C15   A    
C18   N1    A    
Cu1   O5    S    
C3    N3    S    
C16   C17   S    
C3    C5    S    
C1    C11   S    
