data_mof_unit_24803.cif
_audit_creation_date              2012-12-10T17:54:34-0500
_audit_creation_method            fapswitch 2.2
_symmetry_space_group_name_H-M    P1
_symmetry_Int_Tables_number       1
_space_group_crystal_system       triclinic
_cell_length_a                    21.657057
_cell_length_b                    21.65705
_cell_length_c                    30.070813
_cell_angle_alpha                 90.016942
_cell_angle_beta                  90.017096
_cell_angle_gamma                 89.997412
_cell_volume                      14104.0510077

loop_
_atom_site_label
_atom_site_type_symbol
_atom_type_description
_atom_site_fract_x
_atom_site_fract_y
_atom_site_fract_z
_atom_type_partial_charge
C1    C     C_R   0.499998 0.119892 0.500010 0.914402
C2    C     C_R   0.999515 0.498489 0.773160 -0.033143
C3    C     C_R   0.957745 0.535742 0.842713 -0.080891
C4    C     C_R   0.537130 0.958322 0.157208 -0.081856
C5    C     C_R   0.041761 0.537057 0.157227 -0.081691
C6    C     C_R   0.462885 0.041722 0.157209 -0.081820
C7    C     C_R   0.958312 0.462876 0.157193 -0.081838
C8    C     C_R   0.037165 0.541651 0.342809 -0.081885
C9    C     C_R   0.541695 0.962889 0.342791 -0.081815
C10   C     C_R   0.962901 0.458276 0.342775 -0.081750
C11   C     C_R   0.458260 0.037095 0.342790 -0.081826
C12   C     C_R   0.040116 0.460366 0.657162 -0.083734
C13   C     C_R   0.499997 0.000012 0.226823 -0.032000
C14   C     C_R   0.541750 0.037069 0.657227 -0.081723
C15   C     C_R   0.964325 0.542311 0.657290 -0.080853
C16   C     C_R   0.458323 0.962864 0.657192 -0.081645
C17   C     C_R   0.500023 0.999972 0.865409 -0.125129
C18   C     C_R   0.999400 0.498660 0.865401 -0.123262
C19   C     C_R   0.500009 0.000022 0.134591 -0.125215
C20   C     C_R   0.000028 0.499977 0.134592 -0.125177
C21   C     C_R   0.000023 0.499972 0.365409 -0.125091
C22   C     C_R   0.499978 0.999991 0.365408 -0.125241
C23   C     C_R   0.001343 0.500600 0.634601 -0.123344
C24   C     C_R   0.000047 0.499953 0.226825 -0.031998
C25   C     C_R   0.500028 0.999977 0.634592 -0.125152
C26   C     C_R   0.462641 0.956855 0.796384 -0.021846
C27   C     C_R   0.956683 0.536287 0.796330 -0.021232
C28   C     C_R   0.537451 0.043053 0.796419 -0.021860
C29   C     C_R   0.038655 0.457031 0.796454 -0.019566
C30   C     C_R   0.462593 0.043116 0.203599 -0.021896
C31   C     C_R   0.956920 0.462581 0.203582 -0.021901
C32   C     C_R   0.537409 0.956917 0.203597 -0.021929
C33   C     C_R   0.043171 0.537328 0.203617 -0.021949
C34   C     C_R   0.962626 0.456868 0.296385 -0.021922
C35   C     C_R   0.000047 0.499953 0.273177 -0.031998
C36   C     C_R   0.456866 0.037387 0.296399 -0.021894
C37   C     C_R   0.037464 0.543042 0.296420 -0.021881
C38   C     C_R   0.543102 0.962612 0.296402 -0.021945
C39   C     C_R   0.963783 0.543375 0.703673 -0.021248
C40   C     C_R   0.456932 0.962567 0.703582 -0.021866
C41   C     C_R   0.042911 0.461280 0.703549 -0.019584
C42   C     C_R   0.543160 0.037341 0.703616 -0.021855
C43   C     C_R   0.499988 0.000003 0.273176 -0.031997
C44   C     C_R   0.001514 0.500485 0.726843 -0.033133
C45   C     C_R   0.500048 0.999952 0.726824 -0.031916
C46   C     C_R   0.424420 0.914948 0.772938 0.300005
C47   C     C_R   0.915323 0.575122 0.772932 0.298386
C48   C     C_R   0.575686 0.084949 0.773007 0.299663
C49   C     C_R   0.119885 0.499993 0.500014 0.918996
C50   C     C_R   0.077059 0.415148 0.773152 0.298845
C51   C     C_R   0.424357 0.085014 0.227030 0.299750
C52   C     C_R   0.914993 0.424378 0.226994 0.299853
C53   C     C_R   0.575636 0.915010 0.227025 0.299858
C54   C     C_R   0.085107 0.575518 0.227064 0.299780
C55   C     C_R   0.924391 0.414973 0.272938 0.299797
C56   C     C_R   0.414950 0.075602 0.272969 0.299747
C57   C     C_R   0.075712 0.584926 0.273008 0.299873
C58   C     C_R   0.585028 0.924406 0.272974 0.299846
C59   C     C_R   0.925014 0.584798 0.727071 0.298367
C60   C     C_R   0.500001 0.880107 0.499993 0.914208
C61   C     C_R   0.415019 0.924350 0.726994 0.299663
C62   C     C_R   0.084732 0.422808 0.726852 0.298839
C63   C     C_R   0.585084 0.075544 0.727063 0.300004
C64   C     C_R   0.539214 0.216714 0.471282 -0.201034
C65   C     C_R   0.216690 0.460986 0.471122 -0.203664
C66   C     C_R   0.460686 0.783253 0.471323 -0.200885
C67   C     C_R   0.783266 0.539158 0.471235 -0.200932
C68   C     C_R   0.539275 0.783281 0.528705 -0.201034
C69   C     C_R   0.216704 0.538867 0.528996 -0.198462
C70   C     C_R   0.460732 0.216748 0.528706 -0.200794
C71   C     C_R   0.880110 0.500001 0.500002 0.913526
C72   C     C_R   0.783292 0.460858 0.528784 -0.202192
C73   C     C_R   0.039140 0.716708 0.971215 -0.202179
C74   C     C_R   0.716719 0.960725 0.971295 -0.201036
C75   C     C_R   0.961135 0.283296 0.971003 -0.198491
C76   C     C_R   0.283251 0.039271 0.971295 -0.200777
C77   C     C_R   0.039013 0.283310 0.028879 -0.203664
C78   C     C_R   0.716747 0.039315 0.028675 -0.200884
C79   C     C_R   0.960842 0.716734 0.028766 -0.200937
C80   C     C_R   0.283286 0.960785 0.028716 -0.201010
C81   C     C_R   0.499989 0.185624 0.500006 -0.181314
C82   C     C_R   0.999999 0.619890 0.999998 0.913514
C83   C     C_R   0.185601 0.499961 0.500037 -0.184301
C84   C     C_R   0.500000 0.814375 0.499997 -0.180862
C85   C     C_R   0.814382 0.500005 0.500007 -0.180304
C86   C     C_R   0.999994 0.685617 0.999994 -0.180290
C87   C     C_R   0.685625 0.999999 0.000002 -0.180856
C88   C     C_R   0.000039 0.314399 0.999962 -0.184292
C89   C     C_R   0.314376 0.000012 0.999993 -0.181314
C90   C     C_R   0.500008 0.999997 0.586749 0.862452
C91   C     C_R   0.000196 0.500054 0.586755 0.866586
C92   C     C_R   0.499992 0.999998 0.413251 0.862422
C93   C     C_R   0.619893 0.999999 0.000006 0.914199
C94   C     C_R   0.000003 0.499992 0.413251 0.862214
C95   C     C_R   0.000008 0.499997 0.086749 0.862243
C96   C     C_R   0.500001 0.000008 0.086749 0.862410
C97   C     C_R   0.999946 0.499805 0.913246 0.866536
C98   C     C_R   0.500003 0.999992 0.913251 0.862447
C99   C     C_R   0.539687 0.280531 0.470473 0.419069
C100  C     C_R   0.280508 0.460478 0.470337 0.419424
C101  C     C_R   0.460166 0.719434 0.470560 0.418995
C102  C     C_R   0.719448 0.539653 0.470443 0.419382
C103  C     C_R   0.539740 0.719462 0.529519 0.419482
C104  C     C_R   0.000007 0.380115 0.999985 0.918982
C105  C     C_R   0.280521 0.539375 0.529776 0.414176
C106  C     C_R   0.460221 0.280568 0.529481 0.422025
C107  C     C_R   0.719474 0.460374 0.529582 0.420059
C108  C     C_R   0.039624 0.780526 0.970417 0.420069
C109  C     C_R   0.780538 0.960259 0.970481 0.419480
C110  C     C_R   0.960626 0.219480 0.970222 0.414153
C111  C     C_R   0.219431 0.039781 0.970520 0.422024
C112  C     C_R   0.039521 0.219492 0.029664 0.419423
C113  C     C_R   0.780566 0.039835 0.029440 0.419007
C114  C     C_R   0.960348 0.780552 0.029557 0.419380
C115  C     C_R   0.380108 0.000002 0.999990 0.914402
C116  C     C_R   0.219469 0.960311 0.029525 0.419077
C117  C     C_R   0.499960 0.313046 0.499979 -0.284150
C118  C     C_R   0.313024 0.499966 0.500026 -0.285529
C119  C     C_R   0.499963 0.686952 0.500032 -0.283911
C120  C     C_R   0.686960 0.500015 0.500014 -0.283752
C121  C     C_R   0.999985 0.813040 0.999986 -0.283744
C122  C     C_R   0.813047 0.000036 0.999968 -0.283907
C123  C     C_R   0.000034 0.186976 0.999974 -0.285523
C124  C     C_R   0.186953 0.000040 0.000021 -0.284150
C125  C     C_R   0.379585 0.499999 0.500001 0.996684
C126  C     C_R   0.500048 0.999952 0.773177 -0.031917
C127  C     C_R   0.499986 0.620406 0.500009 0.995458
C128  C     C_R   0.620409 0.500005 0.500005 0.995746
C129  C     C_R   0.499984 0.379593 0.499993 0.996291
C130  C     C_R   0.879594 0.000014 0.999991 0.995435
C131  C     C_R   0.000001 0.120415 0.999999 0.996675
C132  C     C_R   0.120407 0.000016 0.000007 0.996276
C133  C     C_R   0.999995 0.879591 0.999995 0.995724
C134  C     C_R   0.537153 0.041662 0.842808 -0.081654
C135  C     C_R   0.039574 0.459826 0.842841 -0.083769
C136  C     C_R   0.462914 0.958264 0.842774 -0.081735
H1    H     H_    0.568671 0.190700 0.448986 0.215406
H2    H     H_    0.690708 0.931228 0.949013 0.215366
H3    H     H_    0.931938 0.309302 0.948523 0.219458
H4    H     H_    0.309236 0.068735 0.948998 0.215741
H5    H     H_    0.068256 0.309327 0.051330 0.215793
H6    H     H_    0.690763 0.068826 0.050953 0.215362
H7    H     H_    0.931458 0.690740 0.051112 0.215255
H8    H     H_    0.309299 0.931326 0.051011 0.215404
H9    H     H_    0.567610 0.070775 0.862098 0.207536
H10   H     H_    0.072030 0.432871 0.862072 0.208621
H11   H     H_    0.432448 0.929157 0.862036 0.207593
H12   H     H_    0.190674 0.431742 0.448671 0.215792
H13   H     H_    0.929099 0.566738 0.861918 0.206187
H14   H     H_    0.567594 0.929212 0.137933 0.207595
H15   H     H_    0.070890 0.567503 0.137966 0.207650
H16   H     H_    0.432424 0.070834 0.137932 0.207639
H17   H     H_    0.929178 0.432438 0.137904 0.207642
H18   H     H_    0.067631 0.570754 0.362099 0.207563
H19   H     H_    0.570820 0.932438 0.362065 0.207652
H20   H     H_    0.932426 0.429179 0.362037 0.207549
H21   H     H_    0.429135 0.067543 0.362066 0.207634
H22   H     H_    0.067022 0.427869 0.637933 0.208688
H23   H     H_    0.431175 0.809237 0.449045 0.215375
H24   H     H_    0.570869 0.067524 0.637965 0.207619
H25   H     H_    0.933371 0.571004 0.638086 0.206250
H26   H     H_    0.429199 0.932417 0.637903 0.207554
H27   H     H_    0.425002 0.788617 0.853826 0.398078
H28   H     H_    0.788559 0.574478 0.853502 0.398068
H29   H     H_    0.575148 0.211277 0.853950 0.398506
H30   H     H_    0.079638 0.291776 0.856495 0.398761
H31   H     H_    0.424941 0.211400 0.146184 0.398368
H32   H     H_    0.788581 0.425057 0.146110 0.398212
H33   H     H_    0.575091 0.788687 0.146077 0.398144
H34   H     H_    0.809259 0.568543 0.448889 0.215255
H35   H     H_    0.211490 0.574815 0.146213 0.398290
H36   H     H_    0.924892 0.288722 0.353882 0.398217
H37   H     H_    0.288597 0.074971 0.353839 0.398344
H38   H     H_    0.075212 0.711256 0.353950 0.398151
H39   H     H_    0.711431 0.925056 0.353866 0.398198
H40   H     H_    0.925882 0.711594 0.646523 0.398087
H41   H     H_    0.288677 0.924949 0.646060 0.398512
H42   H     H_    0.208129 0.420041 0.643529 0.398769
H43   H     H_    0.711452 0.074889 0.646201 0.398097
H44   H     H_    0.667917 0.287908 0.391161 0.412824
H45   H     H_    0.568771 0.809291 0.550987 0.215370
H46   H     H_    0.287854 0.332667 0.390619 0.412955
H47   H     H_    0.331472 0.711921 0.391591 0.412866
H48   H     H_    0.712014 0.667733 0.391004 0.412830
H49   H     H_    0.668053 0.712053 0.608816 0.412794
H50   H     H_    0.287829 0.666776 0.609836 0.413306
H51   H     H_    0.331700 0.288121 0.608550 0.408462
H52   H     H_    0.712084 0.332253 0.608987 0.412603
H53   H     H_    0.167607 0.787862 0.890901 0.412621
H54   H     H_    0.787943 0.831957 0.891176 0.412797
H55   H     H_    0.833259 0.212184 0.890135 0.413316
H56   H     H_    0.190698 0.568065 0.551474 0.219448
H57   H     H_    0.211860 0.168349 0.891488 0.408471
H58   H     H_    0.167335 0.212144 0.109379 0.412958
H59   H     H_    0.788042 0.168436 0.108484 0.412871
H60   H     H_    0.832278 0.787982 0.109005 0.412826
H61   H     H_    0.212095 0.832083 0.108839 0.412826
H62   H     H_    0.431269 0.190764 0.551003 0.215738
H63   H     H_    0.809306 0.431468 0.551126 0.214120
H64   H     H_    0.068529 0.690694 0.948873 0.214100
O1    O     O_R   0.448270 0.091530 0.499990 -0.608142
O2    O     O_R   0.591530 0.051730 0.999990 -0.608396
O3    O     O_2   0.340847 0.446491 0.393313 -0.222826
O4    O     O_2   0.368355 0.375109 0.453357 -0.284264
O5    O     O_3   0.264632 0.358062 0.412322 -0.524642
O6    O     O_2   0.445313 0.658881 0.393680 -0.223095
O7    O     O_2   0.374598 0.631595 0.454171 -0.285577
O8    O     O_3   0.357128 0.735200 0.413110 -0.524859
O9    O     O_2   0.659080 0.553877 0.393437 -0.223188
O10   O     O_2   0.631549 0.625039 0.453625 -0.284762
O11   O     O_3   0.735253 0.642281 0.412662 -0.525031
O12   O     O_2   0.554183 0.659122 0.606494 -0.223074
O13   O     O_R   0.051730 0.408470 0.999990 -0.607760
O14   O     O_2   0.625168 0.631571 0.546222 -0.285102
O15   O     O_3   0.642534 0.735288 0.587195 -0.525011
O16   O     O_2   0.340886 0.553070 0.606834 -0.224524
O17   O     O_2   0.368350 0.624702 0.546938 -0.283758
O18   O     O_3   0.264642 0.641562 0.587996 -0.520105
O19   O     O_2   0.445636 0.341044 0.606414 -0.224407
O20   O     O_2   0.374740 0.368453 0.546034 -0.291237
O21   O     O_3   0.357342 0.264816 0.587050 -0.524666
O22   O     O_2   0.659136 0.446143 0.606574 -0.223266
O23   O     O_2   0.631606 0.374975 0.546378 -0.284609
O24   O     O_R   0.408470 0.948270 0.999990 -0.608512
O25   O     O_3   0.735327 0.357752 0.587371 -0.527021
O26   O     O_2   0.053843 0.840858 0.893423 -0.223410
O27   O     O_2   0.125022 0.868393 0.953610 -0.284412
O28   O     O_3   0.142240 0.764671 0.912619 -0.527043
O29   O     O_2   0.840878 0.945816 0.893506 -0.223058
O30   O     O_2   0.868429 0.874831 0.953778 -0.285081
O31   O     O_3   0.764711 0.857465 0.912805 -0.525026
O32   O     O_2   0.946935 0.159114 0.893165 -0.224570
O33   O     O_2   0.875299 0.131652 0.953059 -0.283703
O34   O     O_3   0.858443 0.235359 0.911999 -0.520076
O35   O     O_R   0.948270 0.408470 0.000010 -0.607744
O36   O     O_2   0.158952 0.054371 0.893588 -0.224320
O37   O     O_2   0.131545 0.125262 0.953971 -0.291308
O38   O     O_3   0.235183 0.142662 0.912956 -0.524629
O39   O     O_2   0.053505 0.159154 0.106689 -0.222826
O40   O     O_2   0.124889 0.131644 0.046646 -0.284262
O41   O     O_3   0.141935 0.235368 0.087681 -0.524650
O42   O     O_2   0.841117 0.054684 0.106319 -0.223234
O43   O     O_2   0.868405 0.125403 0.045831 -0.285445
O44   O     O_3   0.764799 0.142871 0.086890 -0.524857
O45   O     O_2   0.946126 0.840920 0.106564 -0.223214
O46   O     O_R   0.591530 0.948270 0.000010 -0.608509
O47   O     O_2   0.874962 0.868450 0.046376 -0.284745
O48   O     O_3   0.857722 0.764746 0.087340 -0.525035
O49   O     O_2   0.159124 0.945922 0.106498 -0.223115
O50   O     O_2   0.131601 0.874880 0.046225 -0.285022
O51   O     O_3   0.235318 0.857570 0.087205 -0.524994
O52   O     O_R   0.051730 0.591530 0.000010 -0.608935
O53   O     O_R   0.408470 0.051730 0.000010 -0.608144
O54   O     O_R   0.448270 0.999890 0.566070 -0.603958
O55   O     O_R   0.999890 0.551730 0.566070 -0.601210
O56   O     O_R   0.551730 0.000110 0.566070 -0.604368
O57   O     O_R   0.091530 0.551730 0.499990 -0.607771
O58   O     O_R   0.000110 0.448270 0.566070 -0.613469
O59   O     O_R   0.448270 0.000110 0.433930 -0.604229
O60   O     O_R   0.999890 0.448270 0.433930 -0.603927
O61   O     O_R   0.551730 0.999890 0.433930 -0.604260
O62   O     O_R   0.000110 0.551730 0.433930 -0.604531
O63   O     O_R   0.948270 0.499890 0.066070 -0.604527
O64   O     O_R   0.499890 0.051730 0.066070 -0.604211
O65   O     O_R   0.051730 0.500110 0.066070 -0.603914
O66   O     O_R   0.500110 0.948270 0.066070 -0.604271
O67   O     O_R   0.948270 0.500110 0.933930 -0.601186
O68   O     O_R   0.551730 0.908470 0.499990 -0.608495
O69   O     O_R   0.499890 0.948270 0.933930 -0.604369
O70   O     O_R   0.051730 0.499890 0.933930 -0.613464
O71   O     O_R   0.500110 0.051730 0.933930 -0.603953
O72   O     O_R   0.408290 0.499920 0.462700 -0.560701
O73   O     O_R   0.499920 0.591710 0.462700 -0.561181
O74   O     O_R   0.591710 0.500080 0.462700 -0.561107
O75   O     O_R   0.500080 0.408290 0.462700 -0.561277
O76   O     O_R   0.408290 0.500080 0.537300 -0.562162
O77   O     O_R   0.499920 0.408290 0.537300 -0.560858
O78   O     O_R   0.591710 0.499920 0.537300 -0.561065
O79   O     O_R   0.908470 0.448270 0.499990 -0.608957
O80   O     O_R   0.500080 0.591710 0.537300 -0.561135
O81   O     O_R   0.908290 0.999920 0.962700 -0.561134
O82   O     O_R   0.999920 0.091710 0.962700 -0.562161
O83   O     O_R   0.091710 0.000080 0.962700 -0.560862
O84   O     O_R   0.000080 0.908290 0.962700 -0.561057
O85   O     O_R   0.908290 0.000080 0.037300 -0.561177
O86   O     O_R   0.999920 0.908290 0.037300 -0.561107
O87   O     O_R   0.091710 0.999920 0.037300 -0.561278
O88   O     O_R   0.000080 0.091710 0.037300 -0.560704
O89   O     O_2   0.336377 0.864433 0.824279 -0.250642
O90   O     O_R   0.448270 0.908470 0.500010 -0.608402
O91   O     O_2   0.381733 0.796947 0.767377 -0.164864
O92   O     O_3   0.446936 0.821171 0.836933 -0.546947
O93   O     O_2   0.864631 0.663049 0.824347 -0.251253
O94   O     O_2   0.797380 0.618009 0.767156 -0.164457
O95   O     O_3   0.821119 0.552523 0.836619 -0.544654
O96   O     O_2   0.663737 0.135428 0.824419 -0.250286
O97   O     O_2   0.618434 0.202930 0.767513 -0.164336
O98   O     O_3   0.553195 0.178749 0.837021 -0.546002
O99   O     O_2   0.119556 0.296920 0.769049 -0.163355
O100  O     O_2   0.167012 0.366451 0.823747 -0.246733
O101  O     O_R   0.091530 0.448270 0.500010 -0.607745
O102  O     O_3   0.057024 0.323639 0.839368 -0.552503
O103  O     O_2   0.336315 0.135522 0.175643 -0.250287
O104  O     O_2   0.381632 0.203005 0.232581 -0.164652
O105  O     O_3   0.446864 0.178813 0.163060 -0.546836
O106  O     O_2   0.864437 0.336368 0.175585 -0.250373
O107  O     O_2   0.796977 0.381733 0.232490 -0.164708
O108  O     O_3   0.821211 0.446946 0.162979 -0.547018
O109  O     O_2   0.663692 0.864518 0.175658 -0.250549
O110  O     O_2   0.618363 0.797018 0.232532 -0.164670
O111  O     O_3   0.553145 0.821229 0.162990 -0.546931
O112  O     O_R   0.551730 0.091530 0.500010 -0.608518
O113  O     O_2   0.135693 0.663522 0.175723 -0.250445
O114  O     O_2   0.203141 0.618111 0.232627 -0.164606
O115  O     O_3   0.178868 0.552929 0.163069 -0.546710
O116  O     O_2   0.836329 0.364497 0.324282 -0.250588
O117  O     O_2   0.881655 0.296988 0.267381 -0.164465
O118  O     O_3   0.946871 0.321188 0.336935 -0.546653
O119  O     O_2   0.364400 0.163620 0.324356 -0.250323
O120  O     O_2   0.296938 0.118270 0.267419 -0.164599
O121  O     O_3   0.321163 0.053049 0.336939 -0.546803
O122  O     O_2   0.163778 0.635376 0.324420 -0.250478
O123  O     O_R   0.908470 0.551730 0.500010 -0.608630
O124  O     O_2   0.118499 0.702893 0.267514 -0.164610
O125  O     O_3   0.053250 0.678733 0.337021 -0.546974
O126  O     O_2   0.635574 0.836378 0.324339 -0.250454
O127  O     O_2   0.703044 0.881751 0.267464 -0.164775
O128  O     O_3   0.678799 0.946949 0.337010 -0.546989
O129  O     O_2   0.837169 0.635638 0.675658 -0.251218
O130  O     O_2   0.882327 0.702812 0.732848 -0.164478
O131  O     O_3   0.947768 0.678963 0.663382 -0.544665
O132  O     O_2   0.364500 0.836320 0.675584 -0.250287
O133  O     O_2   0.297019 0.881656 0.732488 -0.164352
O134  O     O_R   0.948270 0.591530 0.999990 -0.608642
O135  O     O_3   0.321229 0.946881 0.662979 -0.546003
O136  O     O_2   0.202889 0.380117 0.730957 -0.163433
O137  O     O_2   0.133284 0.332777 0.676258 -0.246665
O138  O     O_3   0.176277 0.442695 0.660639 -0.552529
O139  O     O_2   0.635641 0.163565 0.675723 -0.250636
O140  O     O_2   0.703104 0.118175 0.732626 -0.164892
O141  O     O_3   0.678852 0.052986 0.663068 -0.546964
O142  O     O_2   0.554069 0.340874 0.393499 -0.223100
O143  O     O_2   0.625116 0.368400 0.453769 -0.285019
O144  O     O_3   0.642423 0.264682 0.412790 -0.525019
S1    S     S_3+6 0.394794 0.847753 0.800103 0.099648
S2    S     S_3+6 0.347740 0.105208 0.300143 0.100009
S3    S     S_3+6 0.105384 0.652102 0.300214 0.099861
S4    S     S_3+6 0.652234 0.894799 0.300169 0.099813
S5    S     S_3+6 0.895500 0.652171 0.700018 0.100297
S6    S     S_3+6 0.347820 0.894729 0.699788 0.100394
S7    S     S_3+6 0.150917 0.392052 0.698972 0.100401
S8    S     S_3+6 0.652293 0.105139 0.699898 0.099637
S9    S     S_3+6 0.590832 0.316271 0.432019 0.090152
S10   S     S_3+6 0.316236 0.409531 0.431715 0.090313
S11   S     S_3+6 0.408790 0.683628 0.432265 0.089974
S12   S     S_3+6 0.848000 0.604749 0.799985 0.100294
S13   S     S_3+6 0.683682 0.590719 0.431927 0.090195
S14   S     S_3+6 0.590916 0.683712 0.567971 0.090137
S15   S     S_3+6 0.316252 0.590183 0.568503 0.092083
S16   S     S_3+6 0.408976 0.316368 0.567858 0.085434
S17   S     S_3+6 0.683736 0.409304 0.568091 0.089676
S18   S     S_3+6 0.090689 0.816261 0.931904 0.089700
S19   S     S_3+6 0.816288 0.909084 0.932029 0.090152
S20   S     S_3+6 0.909820 0.183749 0.931495 0.092099
S21   S     S_3+6 0.183630 0.091027 0.932145 0.085456
S22   S     S_3+6 0.090467 0.183764 0.068286 0.090310
S23   S     S_3+6 0.605336 0.152135 0.800213 0.100399
S24   S     S_3+6 0.816371 0.091210 0.067735 0.089973
S25   S     S_3+6 0.909283 0.816318 0.068074 0.090190
S26   S     S_3+6 0.183729 0.909162 0.067977 0.090160
S27   S     S_3+6 0.107708 0.348914 0.801033 0.100421
S28   S     S_3+6 0.394719 0.152209 0.199856 0.099989
S29   S     S_3+6 0.847782 0.394784 0.199789 0.099848
S30   S     S_3+6 0.605283 0.847822 0.199829 0.099837
S31   S     S_3+6 0.152326 0.605091 0.199899 0.099949
S32   S     S_3+6 0.894738 0.347791 0.300105 0.099971
Zn1   Zn    Zn3+2 0.430930 0.000000 0.500000 1.072159
Zn2   Zn    Zn3+2 0.500000 0.500000 0.549800 1.280607
Zn3   Zn    Zn3+2 1.000000 0.000000 0.950200 1.280628
Zn4   Zn    Zn3+2 0.000000 0.000000 0.049800 1.281535
Zn5   Zn    Zn3+2 1.000000 0.569070 0.500000 1.073137
Zn6   Zn    Zn3+2 0.569070 0.000000 0.500000 1.071071
Zn7   Zn    Zn3+2 1.000000 0.430930 0.500000 1.069718
Zn8   Zn    Zn3+2 0.930930 0.500000 0.000000 1.073173
Zn9   Zn    Zn3+2 0.500000 0.069070 0.000000 1.072172
Zn10  Zn    Zn3+2 0.069070 0.500000 0.000000 1.069748
Zn11  Zn    Zn3+2 0.500000 0.930930 0.000000 1.071041
Zn12  Zn    Zn3+2 0.500000 0.500000 0.450200 1.281539

loop_
_geom_bond_atom_site_label_1
_geom_bond_atom_site_label_2
_ccdc_geom_bond_type
C102  S13   S    
C30   C51   A    
O88   Zn4   S    
C66   C101  A    
C31   C52   A    
H59   O44   S    
O134  Zn8   S    
O65   Zn10  S    
C12   C23   A    
C2    C29   A    
O10   S13   D    
C97   O70   A    
C34   C35   A    
C26   C126  A    
O6    S11   D    
O31   S19   S    
O55   Zn5   S    
H51   O21   S    
C104  O35   A    
C113  C122  A    
C80   C116  A    
C77   C88   A    
O29   S19   D    
C127  O80   A    
C17   C98   S    
O113  S31   D    
C123  C131  S    
H43   O141  S    
C95   O63   A    
O9    S13   D    
H60   O48   S    
O73   Zn12  S    
C99   S9    S    
O96   S23   D    
C10   C21   A    
C96   O66   A    
C3    H13   S    
O4    S10   D    
C115  O24   A    
O36   S21   D    
C69   C105  A    
C73   C108  A    
O49   S26   D    
C16   H26   S    
C42   C45   A    
C77   C112  A    
C110  C123  A    
C115  O53   A    
C135  H10   S    
O80   Zn2   S    
O17   S15   D    
C15   C39   A    
C4    C32   A    
C16   C40   A    
C29   C135  A    
O86   Zn4   S    
O40   S22   D    
O110  S30   D    
C105  C118  A    
C78   C113  A    
O15   S14   S    
C107  C120  A    
H44   O144  S    
C11   H21   S    
O42   S24   D    
C109  C122  A    
O2    Zn9   S    
C16   C25   A    
C90   O56   A    
O115  S31   S    
C111  C124  A    
C15   H25   S    
O3    S10   D    
O126  S4    D    
C53   C58   A    
O122  S3    D    
O37   S21   D    
C98   O71   A    
C4    H14   S    
C71   O123  A    
C5    H15   S    
O123  Zn5   S    
O30   S19   D    
C91   O58   A    
O95   S12   S    
C111  S21   S    
C91   O55   A    
C29   C50   A    
O119  S2    D    
C94   O62   A    
O116  S32   D    
O1    Zn1   S    
C55   S32   S    
O8    S11   S    
H37   O121  S    
O72   Zn12  S    
C77   H5    S    
O39   S22   D    
C26   C136  A    
C47   C59   A    
O14   S14   D    
C38   C43   A    
C132  O83   A    
C133  O86   A    
H28   O95   S    
C37   C57   A    
O143  S9    D    
O45   S25   D    
C78   C87   A    
C89   C115  S    
C13   C32   A    
O28   S18   S    
O26   S18   D    
C68   C103  A    
O129  S5    D    
C103  S14   S    
C72   C85   A    
O38   S21   S    
C5    C20   A    
H55   O34   S    
C6    C19   A    
H50   O18   S    
C25   C90   S    
O34   S20   S    
C82   O52   A    
O57   Zn5   S    
O137  S7    D    
H30   O102  S    
O68   Zn6   S    
H61   O51   S    
O124  S3    D    
C124  C132  S    
O140  S8    D    
C57   S3    S    
O99   S27   D    
C49   O57   A    
C97   O67   A    
C64   C99   A    
C79   H7    S    
O100  S27   D    
C2    C44   A    
C80   H8    S    
C5    C33   A    
O61   Zn6   S    
O22   S17   D    
O112  Zn6   S    
C74   C87   A    
O12   S14   D    
O144  S9    S    
C76   C89   A    
C90   O54   A    
C96   O64   A    
O130  S5    D    
C127  O73   A    
C128  O78   A    
C66   H23   S    
C88   C104  S    
O78   Zn2   S    
C98   O69   A    
O103  S28   D    
O94   S12   D    
O83   Zn3   S    
C59   S5    S    
C113  S24   S    
C71   O79   A    
C40   C61   A    
O98   S23   S    
C99   C117  A    
H35   O115  S    
C45   C126  A    
O41   S22   S    
C18   C97   S    
C1    O112  A    
O90   Zn1   S    
O13   Zn10  S    
O64   Zn9   S    
C92   O59   A    
H48   O11   S    
O70   Zn10  S    
C27   C47   A    
C33   C54   A    
C28   C48   A    
C75   C110  A    
O60   Zn7   S    
C51   S28   S    
O62   Zn5   S    
C39   C44   A    
C3    C27   A    
O67   Zn8   S    
C75   H3    S    
C72   H63   S    
O101  Zn7   S    
C76   C111  A    
C87   C93   S    
C9    C38   A    
H31   O105  S    
C63   S8    S    
C79   C86   A    
H57   O38   S    
O32   S20   D    
C9    H19   S    
O27   S18   D    
C22   C92   S    
C61   S6    S    
O46   Zn11  S    
O11   S13   S    
C12   H22   S    
C47   S12   S    
C54   C57   A    
C119  C127  S    
O92   S1    S    
C60   O90   A    
H58   O41   S    
O106  S29   D    
O74   Zn12  S    
C108  C121  A    
C1    O1    A    
H39   O128  S    
C107  S17   S    
O84   Zn3   S    
C74   H2    S    
O102  S27   S    
O54   Zn1   S    
C28   C134  A    
C104  O13   A    
C130  O81   A    
C78   H6    S    
C131  O88   A    
O141  S8    S    
C116  S26   S    
C95   O65   A    
C132  O87   A    
C1    C81   S    
C73   H64   S    
H54   O31   S    
C80   C89   A    
O66   Zn11  S    
O132  S6    D    
C38   C58   A    
C114  C121  A    
O127  S4    D    
C2    C27   A    
C118  C125  S    
O76   Zn2   S    
C92   O61   A    
C52   C55   A    
O104  S28   D    
C6    H16   S    
C34   C55   A    
C41   C62   A    
C60   O68   A    
O24   Zn11  S    
C105  S15   S    
C69   H56   S    
C28   C126  A    
C64   H1    S    
C67   H34   S    
C40   C45   A    
C68   H45   S    
C67   C85   A    
C125  O72   A    
C68   C84   A    
C48   S23   S    
O135  S6    S    
C70   C106  A    
H33   O111  S    
H38   O125  S    
C46   C61   A    
C82   C86   S    
H49   O15   S    
O85   Zn4   S    
C12   C41   A    
C36   C56   A    
C13   C30   A    
C39   C59   A    
C65   H12   S    
C93   O2    A    
C128  O74   A    
O71   Zn9   S    
C112  C123  A    
O91   S1    D    
C106  C117  A    
O43   S24   D    
O33   S20   D    
C129  O75   A    
H53   O28   S    
C100  C118  A    
C8    C37   A    
O53   Zn9   S    
C13   C43   A    
C102  C120  A    
O131  S5    S    
C134  H9    S    
O138  S7    S    
C116  C124  A    
H36   O118  S    
H41   O135  S    
C65   C100  A    
C48   C63   A    
C120  C128  S    
C133  O84   A    
O23   S17   D    
C24   C33   A    
C52   S29   S    
C49   C83   S    
C24   C31   A    
O5    S10   S    
C62   S7    S    
O139  S8    D    
C49   O101  A    
O114  S31   D    
C56   S2    S    
C14   C25   A    
O18   S15   S    
C93   O46   A    
C26   C46   A    
O16   S15   D    
H42   O138  S    
C7    C20   A    
O97   S23   D    
C17   C134  A    
O20   S16   D    
C53   S30   S    
C36   C43   A    
C42   C63   A    
O93   S12   D    
O59   Zn1   S    
C125  O76   A    
O120  S2    D    
C101  S11   S    
C74   C109  A    
O50   S26   D    
O47   S25   D    
C11   C36   A    
C35   C37   A    
C106  S16   S    
O87   Zn4   S    
O128  S4    S    
C108  S18   S    
C9    C22   A    
C65   C83   A    
C21   C94   S    
O133  S6    D    
C114  S25   S    
C3    C18   A    
C51   C56   A    
O77   Zn2   S    
C70   C81   A    
O142  S9    D    
O107  S29   D    
C71   C85   S    
C4    C19   A    
O63   Zn8   S    
C129  O77   A    
C8    H18   S    
O44   S24   S    
O118  S32   S    
O19   S16   D    
C14   C42   A    
O108  S29   S    
C15   C23   A    
O52   Zn10  S    
O117  S32   D    
H47   O8    S    
C130  O85   A    
O7    S11   D    
O35   Zn8   S    
O48   S25   S    
C76   H4    S    
O121  S2    S    
C64   C81   A    
C94   O60   A    
C24   C35   A    
C7    C31   A    
C101  C119  A    
C82   O134  A    
H52   O25   S    
C10   H20   S    
H29   O98   S    
O109  S30   D    
C32   C53   A    
C58   S4    S    
O51   S26   S    
C14   H24   S    
O136  S7    D    
C69   C83   A    
O89   S1    D    
C7    H17   S    
C72   C107  A    
O25   S17   S    
C17   C136  A    
C8    C21   A    
O69   Zn11  S    
C18   C135  A    
C10   C34   A    
C46   S1    S    
O81   Zn3   S    
H40   O131  S    
O21   S16   S    
C20   C95   S    
C50   C62   A    
C23   C91   S    
C117  C129  S    
O79   Zn7   S    
C50   S27   S    
O75   Zn12  S    
C6    C30   A    
H32   O108  S    
C103  C119  A    
H27   O92   S    
C110  S20   S    
O56   Zn6   S    
C11   C22   A    
H46   O5    S    
C54   S31   S    
O58   Zn7   S    
C100  S10   S    
C60   C84   S    
C109  S19   S    
C41   C44   A    
C112  S22   S    
C73   C86   A    
C136  H11   S    
C66   C84   A    
C75   C88   A    
O105  S28   S    
C70   H62   S    
O82   Zn3   S    
C79   C114  A    
C121  C133  S    
O125  S3    S    
C122  C130  S    
C131  O82   A    
C19   C96   S    
C67   C102  A    
O111  S30   S    
