data_mof_unit_27039.cif
_audit_creation_date              2012-12-10T19:45:53-0500
_audit_creation_method            fapswitch 2.2
_symmetry_space_group_name_H-M    P1
_symmetry_Int_Tables_number       1
_space_group_crystal_system       triclinic
_cell_length_a                    10.889536
_cell_length_b                    14.950239
_cell_length_c                    14.172313
_cell_angle_alpha                 90.351275
_cell_angle_beta                  104.229601
_cell_angle_gamma                 89.748386
_cell_volume                      2236.42663567

loop_
_atom_site_label
_atom_site_type_symbol
_atom_type_description
_atom_site_fract_x
_atom_site_fract_y
_atom_site_fract_z
_atom_type_partial_charge
C1    C     C_R   0.498687 0.327812 0.499395 0.897897
C2    C     C_R   0.499784 0.672198 0.500214 0.898690
C3    C     C_R   0.515888 0.047931 0.493956 0.058009
C4    C     C_R   0.512232 0.952007 0.493346 0.035462
C5    C     C_R   0.402954 0.460117 0.086264 -0.293754
C6    C     C_R   0.528858 0.576262 0.901426 -0.292416
C7    C     C_R   0.404061 0.460306 0.185618 0.000245
C8    C     C_R   0.530065 0.575425 0.802557 -0.028436
C9    C     C_R   0.596574 0.540319 0.223679 -0.081062
C10   C     C_R   0.470741 0.423357 0.788717 -0.074596
C11   C     C_R   0.602976 0.538658 0.125292 0.130271
C12   C     C_R   0.473196 0.419583 0.888760 0.126210
C13   C     C_R   0.503107 0.498813 0.054020 0.112557
C14   C     C_R   0.501375 0.497920 0.946938 0.110584
C15   C     C_R   0.259348 0.502172 0.459509 0.931136
C16   C     C_R   0.740221 0.497954 0.540683 0.926610
C17   C     C_2   0.123951 0.493859 0.437352 -0.448334
C18   C     C_2   0.874224 0.509373 0.564482 -0.430759
C19   C     C_2   0.063007 0.517859 0.505182 0.225291
C20   C     C_2   0.941376 0.475849 0.505157 0.217361
C21   C     C_R   0.583503 0.094575 0.576855 0.254759
C22   C     C_R   0.595762 0.901888 0.452929 0.234193
C23   C     C_R   0.574390 0.187092 0.577797 -0.287704
C24   C     C_R   0.590797 0.809285 0.456691 -0.321697
C25   C     C_R   0.498397 0.231819 0.498083 -0.113209
C26   C     C_R   0.504358 0.768079 0.500892 -0.096705
C27   C     C_R   0.427925 0.184651 0.416481 0.218723
C28   C     C_R   0.422257 0.818712 0.542656 0.200093
C29   C     C_R   0.438105 0.092249 0.415103 -0.275012
C30   C     C_R   0.425363 0.911172 0.536823 -0.269116
H1    H     H_    0.909790 0.561192 0.617767 0.165417
H2    H     H_    0.081449 0.452404 0.375239 0.163869
H3    H     H_    0.629110 0.224324 0.639769 0.169407
H4    H     H_    0.654753 0.769456 0.425675 0.156556
H5    H     H_    0.382544 0.054561 0.353844 0.142071
H6    H     H_    0.361076 0.951450 0.567006 0.154706
H7    H     H_    0.323436 0.430174 0.034758 0.164863
H8    H     H_    0.549590 0.638168 0.942130 0.167511
H9    H     H_    0.327293 0.429184 0.209245 0.142218
H10   H     H_    0.555108 0.635432 0.769819 0.143966
H11   H     H_    0.670824 0.572554 0.277862 0.134437
H12   H     H_    0.447869 0.363816 0.744321 0.141161
N1    N     N_R   0.500000 0.499980 0.252470 -0.099108
N2    N     N_R   0.500000 0.500020 0.747530 -0.101019
O1    O     O_R   0.500010 0.369070 0.579480 -0.640361
O2    O     O_R   0.499990 0.630930 0.420520 -0.622798
O3    O     O_R   0.500010 0.369060 0.420520 -0.591294
O4    O     O_R   0.499990 0.630940 0.579480 -0.608483
O5    O     O_R   0.317810 0.500010 0.549800 -0.586194
O6    O     O_R   0.682190 0.499990 0.450200 -0.604978
O7    O     O_R   0.317810 0.500000 0.390840 -0.619866
O8    O     O_R   0.682190 0.500000 0.609160 -0.613272
Zn1   Zn    Zn3+2 0.500000 0.500010 0.606140 0.938889
Zn2   Zn    Zn3+2 0.500000 0.499990 0.393860 0.942640
N3    N     N_2   0.900539 0.396285 0.449067 -0.302277
H13   H     H_    0.853707 0.350147 0.481269 0.220451
C31   C     C_3   0.847067 0.406337 0.345380 -0.762187
H14   H     H_    0.745224 0.387843 0.326561 0.259891
H15   H     H_    0.896972 0.360635 0.305158 0.223829
H16   H     H_    0.856319 0.476034 0.321314 0.233129
N4    N     N_2   0.113594 0.586333 0.575534 -0.310830
H17   H     H_    0.166784 0.635330 0.553693 0.233600
C32   C     C_3   0.158170 0.559620 0.676561 -0.735559
H18   H     H_    0.261461 0.571456 0.702014 0.259050
H19   H     H_    0.139269 0.487767 0.686957 0.238410
H20   H     H_    0.110395 0.600889 0.722352 0.216936
N5    N     N_2   0.709967 0.576698 0.099647 -0.318141
H21   H     H_    0.754242 0.626171 0.146791 0.215475
C33   C     C_3   0.799414 0.512281 0.078662 -0.796872
H22   H     H_    0.877294 0.548049 0.057044 0.239571
H23   H     H_    0.753238 0.467445 0.017723 0.258365
H24   H     H_    0.840548 0.471476 0.144064 0.230504
N6    N     N_2   0.449585 0.336664 0.929794 -0.318368
H25   H     H_    0.390362 0.294726 0.881106 0.216940
C34   C     C_3   0.562354 0.290839 0.983275 -0.791706
H26   H     H_    0.534990 0.228598 0.015173 0.238495
H27   H     H_    0.616385 0.333333 0.043715 0.256147
H28   H     H_    0.623727 0.272873 0.933840 0.231719
N7    N     N_2   0.662048 0.049775 0.658405 -0.305540
H29   H     H_    0.694822 0.987660 0.643926 0.229475
C35   C     C_3   0.614708 0.050995 0.745267 -0.805408
H30   H     H_    0.684160 0.017736 0.805523 0.239113
H31   H     H_    0.523288 0.014517 0.731976 0.238368
H32   H     H_    0.601185 0.120817 0.768104 0.245424
N8    N     N_2   0.687182 0.944307 0.412029 -0.305822
H33   H     H_    0.775238 0.914352 0.432020 0.218258
C36   C     C_3   0.646643 0.956841 0.307884 -0.790302
H34   H     H_    0.720421 0.994238 0.282701 0.237787
H35   H     H_    0.557295 0.996011 0.288452 0.247130
H36   H     H_    0.632108 0.891020 0.269908 0.232914
N9    N     N_2   0.345966 0.229477 0.336719 -0.291183
H37   H     H_    0.334491 0.196498 0.270965 0.218056
C37   C     C_3   0.226105 0.257472 0.354299 -0.779259
H38   H     H_    0.169253 0.198072 0.363555 0.233094
H39   H     H_    0.172267 0.296887 0.291353 0.228060
H40   H     H_    0.241047 0.300318 0.420383 0.239176
N10   N     N_2   0.332651 0.776804 0.585723 -0.308009
H41   H     H_    0.240487 0.792719 0.550829 0.210012
C38   C     C_3   0.356568 0.789439 0.689940 -0.782054
H42   H     H_    0.336846 0.859806 0.707375 0.224440
H43   H     H_    0.456573 0.773073 0.725843 0.244041
H44   H     H_    0.293882 0.744753 0.719242 0.240029

loop_
_geom_bond_atom_site_label_1
_geom_bond_atom_site_label_2
_ccdc_geom_bond_type
C28   N10   S    
C36   H34   S    
C32   H19   S    
C37   H38   S    
C5    H7    S    
C10   H12   S    
N6    H25   S    
C19   C20   S    
N3    H13   S    
C35   H30   S    
N8    H33   S    
C2    O2    A    
O6    Zn2   S    
C24   C26   A    
C31   H15   S    
C27   C29   A    
C34   H27   S    
C33   H23   S    
C22   N8    S    
C3    C29   A    
C35   H31   S    
N2    Zn1   S    
C23   H3    S    
C6    H8    S    
C27   N9    S    
C7    N1    A    
C5    C13   A    
C23   C25   A    
C32   H20   S    
O1    Zn1   S    
C37   H39   S    
C12   N6    S    
C1    C25   S    
N6    C34   S    
O2    Zn2   S    
N4    H17   S    
C20   N3    S    
N10   C38   S    
C11   N5    S    
N10   H41   S    
N8    C36   S    
C21   C23   A    
O4    Zn1   S    
C9    N1    A    
C10   N2    A    
N5    H21   S    
C8    N2    A    
N9    H37   S    
C5    C7    A    
C1    O3    A    
C31   H16   S    
C6    C8    A    
C2    O4    A    
N9    C37   S    
C24   H4    S    
N7    H29   S    
N5    C33   S    
C33   H24   S    
C34   H26   S    
C6    C14   A    
C4    C22   A    
N1    Zn2   S    
C38   H42   S    
C21   N7    S    
N4    C32   S    
C2    C26   S    
C9    C11   A    
C10   C12   A    
O3    Zn2   S    
C38   H43   S    
C12   C14   A    
C37   H40   S    
C15   O7    A    
N3    C31   S    
C22   C24   A    
C3    C21   A    
C3    C4    S    
C35   H32   S    
O8    Zn1   S    
N7    C35   S    
C15   C17   S    
C9    H11   S    
C16   O8    A    
C16   O6    A    
C25   C27   A    
C29   H5    S    
C26   C28   A    
C30   H6    S    
O7    Zn2   S    
C36   H35   S    
C11   C13   A    
C1    O1    A    
C31   H14   S    
C19   N4    S    
O5    Zn1   S    
C28   C30   A    
C17   C19   D    
C18   C20   D    
C15   O5    A    
C33   H22   S    
C34   H28   S    
C32   H18   S    
C38   H44   S    
C16   C18   S    
C36   H36   S    
C17   H2    S    
C7    H9    S    
C18   H1    S    
C8    H10   S    
C13   C14   S    
C4    C30   A    
