data_mof_unit_20993.cif
_audit_creation_date              2012-12-10T17:02:48-0500
_audit_creation_method            fapswitch 2.2
_symmetry_space_group_name_H-M    P1
_symmetry_Int_Tables_number       1
_space_group_crystal_system       triclinic
_cell_length_a                    18.413111
_cell_length_b                    18.669708
_cell_length_c                    19.031273
_cell_angle_alpha                 109.569923
_cell_angle_beta                  108.577426
_cell_angle_gamma                 107.799973
_cell_volume                      5182.97404847

loop_
_atom_site_label
_atom_site_type_symbol
_atom_type_description
_atom_site_fract_x
_atom_site_fract_y
_atom_site_fract_z
_atom_type_partial_charge
C1    C     C_R   0.380934 0.381566 0.500754 0.815419
C2    C     C_R   0.308502 0.326376 0.578233 -0.040704
C3    C     C_R   0.185097 0.184265 0.499850 -0.056390
C4    C     C_R   0.622608 0.502045 0.618520 0.853518
C5    C     C_R   0.199902 0.167162 0.428704 -0.150759
C6    C     C_R   0.252185 0.237203 0.425318 -0.111708
C7    C     C_R   0.313227 0.314975 0.501950 -0.086505
C8    C     C_R   0.162022 0.083596 0.358990 0.382553
C9    C     C_R   0.169246 0.072876 0.285584 0.314758
C10   C     C_R   0.212234 0.145512 0.279586 0.120801
C11   C     C_R   0.240332 0.227083 0.344646 0.353151
C12   C     C_3   0.813329 0.498554 0.805431 -0.204712
C13   C     C_R   0.233454 0.529571 0.405177 0.379969
C14   C     C_R   0.150396 0.494829 0.395967 -0.143847
C15   C     C_R   0.083168 0.485658 0.329073 -0.303818
C16   C     C_R   0.620085 0.618419 0.500229 0.997838
C17   C     C_R   0.098575 0.505497 0.268736 0.411949
C18   C     C_R   0.174617 0.509194 0.261598 0.011142
C19   C     C_R   0.243539 0.518555 0.331255 -0.071804
C20   C     C_R   0.184770 0.505129 0.189167 -0.045303
C21   C     C_R   0.264980 0.515517 0.189913 -0.137795
C22   C     C_R   0.335012 0.532035 0.261876 0.014296
C23   C     C_3   0.840837 0.592668 0.820302 0.211372
C24   C     C_R   0.319009 0.517885 0.324889 -0.049174
C25   C     C_R   0.277119 0.504870 0.118253 0.258474
C26   C     C_R   0.358306 0.558167 0.132048 0.430767
C27   C     C_R   0.430175 0.586611 0.207147 -0.306974
C28   C     C_R   0.380315 0.502689 0.383097 0.954333
C29   C     C_R   0.419483 0.566525 0.269290 0.387970
C30   C     C_R   0.621738 0.784336 0.533151 0.326187
C31   C     C_R   0.642156 0.868595 0.586622 0.323181
C32   C     C_R   0.711890 0.935577 0.599009 -0.281027
C33   C     C_R   0.762868 0.919370 0.561106 0.353075
C34   C     C_3   0.724848 0.466181 0.806334 -0.479572
C35   C     C_R   0.755934 0.834893 0.526552 0.023498
C36   C     C_R   0.687599 0.767026 0.519121 -0.065407
C37   C     C_R   0.814534 0.816218 0.499718 -0.072023
C38   C     C_R   0.810551 0.734174 0.472984 -0.014667
C39   C     C_R   0.753023 0.670731 0.480967 0.037378
C40   C     C_3   0.735871 0.450034 0.648054 0.099450
C41   C     C_R   0.687284 0.685439 0.498996 -0.115369
C42   C     C_R   0.865407 0.715281 0.440068 -0.157989
C43   C     C_R   0.868209 0.638186 0.420882 -0.156044
C44   C     C_R   0.820711 0.580162 0.438632 -0.194836
C45   C     C_R   0.372074 0.396255 0.660329 0.435935
C46   C     C_R   0.765518 0.596261 0.471522 0.491144
C47   C     C_R   0.004716 0.381659 0.884509 0.915074
C48   C     C_R   0.878906 0.497702 0.875437 0.836291
C49   C     C_R   0.995683 0.617865 0.114888 0.779906
C50   C     C_R   0.116860 0.499880 0.116899 0.899297
C51   C     C_R   0.001313 0.880143 0.383452 0.789472
C52   C     C_3   0.796657 0.437227 0.715602 0.122973
C53   C     C_R   0.118079 0.118258 0.499877 0.783887
C54   C     C_R   0.996516 0.117780 0.616600 0.785755
C55   C     C_R   0.881767 0.882625 0.500676 0.847603
C56   C     C_R   0.351492 0.415835 0.726675 -0.073504
C57   C     C_R   0.102976 0.410915 0.784072 0.490590
C58   C     C_R   0.108626 0.423906 0.717011 -0.271627
C59   C     C_R   0.052986 0.359983 0.634309 -0.160016
C60   C     C_R   0.997969 0.278784 0.616972 0.415521
C61   C     C_R   0.004072 0.260946 0.685438 -0.136104
C62   C     C_R   0.041086 0.330633 0.766347 0.025548
C63   C     C_R   0.986665 0.179533 0.680363 -0.071632
C64   C     C_3   0.765704 0.598961 0.758775 0.546798
C65   C     C_R   0.981655 0.165313 0.748206 -0.032562
C66   C     C_R   0.994462 0.232595 0.821090 -0.017706
C67   C     C_R   0.273112 0.362424 0.716354 -0.208859
C68   C     C_R   0.016812 0.315403 0.825989 -0.011133
C69   C     C_R   0.961989 0.083920 0.743065 -0.296892
C70   C     C_R   0.955326 0.066825 0.807284 0.248037
C71   C     C_R   0.972154 0.133918 0.882537 0.291629
C72   C     C_R   0.990811 0.216273 0.888722 0.316343
C73   C     C_R   0.154488 0.736653 0.267565 -0.260347
C74   C     C_R   0.235121 0.800283 0.334869 0.358155
C75   C     C_R   0.239030 0.868257 0.399741 0.354865
C76   C     C_3   0.653554 0.459168 0.730657 -0.390302
C77   C     C_R   0.162018 0.868454 0.395947 -0.277925
C78   C     C_R   0.216895 0.286374 0.641206 -0.159714
C79   C     C_R   0.079871 0.806639 0.325934 0.048538
C80   C     C_R   0.077028 0.741396 0.259240 0.023506
C81   C     C_R   0.001031 0.808149 0.320156 -0.093111
C82   C     C_R   0.920490 0.741885 0.250119 0.056704
C83   C     C_R   0.919215 0.682902 0.179793 -0.018865
C84   C     C_R   0.997373 0.682398 0.185235 -0.082407
C85   C     C_R   0.840469 0.732761 0.248390 -0.194082
C86   C     C_R   0.762309 0.673283 0.175954 -0.212000
C87   C     C_R   0.761414 0.620947 0.102848 0.476288
C88   C     C_3   0.693878 0.503372 0.686599 -0.113878
C89   C     C_R   0.235637 0.265584 0.572553 0.053691
C90   C     C_R   0.839302 0.625896 0.105092 -0.139254
Cu1   Cu    Cu3+1 0.500360 0.438220 0.438540 1.128281
Cu2   Cu    Cu3+1 0.499640 0.561780 0.561460 1.227585
Cu3   Cu    Cu3+1 0.935530 0.438290 0.997340 1.035241
Cu4   Cu    Cu3+1 0.059130 0.561800 0.997250 1.180440
Cu5   Cu    Cu3+1 0.937870 0.000030 0.437890 1.146281
Cu6   Cu    Cu3+1 0.062130 0.000000 0.562130 1.037803
H1    H     H_    0.771883 0.486313 0.624329 0.184302
H2    H     H_    0.828829 0.523125 0.428844 0.145590
H3    H     H_    0.760423 0.371274 0.704701 0.187942
H4    H     H_    0.724004 0.000712 0.634772 0.197648
H5    H     H_    0.907321 0.760024 0.428967 0.120782
H6    H     H_    0.910658 0.625181 0.395842 0.158742
H7    H     H_    0.154182 0.484775 0.728758 0.180900
H8    H     H_    0.051240 0.374532 0.583452 0.207252
H9    H     H_    0.950690 0.031388 0.687696 0.235528
H10   H     H_    0.153557 0.683341 0.221351 0.212143
H11   H     H_    0.169719 0.919004 0.449759 0.215124
H12   H     H_    0.730752 0.510792 0.866423 0.234023
H13   H     H_    0.836780 0.770357 0.303088 0.153054
H14   H     H_    0.702559 0.668873 0.176732 0.157467
H15   H     H_    0.835906 0.584650 0.047200 0.148016
H16   H     H_    0.616882 0.489399 0.754163 0.261772
H17   H     H_    0.607277 0.390487 0.685048 0.219366
H18   H     H_    0.704638 0.402027 0.803018 0.227434
H19   H     H_    0.699135 0.661797 0.781918 0.392201
H20   H     H_    0.299166 0.056610 0.208592 0.363839
H21   H     H_    0.470835 0.400319 0.644868 0.287625
H22   H     H_    0.162368 0.020457 0.418778 0.314583
H23   H     H_    0.854342 0.632293 0.886051 0.188065
H24   H     H_    0.115033 0.991316 0.166654 0.382582
H25   H     H_    0.699131 0.346418 0.546537 0.347152
H26   H     H_    0.080501 0.280502 0.237751 0.391059
H27   H     H_    0.227038 0.689820 0.495183 0.356408
H28   H     H_    0.998460 0.527084 0.240029 0.326088
H29   H     H_    0.219723 0.330793 0.115280 0.393302
H30   H     H_    0.476279 0.661009 0.042433 0.381659
H31   H     H_    0.543313 0.609313 0.333184 0.316032
H32   H     H_    0.499268 0.749057 0.482858 0.383121
H33   H     H_    0.617312 0.982959 0.766221 0.387829
H34   H     H_    0.398484 0.470667 0.787982 0.184304
H35   H     H_    0.810905 0.037159 0.580608 0.350816
H36   H     H_    0.745573 0.495840 0.488976 0.320475
H37   H     H_    0.980172 0.029020 0.017233 0.394644
H38   H     H_    0.202580 0.522128 0.866409 0.355952
H39   H     H_    0.842725 0.407614 0.566954 0.362469
H40   H     H_    0.817758 0.247387 0.437763 0.375327
H41   H     H_    0.059372 0.978593 0.827110 0.355244
H42   H     H_    0.967179 0.265069 0.979376 0.361144
H43   H     H_    0.636606 0.567849 0.037558 0.342061
H44   H     H_    0.454702 0.833509 0.427797 0.378267
H45   H     H_    0.258094 0.377444 0.768408 0.201760
H46   H     H_    0.401079 0.968666 0.615875 0.393394
H47   H     H_    0.933256 0.786128 0.789263 0.420885
H48   H     H_    0.911318 0.596010 0.761977 0.396997
H49   H     H_    0.158815 0.244210 0.637556 0.128852
H50   H     H_    0.494268 0.621294 0.216102 0.194998
H51   H     H_    0.141005 0.494568 0.449293 0.200402
H52   H     H_    0.022705 0.474866 0.330891 0.166748
O1    O     O_R   0.410140 0.357660 0.448100 -0.587800
O2    O     O_R   0.052970 0.909860 0.462770 -0.616817
O3    O     O_R   0.037700 0.090200 0.447550 -0.517622
O4    O     O_R   0.409530 0.462000 0.551910 -0.526119
O5    O     O_R   0.142640 0.090170 0.552470 -0.585136
O6    O     O_R   0.947030 0.090160 0.537260 -0.484692
O7    O     O_R   0.051970 0.090130 0.642170 -0.589064
O8    O     O_R   0.857360 0.909860 0.447560 -0.556024
O9    O     O_R   0.962300 0.909830 0.552480 -0.573597
O10   O     O_R   0.590960 0.447830 0.538760 -0.533320
O11   O     O_R   0.590350 0.552170 0.642570 -0.580622
O12   O     O_R   0.049980 0.462000 0.907580 -0.506815
O13   O     O_R   0.590470 0.538000 0.448090 -0.570238
O14   O     O_R   0.589860 0.642340 0.551900 -0.504508
O15   O     O_R   0.409650 0.447830 0.357430 -0.526441
O16   O     O_R   0.409040 0.552170 0.461240 -0.522425
O17   O     O_R   0.945600 0.357690 0.907660 -0.594010
O18   O     O_3   0.730510 0.635606 0.808384 -0.718241
O19   O     O_2   0.165229 0.130151 0.124957 -0.142542
O20   O     O_2   0.319442 0.214033 0.225229 -0.231756
O21   O     O_3   0.251529 0.048856 0.159133 -0.467998
O22   O     O_3   0.457109 0.440424 0.681123 -0.720669
O23   O     O_R   0.854480 0.447890 0.906670 -0.614927
O24   O     O_3   0.124028 0.010419 0.362797 -0.675933
O25   O     O_3   0.132075 0.990294 0.221007 -0.627122
O26   O     O_3   0.672027 0.368571 0.580246 -0.689566
O27   O     O_2   0.225724 0.372059 0.388092 -0.379074
O28   O     O_2   0.245212 0.319652 0.261806 -0.258002
O29   O     O_3   0.097268 0.239298 0.251348 -0.471511
O30   O     O_2   0.348195 0.601532 0.568854 -0.215560
O31   O     O_2   0.371399 0.685878 0.495578 -0.210056
O32   O     O_3   0.248866 0.670865 0.536667 -0.483939
O33   O     O_3   0.045344 0.530188 0.224276 -0.736963
O34   O     O_R   0.958860 0.552200 0.906600 -0.495381
O35   O     O_2   0.180266 0.382642 0.957656 -0.223479
O36   O     O_2   0.307660 0.377128 0.040547 -0.245580
O37   O     O_3   0.176665 0.330967 0.068267 -0.441247
O38   O     O_2   0.346220 0.501224 0.977207 -0.230313
O39   O     O_2   0.314244 0.621071 0.028323 -0.254740
O40   O     O_3   0.474735 0.651430 0.090194 -0.539307
O41   O     O_3   0.490901 0.587411 0.339748 -0.715280
O42   O     O_3   0.537163 0.721322 0.486592 -0.656826
O43   O     O_2   0.527776 0.924857 0.598113 -0.234925
O44   O     O_2   0.528681 0.814522 0.641096 -0.183680
O45   O     O_R   0.944670 0.538090 0.087010 -0.575955
O46   O     O_3   0.653757 0.969750 0.740464 -0.489922
O47   O     O_3   0.819930 0.985961 0.559666 -0.725113
O48   O     O_3   0.730688 0.543861 0.501184 -0.695796
O49   O     O_2   0.030772 0.198314 0.052405 -0.209642
O50   O     O_2   0.879422 0.091899 0.958541 -0.264848
O51   O     O_3   0.997073 0.041221 0.976415 -0.377235
O52   O     O_3   0.164350 0.471230 0.866103 -0.623891
O53   O     O_2   0.973175 0.492261 0.773561 -0.233743
O54   O     O_2   0.874592 0.342980 0.669281 -0.288923
O55   O     O_3   0.890070 0.458269 0.620571 -0.497183
O56   O     O_R   0.049050 0.642400 0.086940 -0.574167
O57   O     O_2   0.926904 0.174589 0.450343 -0.270740
O58   O     O_2   0.833116 0.153241 0.517293 -0.250992
O59   O     O_3   0.871440 0.285047 0.492300 -0.513035
O60   O     O_2   0.860749 0.930648 0.815824 -0.128907
O61   O     O_2   0.894796 0.899399 0.698819 -0.306706
O62   O     O_3   0.017851 0.957716 0.847013 -0.429217
O63   O     O_3   0.013959 0.282922 0.964223 -0.627933
O64   O     O_3   0.685680 0.563444 0.028756 -0.713676
O65   O     O_2   0.304241 0.706346 0.265991 -0.313542
O66   O     O_2   0.370836 0.859287 0.310026 -0.221721
O67   O     O_R   0.035800 0.447890 0.088000 -0.525126
O68   O     O_3   0.397462 0.812095 0.425936 -0.423592
O69   O     O_2   0.409109 0.978806 0.469235 -0.176946
O70   O     O_2   0.324012 0.028730 0.529452 -0.327491
O71   O     O_3   0.362810 0.916358 0.560308 -0.434625
O72   O     O_2   0.842100 0.638236 0.663675 -0.318786
O73   O     O_2   0.742271 0.695748 0.680217 -0.272867
O74   O     O_3   0.891116 0.764472 0.808233 -0.388322
O75   O     O_3   0.919689 0.628265 0.819295 -0.618539
O76   O     O_R   0.140170 0.552200 0.087920 -0.575905
O77   O     O_R   0.948030 0.909890 0.357850 -0.551321
S1    S     S_3+6 0.237668 0.136476 0.195547 0.101542
S2    S     S_3+6 0.928628 0.960374 0.790076 0.099562
S3    S     S_3+6 0.328096 0.793458 0.331826 0.077488
S4    S     S_3+6 0.336770 0.952006 0.490381 0.080412
S5    S     S_3+6 0.808977 0.673428 0.722687 0.047096
S6    S     S_3+6 0.205007 0.294118 0.312408 0.033735
S7    S     S_3+6 0.304879 0.623648 0.503698 0.082316
S8    S     S_3+6 0.235034 0.397081 0.043080 0.072513
S9    S     S_3+6 0.371369 0.581757 0.053217 0.067270
S10   S     S_3+6 0.583544 0.892431 0.640458 0.072425
S11   S     S_3+6 0.969742 0.117561 0.969756 0.117167
S12   S     S_3+6 0.886845 0.433059 0.696971 -0.013260
S13   S     S_3+6 0.904905 0.218259 0.516621 0.062724

loop_
_geom_bond_atom_site_label_1
_geom_bond_atom_site_label_2
_ccdc_geom_bond_type
H26   O29   S    
C66   C68   A    
C63   C65   A    
C53   O5    A    
Cu3   Cu4   S    
C22   C29   A    
Cu3   O67   S    
C87   O64   S    
O37   S8    S    
Cu5   Cu6   S    
O46   S10   S    
C80   C84   A    
C29   O41   S    
C45   O22   S    
O54   S12   D    
H33   O46   S    
C73   H10   S    
C57   C62   A    
C39   C41   A    
C56   C67   A    
C85   C86   A    
C65   C66   A    
H38   O52   S    
C12   C23   S    
C50   O76   A    
C26   C27   A    
O68   S3    S    
C21   C25   A    
Cu2   O11   S    
C59   H8    S    
C49   C84   S    
C35   C37   A    
O71   S4    S    
C38   C42   A    
C85   H13   S    
C69   C70   A    
O60   S2    D    
C23   H23   S    
C5    C6    A    
C47   O17   A    
C4    O11   A    
C27   C29   A    
C54   C63   S    
O43   S10   D    
H42   O63   S    
H28   O33   S    
C1    O4    A    
H29   O37   S    
C18   C19   A    
O62   S2    S    
C75   S4    S    
O31   S7    D    
Cu3   O45   S    
Cu1   O10   S    
C64   O18   S    
O59   S13   S    
O69   S4    D    
Cu5   O3    S    
C44   H2    S    
H21   O22   S    
C66   C72   A    
C35   C36   A    
C51   O2    A    
C8    C9    A    
H48   O75   S    
O73   S5    D    
Cu2   O4    S    
C20   C50   S    
C9    O25   S    
C70   C71   A    
O66   S3    D    
C9    C10   A    
C51   C81   S    
H32   O42   S    
O53   S12   D    
C78   H49   S    
C12   C48   S    
Cu2   O16   S    
Cu6   O9    S    
C49   O56   A    
C25   S8    S    
C59   C60   A    
C78   C89   A    
Cu4   O12   S    
C13   C14   A    
Cu4   O76   S    
Cu1   O15   S    
C36   C41   A    
O57   S13   D    
C67   C78   A    
C90   H15   S    
H47   O74   S    
C12   C52   S    
O49   S11   D    
C44   C46   A    
C34   C76   S    
C81   C82   A    
C47   O12   A    
C77   C79   A    
C2    C45   A    
C55   O8    A    
O36   S8    D    
C4    O10   A    
C72   O63   S    
O27   S6    D    
C74   C75   A    
C13   C19   A    
C77   H11   S    
C70   S2    S    
C45   C56   A    
C74   S3    S    
C6    C11   A    
Cu1   O1    S    
C69   H9    S    
C86   C87   A    
O19   S1    D    
H39   O55   S    
C16   O14   A    
C25   C26   A    
C40   C52   S    
O28   S6    D    
C31   S10   S    
C14   H51   S    
C32   H4    S    
C60   C61   A    
C37   C55   S    
C2    C89   A    
C43   C44   A    
Cu5   O77   S    
O70   S4    D    
C51   O77   A    
C37   C38   A    
H40   O59   S    
C48   O23   A    
C83   C84   A    
C14   C15   A    
H22   O24   S    
C30   C31   A    
C76   H16   S    
C34   H18   S    
Cu6   O2    S    
C61   C63   A    
C76   H17   S    
O58   S13   D    
H31   O41   S    
C71   S11   S    
Cu5   O8    S    
H19   O18   S    
C1    O1    A    
C75   C77   A    
C33   O47   S    
C6    C7    A    
C52   S12   S    
O35   S8    D    
C39   C46   A    
C23   C64   S    
C23   O75   S    
C82   C83   A    
C57   O52   S    
C2    C7    A    
H43   O64   S    
C22   C24   A    
C60   S13   S    
C42   C43   A    
C12   C34   S    
H25   O26   S    
C67   H45   S    
C42   H5    S    
C47   C68   S    
C54   O7    A    
O40   S9    S    
C28   O16   A    
O44   S10   D    
C10   S1    S    
Cu2   O14   S    
C15   C17   A    
C83   C90   A    
C76   C88   S    
O32   S7    S    
C73   C74   A    
C11   S6    S    
C86   H14   S    
C1    C7    S    
C31   C32   A    
H35   O47   S    
C24   C28   S    
H27   O32   S    
C3    C5    A    
O29   S6    S    
C5    C8    A    
C40   O26   S    
C46   O48   S    
Cu6   O5    S    
C4    C88   S    
C30   C36   A    
C16   O13   A    
C48   O34   A    
C82   C85   A    
O61   S2    D    
C52   H3    S    
C79   C81   A    
C17   C18   A    
C62   C68   A    
H41   O62   S    
C3    C89   A    
Cu5   O6    S    
C34   H12   S    
C32   C33   A    
C40   C88   S    
H30   O40   S    
C19   C24   A    
C58   C59   A    
C43   H6    S    
C71   C72   A    
C40   H1    S    
O65   S3    D    
O50   S11   D    
O51   S11   S    
C13   S7    S    
C64   S5    S    
C3    C53   S    
C26   S9    S    
C57   C58   A    
C38   C39   A    
C49   O45   A    
C50   O67   A    
C27   H50   S    
C65   C69   A    
C33   C35   A    
C73   C80   A    
H20   O21   S    
C18   C20   A    
C30   O42   S    
C61   C62   A    
H46   O71   S    
O55   S12   S    
O39   S9    D    
C10   C11   A    
H44   O68   S    
Cu3   O17   S    
C79   C80   A    
Cu6   O7    S    
C17   O33   S    
H24   O25   S    
C55   O9    A    
Cu4   O56   S    
C20   C21   A    
O74   S5    S    
H37   O51   S    
O30   S7    D    
C87   C90   A    
C15   H52   S    
O72   S5    D    
H36   O48   S    
O21   S1    S    
Cu1   O13   S    
O20   S1    D    
C58   H7    S    
Cu4   O34   S    
C54   O6    A    
C21   C22   A    
C16   C41   S    
C64   C88   S    
C56   H34   S    
Cu1   Cu2   S    
C8    O24   S    
C28   O15   A    
C53   O3    A    
O38   S9    D    
Cu3   O23   S    
