data_mof_unit_17543.cif
_audit_creation_date              2012-12-10T22:11:11-0500
_audit_creation_method            fapswitch 2.2
_symmetry_space_group_name_H-M    P1
_symmetry_Int_Tables_number       1
_space_group_crystal_system       triclinic
_cell_length_a                    12.11547
_cell_length_b                    12.298439
_cell_length_c                    22.941548
_cell_angle_alpha                 90.827478
_cell_angle_beta                  90.638097
_cell_angle_gamma                 90.905105
_cell_volume                      3417.3182935

loop_
_atom_site_label
_atom_site_type_symbol
_atom_type_description
_atom_site_fract_x
_atom_site_fract_y
_atom_site_fract_z
_atom_type_partial_charge
C1    C     C_R   0.657490 0.998350 0.579259 0.871817
C2    C     C_R   0.342510 0.001650 0.420741 0.871817
C3    C     C_R   0.891560 0.787524 0.140060 -0.200900
C4    C     C_R   0.108441 0.212490 0.859932 -0.200897
C5    C     C_R   0.091673 0.881319 0.177999 -0.167235
C6    C     C_R   0.908329 0.118665 0.822010 -0.167221
C7    C     C_R   0.091241 0.800395 0.135734 -0.197165
C8    C     C_R   0.908762 0.199590 0.864275 -0.197166
C9    C     C_R   0.896966 0.139846 0.182374 -0.167464
C10   C     C_R   0.103032 0.860169 0.817634 -0.167452
C11   C     C_R   0.897833 0.221988 0.141992 -0.199350
C12   C     C_R   0.102166 0.778027 0.858016 -0.199351
C13   C     C_R   0.135464 0.906208 0.308751 -0.175449
C14   C     C_R   0.864519 0.093792 0.691257 -0.175467
C15   C     C_R   0.217667 0.904914 0.351065 -0.199104
C16   C     C_R   0.782316 0.095086 0.648944 -0.199102
C17   C     C_R   0.855740 0.103796 0.311613 -0.177090
C18   C     C_R   0.144275 0.896203 0.688395 -0.177108
C19   C     C_R   0.775924 0.102268 0.354096 -0.198252
C20   C     C_R   0.224092 0.897732 0.645912 -0.198251
C21   C     C_3   0.994550 0.007404 0.247723 -0.115948
C22   C     C_3   0.005450 0.992596 0.752277 -0.115947
C23   C     C_R   0.654791 0.001808 0.420672 0.872459
C24   C     C_R   0.345209 0.998192 0.579328 0.872457
C25   C     C_R   0.092578 0.005601 0.289730 0.129019
C26   C     C_R   0.907421 0.994399 0.710271 0.129019
C27   C     C_R   0.256005 0.002577 0.376546 -0.027006
C28   C     C_R   0.743995 0.997423 0.623454 -0.027003
C29   C     C_R   0.897120 0.005836 0.288812 0.128976
C30   C     C_R   0.102879 0.994164 0.711188 0.128977
C31   C     C_R   0.738409 0.003032 0.376047 -0.025709
C32   C     C_R   0.261591 0.996968 0.623953 -0.025707
C33   C     C_R   0.996109 0.105547 0.208247 0.128968
C34   C     C_R   0.003890 0.894453 0.791752 0.128968
C35   C     C_R   0.998182 0.268761 0.124967 -0.026354
C36   C     C_R   0.001817 0.731239 0.875033 -0.026352
C37   C     C_R   0.992659 0.912903 0.204271 0.128875
C38   C     C_R   0.007341 0.087097 0.795729 0.128874
C39   C     C_R   0.991405 0.751680 0.117324 -0.026601
C40   C     C_R   0.008596 0.248320 0.882677 -0.026599
C41   C     C_R   0.992865 0.663039 0.074960 0.870817
C42   C     C_R   0.007135 0.336961 0.925040 0.870816
C43   C     C_R   0.998936 0.352185 0.081014 0.870756
C44   C     C_R   0.001064 0.647815 0.918986 0.870756
C45   C     C_R   0.127968 0.102635 0.317969 -0.166407
C46   C     C_R   0.872047 0.897368 0.682023 -0.166392
C47   C     C_R   0.210200 0.101344 0.360126 -0.199576
C48   C     C_R   0.789815 0.898658 0.639866 -0.199577
C49   C     C_R   0.862044 0.906800 0.313113 -0.166602
C50   C     C_R   0.137940 0.093199 0.686879 -0.166588
C51   C     C_R   0.782050 0.905292 0.355570 -0.200376
C52   C     C_R   0.217934 0.094707 0.644422 -0.200377
C53   C     C_R   0.096840 0.150261 0.188979 -0.177298
C54   C     C_R   0.903160 0.849723 0.811012 -0.177315
C55   C     C_R   0.097696 0.232416 0.148500 -0.199197
C56   C     C_R   0.902304 0.767568 0.851491 -0.199195
C57   C     C_R   0.892010 0.868871 0.182455 -0.175446
C58   C     C_R   0.107991 0.131143 0.817537 -0.175463
H1    H     H_    0.236663 0.177647 0.380344 0.157627
H2    H     H_    0.763365 0.822356 0.619641 0.157625
H3    H     H_    0.175417 0.120466 0.204216 0.136491
H4    H     H_    0.824581 0.879506 0.795770 0.136495
H5    H     H_    0.813396 0.897481 0.197852 0.136235
H6    H     H_    0.186606 0.102546 0.802134 0.136238
H7    H     H_    0.169910 0.919180 0.190309 0.135093
H8    H     H_    0.830094 0.080794 0.809705 0.135092
H9    H     H_    0.818527 0.102110 0.192918 0.135210
H10   H     H_    0.181469 0.897916 0.807096 0.135210
H11   H     H_    0.104448 0.829033 0.291676 0.136696
H12   H     H_    0.895522 0.170967 0.708339 0.136700
H13   H     H_    0.886566 0.182103 0.297627 0.136429
H14   H     H_    0.113461 0.817896 0.702386 0.136433
H15   H     H_    0.755863 0.827748 0.372937 0.157272
H16   H     H_    0.244109 0.172251 0.627049 0.157271
H17   H     H_    0.176386 0.265765 0.134853 0.157507
H18   H     H_    0.823614 0.734208 0.865132 0.157505
H19   H     H_    0.813278 0.752897 0.125193 0.156514
H20   H     H_    0.186722 0.247129 0.874793 0.156513
H21   H     H_    0.169387 0.776273 0.117517 0.158879
H22   H     H_    0.830616 0.223700 0.882498 0.158877
H23   H     H_    0.819967 0.247099 0.123308 0.158223
H24   H     H_    0.180031 0.752928 0.876706 0.158223
H25   H     H_    0.250238 0.827366 0.364162 0.157031
H26   H     H_    0.749732 0.172633 0.635854 0.157029
H27   H     H_    0.744884 0.178995 0.370238 0.157898
H28   H     H_    0.255144 0.821005 0.629776 0.157897
H29   H     H_    0.091358 0.179837 0.307706 0.135122
H30   H     H_    0.908670 0.820168 0.692279 0.135122
O1    O     O_R   0.621380 0.090460 0.561410 -0.628501
O2    O     O_R   0.378620 0.909540 0.438590 -0.628501
O3    O     O_R   0.617150 0.909540 0.438590 -0.629914
O4    O     O_R   0.382850 0.090460 0.561410 -0.629913
O5    O     O_R   0.619720 0.093230 0.440890 -0.629339
O6    O     O_R   0.380280 0.906770 0.559110 -0.629339
O7    O     O_R   0.618800 0.906770 0.559110 -0.629715
O8    O     O_R   0.381200 0.093230 0.440890 -0.629715
O9    O     O_R   0.087590 0.627480 0.058790 -0.630090
O10   O     O_R   0.912410 0.372520 0.941210 -0.630089
O11   O     O_R   0.905660 0.383870 0.059980 -0.629741
O12   O     O_R   0.094340 0.616130 0.940020 -0.629741
O13   O     O_R   0.092570 0.390420 0.063230 -0.628304
O14   O     O_R   0.907430 0.609580 0.936770 -0.628303
O15   O     O_R   0.900680 0.620930 0.055550 -0.627683
O16   O     O_R   0.099320 0.379070 0.944450 -0.627683
Zn1   Zn    Zn3+2 0.501730 0.123520 0.501540 0.936771
Zn2   Zn    Zn3+2 0.498270 0.876480 0.498460 0.936771
Zn3   Zn    Zn3+2 0.125690 0.504390 0.002180 0.935893
Zn4   Zn    Zn3+2 0.874310 0.495610 0.997820 0.935893
H31   H     H_    0.897733 0.830349 0.299841 0.135237
H32   H     H_    0.102239 0.169647 0.700145 0.135237

loop_
_geom_bond_atom_site_label_1
_geom_bond_atom_site_label_2
_ccdc_geom_bond_type
C16   C28   A    
O8    Zn1   S    
O13   Zn3   S    
C56   H18   S    
C23   O3    A    
C5    C37   A    
C17   C29   A    
C16   H26   S    
C19   C31   A    
C43   O13   A    
C39   C41   S    
C29   C49   A    
C11   H23   S    
O11   Zn4   S    
C49   H31   S    
C45   H29   S    
C43   O11   A    
C52   H16   S    
C42   O10   A    
C21   C33   S    
C22   C38   S    
C50   H32   S    
O10   Zn4   S    
C24   C32   S    
C2    O2    A    
C32   C52   A    
O5    Zn1   S    
C38   C58   A    
C53   H3    S    
C11   C35   A    
O6    Zn2   S    
C4    C40   A    
C49   C51   A    
C18   H14   S    
C20   H28   S    
C1    C28   S    
C50   C52   A    
C6    C38   A    
O14   Zn4   S    
O15   Zn4   S    
C18   C30   A    
C12   C36   A    
C35   C43   S    
C18   C20   A    
C55   H17   S    
C45   C47   A    
C30   C50   A    
C3    C39   A    
C9    C33   A    
C14   H12   S    
O3    Zn2   S    
C13   C25   A    
C24   O4    A    
C48   H2    S    
C46   H30   S    
C53   C55   A    
C33   C53   A    
C22   C34   S    
C46   C48   A    
C35   C55   A    
O2    Zn2   S    
C5    H7    S    
C5    C7    A    
C44   O14   A    
C15   H25   S    
C54   H4    S    
C58   H6    S    
C21   C29   S    
C23   O5    A    
C23   C31   S    
C9    H9    S    
C4    H20   S    
C36   C56   A    
O7    Zn2   S    
C24   O6    A    
C15   C27   A    
C1    O7    A    
C12   H24   S    
C10   C34   A    
C14   C26   A    
C9    C11   A    
C2    C27   S    
C10   C12   A    
C3    C57   A    
C17   H13   S    
C13   C15   A    
C14   C16   A    
C36   C44   S    
O1    Zn1   S    
C3    H19   S    
C25   C45   A    
C7    H21   S    
C20   C32   A    
C27   C47   A    
C21   C25   S    
C28   C48   A    
O12   Zn3   S    
C1    O1    A    
C22   C30   S    
C51   H15   S    
C57   H5    S    
C31   C51   A    
C19   H27   S    
C42   O16   A    
C6    C8    A    
C54   C56   A    
C34   C54   A    
C10   H10   S    
C2    O8    A    
C44   O12   A    
C13   H11   S    
C40   C42   S    
C17   C19   A    
C41   O9    A    
C26   C46   A    
C47   H1    S    
O9    Zn3   S    
C41   O15   A    
O4    Zn1   S    
C6    H8    S    
C21   C37   S    
C22   C26   S    
C4    C58   A    
C8    H22   S    
C7    C39   A    
C8    C40   A    
O16   Zn3   S    
C37   C57   A    
