data_mof_unit_53350.cif
_audit_creation_date              2012-12-10T17:00:03-0500
_audit_creation_method            fapswitch 2.2
_symmetry_space_group_name_H-M    P1
_symmetry_Int_Tables_number       1
_space_group_crystal_system       triclinic
_cell_length_a                    23.435066
_cell_length_b                    10.908588
_cell_length_c                    9.742482
_cell_angle_alpha                 89.950951
_cell_angle_beta                  90.834475
_cell_angle_gamma                 90.221999
_cell_volume                      2490.31836181

loop_
_atom_site_label
_atom_site_type_symbol
_atom_type_description
_atom_site_fract_x
_atom_site_fract_y
_atom_site_fract_z
_atom_type_partial_charge
C1    C     C_R   0.502030 0.265497 0.500523 0.865794
C2    C     C_R   0.118974 0.557218 0.385165 0.600560
C3    C     C_R   0.242586 0.632163 0.479572 -0.112865
C4    C     C_R   0.391152 0.500307 0.499116 0.836556
C5    C     C_R   0.302177 0.625089 0.476689 -0.095278
C6    C     C_R   0.328641 0.510278 0.497190 -0.182664
C7    C     C_R   0.295236 0.404023 0.516243 0.330713
C8    C     C_R   0.235215 0.412991 0.524962 -0.062099
C9    C     C_R   0.209138 0.528446 0.504471 0.243086
C10   C     C_R   0.764944 0.422271 0.467273 -0.046728
C11   C     C_R   0.704965 0.411019 0.463718 0.317182
C12   C     C_R   0.972392 0.533755 0.758922 -0.159457
C13   C     C_R   0.670964 0.509977 0.504064 -0.138450
C14   C     C_R   0.696156 0.619142 0.549241 -0.214576
C15   C     C_R   0.755558 0.633325 0.551792 -0.001804
C16   C     C_R   0.502393 0.734564 0.499631 0.859318
C17   C     C_R   0.790257 0.534304 0.511537 0.195093
C18   C     C_2   0.526122 0.935185 0.396662 0.030013
C19   C     C_2   0.502372 0.867396 0.497649 -0.314815
C20   C     C_2   0.515788 0.067759 0.390835 -0.264216
C21   C     C_2   0.509190 0.133819 0.504973 -0.328127
C22   C     C_2   0.490889 0.404142 0.924509 -0.016361
C23   C     C_R   0.031866 0.534566 0.757723 -0.152034
C24   C     C_2   0.477818 0.412159 0.075385 0.096428
C25   C     C_R   0.608753 0.501008 0.500928 0.865637
C26   C     C_R   0.878589 0.567769 0.390869 0.613155
C27   C     C_R   0.881044 0.538412 0.633942 0.574667
C28   C     C_R   0.940884 0.544640 0.635871 0.003933
C29   C     C_R   0.969761 0.559358 0.510909 -0.007581
C30   C     C_R   0.938414 0.571926 0.387478 -0.085139
C31   C     C_3   0.669944 0.225378 0.530719 0.003809
C32   C     C_3   0.666188 0.093699 0.480128 -0.667969
C33   C     C_2   0.781148 0.752612 0.593726 0.452608
C34   C     C_R   0.061098 0.545137 0.633385 0.004467
C35   C     C_2   0.563547 0.884529 0.288705 0.400043
C36   C     C_2   0.482644 0.616775 0.894499 0.609048
C37   C     C_2   0.437898 0.319705 0.130704 0.404195
C38   C     C_3   0.067618 0.725065 0.112812 0.119531
C39   C     C_3   0.019255 0.793474 0.039841 -0.839283
C40   C     C_2   0.336050 0.738248 0.452180 0.434289
C41   C     C_3   0.316177 0.230266 0.398422 0.016939
C42   C     C_3   0.356833 0.122365 0.395357 -0.643142
C43   C     C_2   0.201298 0.301062 0.556257 0.426384
C44   C     C_2   0.799715 0.315012 0.424961 0.447248
C45   C     C_R   0.030032 0.558587 0.509196 -0.062570
C46   C     C_R   0.059024 0.568893 0.383430 -0.141384
C47   C     C_R   0.026986 0.587837 0.260495 0.487586
C48   C     C_R   0.967334 0.586167 0.263535 -0.216737
C49   C     C_R   0.120793 0.539922 0.629800 0.606943
Cu1   Cu    Cu3+1 0.500010 0.500020 0.638630 0.979312
Cu2   Cu    Cu3+1 0.499990 0.499980 0.361370 0.991270
H1    H     H_    0.951250 0.523361 0.856415 0.199057
H2    H     H_    0.221414 0.719312 0.463923 0.187576
H3    H     H_    0.628903 0.249858 0.579237 0.157055
H4    H     H_    0.704712 0.229739 0.610239 0.157134
H5    H     H_    0.708619 0.063046 0.444593 0.252209
H6    H     H_    0.652089 0.032580 0.564424 0.225338
H7    H     H_    0.635281 0.087063 0.393202 0.247866
H8    H     H_    0.826949 0.766683 0.591129 0.065884
H9    H     H_    0.566369 0.931035 0.190492 0.063513
H10   H     H_    0.511626 0.693878 0.884224 0.028121
H11   H     H_    0.418749 0.331547 0.229317 0.121818
H12   H     H_    0.669006 0.694354 0.579743 0.199808
H13   H     H_    0.105339 0.727318 0.045145 0.212356
H14   H     H_    0.080470 0.774435 0.208806 0.134360
H15   H     H_    0.982449 0.804229 0.109101 0.247268
H16   H     H_    0.034252 0.886123 0.009381 0.237373
H17   H     H_    0.005324 0.742929 0.946339 0.259481
H18   H     H_    0.382229 0.736002 0.453419 0.050746
H19   H     H_    0.326143 0.291603 0.310294 0.151891
H20   H     H_    0.272136 0.194042 0.383987 0.167088
H21   H     H_    0.350685 0.063375 0.486901 0.277223
H22   H     H_    0.349125 0.067452 0.300930 0.242203
H23   H     H_    0.477349 0.909813 0.577300 0.141040
H24   H     H_    0.401264 0.156505 0.395015 0.221983
H25   H     H_    0.221912 0.222968 0.604710 0.115510
H26   H     H_    0.780039 0.241000 0.366707 0.115243
H27   H     H_    0.516943 0.112697 0.291273 0.185572
H28   H     H_    0.512471 0.092125 0.605928 0.163700
H29   H     H_    0.490923 0.314138 0.877453 0.180364
H30   H     H_    0.054837 0.524538 0.854304 0.225189
H31   H     H_    0.531273 0.551116 0.111009 0.200420
H32   H     H_    0.943805 0.595461 0.167554 0.204805
N1    N     N_R   0.851320 0.548532 0.512397 -0.449689
N2    N     N_R   0.148195 0.542359 0.506807 -0.438845
N3    N     N_2   0.499380 0.498660 0.846910 -0.269564
N4    N     N_2   0.499370 0.498630 0.153040 -0.314780
O1    O     O_R   0.500010 0.321960 0.617040 -0.587408
O2    O     O_R   0.582130 0.500060 0.617050 -0.606586
O3    O     O_R   0.582110 0.500020 0.382900 -0.526234
O4    O     O_2   0.847828 0.580857 0.273632 -0.521197
O5    O     O_3   0.679660 0.303571 0.417521 -0.593688
O6    O     O_2   0.751297 0.837382 0.631346 -0.549231
O7    O     O_2   0.594215 0.796237 0.310858 -0.537072
O8    O     O_2   0.434918 0.633800 0.939600 -0.542562
O9    O     O_2   0.424775 0.228887 0.064015 -0.574098
O10   O     O_3   0.052946 0.600508 0.134577 -0.557191
O11   O     O_2   0.312577 0.836069 0.429599 -0.561297
O12   O     O_2   0.852742 0.520819 0.752012 -0.520328
O13   O     O_3   0.322007 0.291298 0.526070 -0.590525
O14   O     O_2   0.150744 0.292830 0.525630 -0.527064
O15   O     O_2   0.850051 0.305682 0.456977 -0.528355
O16   O     O_2   0.151287 0.530137 0.747851 -0.517235
O17   O     O_2   0.148016 0.558015 0.266655 -0.486228
O18   O     O_R   0.499990 0.321920 0.382900 -0.604845
O19   O     O_R   0.417890 0.499980 0.617100 -0.532127
O20   O     O_R   0.417870 0.499940 0.382950 -0.610983
O21   O     O_R   0.500010 0.678080 0.617100 -0.618089
O22   O     O_R   0.499990 0.678040 0.382960 -0.536502

loop_
_geom_bond_atom_site_label_1
_geom_bond_atom_site_label_2
_ccdc_geom_bond_type
C1    C21   S    
C11   C13   A    
C39   H17   S    
C8    C43   S    
C32   H7    S    
C37   H11   S    
C7    C8    A    
C45   C46   A    
C2    C46   A    
C12   C23   A    
C27   O12   S    
C42   H24   S    
C12   C28   A    
C30   C48   A    
C44   H26   S    
Cu2   O3    S    
C40   O11   D    
C38   C39   S    
C10   C17   A    
H31   N4    S    
C2    N2    A    
C27   N1    A    
C18   C19   D    
C41   C42   S    
C9    N2    S    
C11   O5    S    
C47   C48   A    
C8    C9    A    
C34   C49   A    
C18   C35   S    
Cu1   O1    S    
C41   H20   S    
C1    O1    A    
C33   H8    S    
C13   C14   A    
Cu1   O21   S    
C13   C25   S    
C32   H6    S    
C38   O10   S    
C12   H1    S    
C16   O22   A    
Cu1   Cu2   S    
C38   H13   S    
C4    O20   A    
C40   H18   S    
C10   C44   S    
C49   N2    A    
C4    C6    S    
C7    O13   S    
Cu2   N4    S    
C44   O15   D    
C36   N3    S    
C26   O4    S    
C4    O19   A    
C37   O9    D    
C29   C45   A    
C35   H9    S    
Cu1   N3    S    
C43   O14   D    
C29   C30   A    
C3    C9    A    
Cu1   O2    S    
C31   C32   S    
C38   H14   S    
C2    O17   S    
Cu2   O18   S    
C23   C34   A    
C21   H28   S    
C42   H21   S    
C24   C37   S    
C25   O3    A    
C41   O13   S    
C34   C45   A    
Cu2   O20   S    
C26   C30   A    
C39   H15   S    
C22   C24   S    
C36   H10   S    
C35   O7    D    
C43   H25   S    
C15   C17   A    
C46   C47   A    
C28   C29   A    
C42   H22   S    
C26   N1    A    
C23   H30   S    
C39   H16   S    
C19   H23   S    
C3    C5    A    
C33   O6    D    
C49   O16   S    
C6    C7    A    
C25   O2    A    
C47   O10   S    
C48   H32   S    
C20   H27   S    
C17   N1    S    
C22   H29   S    
C3    H2    S    
C36   O8    D    
C5    C6    A    
C16   C19   S    
C14   H12   S    
C15   C33   S    
C18   C20   S    
C22   N3    D    
C31   H3    S    
C24   N4    D    
C10   C11   A    
C16   O21   A    
C20   C21   D    
Cu2   O22   S    
C31   O5    S    
C5    C40   S    
C27   C28   A    
Cu1   O19   S    
C14   C15   A    
C31   H4    S    
C32   H5    S    
C1    O18   A    
C41   H19   S    
