data_mof_unit_62124.cif
_audit_creation_date              2012-12-10T17:00:10-0500
_audit_creation_method            fapswitch 2.2
_symmetry_space_group_name_H-M    P1
_symmetry_Int_Tables_number       1
_space_group_crystal_system       triclinic
_cell_length_a                    13.161141
_cell_length_b                    13.154851
_cell_length_c                    16.056762
_cell_angle_alpha                 80.206699
_cell_angle_beta                  100.437985
_cell_angle_gamma                 91.051192
_cell_volume                      2693.88638277

loop_
_atom_site_label
_atom_site_type_symbol
_atom_type_description
_atom_site_fract_x
_atom_site_fract_y
_atom_site_fract_z
_atom_type_partial_charge
C1    C     C_R   0.464144 0.777825 0.467641 0.520371
C2    C     C_2   0.054987 0.517922 0.493530 -0.146677
C3    C     C_2   0.888094 0.552017 0.530062 -0.100624
C4    C     C_R   0.536383 0.222842 0.531668 0.505267
C5    C     C_2   0.944469 0.499060 0.490254 -0.147429
C6    C     C_R   0.777062 0.533848 0.524086 0.516062
C7    C     C_R   0.223268 0.466158 0.475172 0.512208
C8    C     C_R   0.515679 0.487660 0.727017 0.508347
C9    C     C_R   0.484024 0.512403 0.273018 0.513343
C10   C     C_1   0.521740 0.482692 0.817716 0.027193
C11   C     C_2   0.532836 0.473671 0.985013 -0.111802
C12   C     C_1   0.471874 0.521723 0.105981 -0.030200
C13   C     C_2   0.465649 0.526566 0.014886 -0.113940
C14   C     C_1   0.514151 0.117423 0.386393 0.272843
C15   C     C_1   0.556835 0.053234 0.629199 0.191677
C16   C     C_1   0.526784 0.478574 0.893930 -0.032414
C17   C     C_1   0.477278 0.517566 0.182233 0.031855
C18   C     C_2   0.545685 0.110222 0.542329 -0.026855
C19   C     C_2   0.532407 0.060918 0.473749 -0.053553
C20   C     C_2   0.456032 0.891697 0.449768 0.105657
C21   C     C_2   0.533551 0.947008 0.486556 -0.108921
C22   C     C_2   0.112419 0.452364 0.466399 -0.077584
H1    H     H_    0.405431 0.574024 0.971001 0.141904
H2    H     H_    0.079022 0.383594 0.443898 0.099350
H3    H     H_    0.593057 0.426234 0.028916 0.145885
H4    H     H_    0.598343 0.907879 0.531640 0.139819
H5    H     H_    0.908959 0.439793 0.455211 0.164726
H6    H     H_    0.090368 0.583401 0.520421 0.134134
H7    H     H_    0.923702 0.610112 0.566302 0.113359
H8    H     H_    0.316520 0.889299 0.368219 0.253970
H9    H     H_    0.327305 0.980174 0.430401 0.226706
N1    N     N_1   0.499576 0.162460 0.316744 -0.265781
N2    N     N_3   0.367333 0.943030 0.393292 -0.607759
N3    N     N_1   0.565716 0.007766 0.698521 -0.275553
O1    O     O_3   0.500000 0.500000 0.500000 -0.445272
O2    O     O_R   0.564890 0.556920 0.685230 -0.531797
O3    O     O_R   0.419250 0.562810 0.301190 -0.534650
O4    O     O_R   0.461010 0.422870 0.688230 -0.531814
O5    O     O_R   0.554850 0.457400 0.325340 -0.527294
O6    O     O_R   0.732880 0.470090 0.478000 -0.539309
O7    O     O_R   0.260330 0.535210 0.424090 -0.531464
O8    O     O_R   0.533020 0.732860 0.528350 -0.549615
O9    O     O_R   0.473780 0.261850 0.569570 -0.530110
O10   O     O_R   0.406490 0.723840 0.419860 -0.538949
O11   O     O_R   0.586720 0.281460 0.482230 -0.531469
O12   O     O_R   0.723810 0.584530 0.562340 -0.535513
O13   O     O_R   0.282980 0.410180 0.535580 -0.531259
Zn1   Zn    Zn3+2 0.592010 0.428480 0.447310 0.961893
Zn2   Zn    Zn3+2 0.579060 0.591980 0.567800 0.952801
Zn3   Zn    Zn3+2 0.430650 0.400450 0.572090 0.963666
Zn4   Zn    Zn3+2 0.398290 0.579090 0.412800 0.954570

loop_
_geom_bond_atom_site_label_1
_geom_bond_atom_site_label_2
_ccdc_geom_bond_type
C12   C17   T    
C2    C22   D    
C15   C18   S    
C21   H4    S    
H9    N2    S    
O9    Zn3   S    
O1    Zn2   S    
O4    Zn3   S    
C4    O9    A    
C7    C22   S    
C6    O12   A    
C11   C16   S    
C15   N3    T    
C3    C6    S    
C4    C18   S    
O1    Zn3   S    
C9    O3    A    
C10   C16   T    
C12   C13   S    
C11   C13   D    
O12   Zn2   S    
C8    O4    A    
O1    Zn1   S    
O10   Zn4   S    
C9    C17   S    
C19   C21   S    
O13   Zn3   S    
C22   H2    S    
C4    O11   A    
C7    O7    A    
O1    Zn4   S    
O3    Zn4   S    
C6    O6    A    
C2    C5    S    
C20   N2    S    
O8    Zn2   S    
C11   H3    S    
C1    O8    A    
C9    O5    A    
C20   C21   D    
C13   H1    S    
C8    C10   S    
C18   C19   D    
C8    O2    A    
O11   Zn1   S    
C3    H7    S    
O6    Zn1   S    
C1    C20   S    
C2    H6    S    
C1    O10   A    
H8    N2    S    
C5    H5    S    
C14   C19   S    
O7    Zn4   S    
O2    Zn2   S    
C14   N1    T    
O5    Zn1   S    
C3    C5    D    
C7    O13   A    
