data_mof_unit_65499.cif
_audit_creation_date              2012-12-10T20:59:16-0500
_audit_creation_method            fapswitch 2.2
_symmetry_space_group_name_H-M    P1
_symmetry_Int_Tables_number       1
_space_group_crystal_system       triclinic
_cell_length_a                    22.229258
_cell_length_b                    22.238172
_cell_length_c                    22.230801
_cell_angle_alpha                 110.033562
_cell_angle_beta                  108.393105
_cell_angle_gamma                 109.978241
_cell_volume                      8458.98870926

loop_
_atom_site_label
_atom_site_type_symbol
_atom_type_description
_atom_site_fract_x
_atom_site_fract_y
_atom_site_fract_z
_atom_type_partial_charge
C1    C     C_R   0.900374 0.500013 0.599567 0.822225
C2    C     C_1   0.360725 0.221456 0.860681 -0.095819
C3    C     C_3   0.212916 0.926825 0.712978 0.298064
C4    C     C_3   0.209710 0.042653 0.720184 0.132641
C5    C     C_3   0.285568 0.073113 0.786107 0.267998
C6    C     C_3   0.273592 0.042849 0.837236 -0.359740
C7    C     C_3   0.230194 0.956878 0.794011 -0.392005
C8    C     C_1   0.327065 0.154704 0.827155 -0.057028
C9    C     C_1   0.172471 0.845299 0.672364 -0.107173
C10   C     C_1   0.139206 0.778549 0.639116 -0.141419
C11   C     C_3   0.280705 0.578637 0.324296 0.394464
C12   C     C_R   0.099570 0.499856 0.400411 0.832730
C13   C     C_3   0.161532 0.476624 0.204464 0.401975
C14   C     C_3   0.205824 0.477689 0.162424 -0.427785
C15   C     C_1   0.360485 0.500554 0.139143 -0.150293
C16   C     C_3   0.212036 0.500309 0.285270 0.188449
C17   C     C_3   0.322287 0.579160 0.279606 -0.463895
C18   C     C_3   0.285746 0.500775 0.212781 0.240123
C19   C     C_3   0.283627 0.445497 0.240763 -0.440640
C20   C     C_3   0.239490 0.444477 0.282589 -0.579581
C21   C     C_1   0.326863 0.500793 0.172311 -0.074863
C22   C     C_1   0.171735 0.499640 0.326560 -0.012154
C23   C     C_R   0.140363 0.499091 0.639289 0.799984
C24   C     C_1   0.138942 0.499741 0.360487 -0.107501
C25   C     C_R   0.739221 0.246877 0.173411 -0.126175
C26   C     C_R   0.744730 0.313567 0.179765 -0.066441
C27   C     C_R   0.734240 0.357820 0.233397 0.180210
C28   C     C_R   0.718647 0.334742 0.280800 -0.134412
C29   C     C_R   0.713285 0.268051 0.274304 -0.139283
C30   C     C_R   0.723406 0.224091 0.220557 -0.092673
C31   C     C_R   0.688059 0.430245 0.188005 0.210950
C32   C     C_R   0.695501 0.498717 0.196087 -0.120097
C33   C     C_R   0.755515 0.566275 0.258696 -0.040457
C34   C     C_R   0.859223 0.499407 0.359748 0.811016
C35   C     C_R   0.806879 0.564529 0.312487 -0.248078
C36   C     C_R   0.801299 0.497290 0.303668 -0.090714
C37   C     C_R   0.741847 0.429471 0.241374 -0.074496
C38   C     C_R   0.774190 0.658538 0.215767 -0.143811
C39   C     C_R   0.784185 0.727222 0.224691 -0.133388
C40   C     C_R   0.788173 0.777667 0.286455 -0.095074
C41   C     C_R   0.782347 0.759663 0.339498 -0.133565
C42   C     C_R   0.772182 0.690973 0.330736 -0.134716
C43   C     C_R   0.767396 0.639598 0.268449 0.151231
C44   C     C_3   0.805231 0.579986 0.762291 -0.388339
C45   C     C_R   0.900337 0.300817 0.400364 0.830196
C46   C     C_3   0.806454 0.467670 0.763386 -0.390148
C47   C     C_3   0.763446 0.467658 0.806431 -0.388089
C48   C     C_1   0.639282 0.499957 0.860725 -0.141319
C49   C     C_3   0.786465 0.499977 0.713375 0.350332
C50   C     C_3   0.762221 0.579973 0.805335 -0.391422
C51   C     C_3   0.713388 0.499956 0.786513 0.350815
C52   C     C_3   0.659591 0.452254 0.702630 -0.391320
C53   C     C_3   0.702602 0.452265 0.659585 -0.391548
C54   C     C_1   0.672644 0.499950 0.827310 -0.130533
C55   C     C_1   0.827234 0.499992 0.672600 -0.129357
C56   C     C_R   0.099550 0.699184 0.599565 0.820301
C57   C     C_1   0.860642 0.500006 0.639230 -0.142781
C58   C     C_3   0.826748 0.043338 0.327138 -0.378194
C59   C     C_3   0.778070 0.043048 0.208334 -0.392192
C60   C     C_3   0.735156 0.957007 0.165419 -0.386470
C61   C     C_1   0.639327 0.778651 0.139362 -0.143175
C62   C     C_3   0.785949 0.073225 0.286100 0.351601
C63   C     C_3   0.783999 0.957374 0.284209 -0.401169
C64   C     C_3   0.713146 0.927022 0.213220 0.354506
C65   C     C_3   0.665237 0.957042 0.235002 -0.386209
C66   C     C_3   0.708038 0.043083 0.277795 -0.394735
C67   C     C_3   0.166710 0.956432 0.677981 -0.406940
C68   C     C_1   0.672590 0.845438 0.172638 -0.138005
C69   C     C_1   0.826747 0.154730 0.326933 -0.141738
C70   C     C_1   0.860364 0.221472 0.360525 -0.145424
C71   C     C_R   0.265263 0.486744 0.519822 0.482843
C72   C     C_R   0.244320 0.475368 0.570334 -0.329437
C73   C     C_R   0.284958 0.530162 0.644989 0.094684
C74   C     C_R   0.345424 0.597500 0.668641 -0.226075
C75   C     C_R   0.364829 0.610194 0.618467 -0.326170
C76   C     C_R   0.325643 0.554652 0.544048 0.487471
C77   C     C_R   0.318865 0.518720 0.755585 -0.258275
C78   C     C_3   0.286303 0.957134 0.711848 -0.396179
C79   C     C_R   0.303491 0.502362 0.806248 -0.054163
C80   C     C_R   0.234299 0.484900 0.801934 0.002047
C81   C     C_R   0.181267 0.482023 0.745136 -0.259072
C82   C     C_R   0.196608 0.498216 0.694288 -0.055133
C83   C     C_R   0.266102 0.516400 0.699133 0.050062
C84   C     C_R   0.156270 0.406345 0.835755 -0.134951
C85   C     C_R   0.140008 0.394865 0.888102 -0.125941
C86   C     C_R   0.183649 0.449804 0.962274 -0.096767
C87   C     C_R   0.243451 0.516500 0.984242 -0.120108
C88   C     C_R   0.259908 0.528251 0.932093 -0.129821
C89   C     C_3   0.329153 0.043145 0.755040 -0.464465
C90   C     C_R   0.216778 0.472909 0.857439 0.137995
C91   C     C_R   0.639672 0.499334 0.140234 0.851517
C92   C     C_R   0.359648 0.501015 0.860832 0.791896
C93   C     C_R   0.400340 0.500140 0.099579 0.822453
C94   C     C_R   0.599607 0.499983 0.900439 0.815711
C95   C     C_R   0.599648 0.699226 0.099648 0.821802
C96   C     C_R   0.400436 0.300817 0.900445 0.832146
H1    H     H_    0.219049 0.061531 0.681925 0.121516
H2    H     H_    0.113699 0.934988 0.678208 0.209078
H3    H     H_    0.327606 0.062952 0.883543 0.171074
H4    H     H_    0.322820 0.619304 0.260308 0.200351
H5    H     H_    0.116737 0.417808 0.176602 0.031900
H6    H     H_    0.206257 0.516633 0.141485 0.193941
H7    H     H_    0.178401 0.421651 0.113585 0.127488
H8    H     H_    0.274941 0.458957 0.339288 0.234601
H9    H     H_    0.153161 0.935243 0.619499 0.149246
H10   H     H_    0.192159 0.387503 0.255163 0.196553
H11   H     H_    0.340520 0.461547 0.277902 0.188538
H12   H     H_    0.317504 0.588603 0.378547 0.097686
H13   H     H_    0.380535 0.598173 0.315926 0.136724
H14   H     H_    0.257922 0.388779 0.193666 0.194162
H15   H     H_    0.719163 0.172476 0.215551 0.116186
H16   H     H_    0.747363 0.212927 0.132038 0.121971
H17   H     H_    0.757496 0.330965 0.143282 0.130752
H18   H     H_    0.710927 0.368510 0.322773 0.113804
H19   H     H_    0.701430 0.250499 0.311013 0.120048
H20   H     H_    0.320531 0.936565 0.736693 0.179966
H21   H     H_    0.853378 0.616229 0.360296 0.159939
H22   H     H_    0.771489 0.620042 0.167784 0.102837
H23   H     H_    0.788811 0.741344 0.183726 0.116230
H24   H     H_    0.795948 0.830747 0.293308 0.115502
H25   H     H_    0.785553 0.798888 0.387346 0.129623
H26   H     H_    0.767230 0.677480 0.371995 0.130802
H27   H     H_    0.801627 0.615472 0.865352 0.165568
H28   H     H_    0.865232 0.615490 0.801697 0.166370
H29   H     H_    0.793292 0.410019 0.729572 0.168181
H30   H     H_    0.275366 0.936684 0.654154 0.171288
H31   H     H_    0.866479 0.501100 0.802813 0.167220
H32   H     H_    0.802877 0.501081 0.866469 0.167239
H33   H     H_    0.729690 0.410001 0.793228 0.169041
H34   H     H_    0.686658 0.474427 0.623081 0.166836
H35   H     H_    0.687522 0.394330 0.623854 0.165572
H36   H     H_    0.623053 0.474412 0.686738 0.165482
H37   H     H_    0.791173 0.604496 0.727675 0.169138
H38   H     H_    0.727567 0.604476 0.791328 0.167666
H39   H     H_    0.623914 0.394313 0.687509 0.166160
H40   H     H_    0.819716 0.937052 0.270074 0.160023
H41   H     H_    0.339086 0.063868 0.718113 0.169161
H42   H     H_    0.882952 0.064069 0.333758 0.164935
H43   H     H_    0.748710 0.063536 0.177483 0.160444
H44   H     H_    0.833333 0.063662 0.212655 0.166366
H45   H     H_    0.769831 0.936432 0.149097 0.164672
H46   H     H_    0.685183 0.936312 0.114088 0.167351
H47   H     H_    0.712038 0.063823 0.332929 0.167343
H48   H     H_    0.677326 0.063482 0.248141 0.160568
H49   H     H_    0.648867 0.936596 0.269707 0.166275
H50   H     H_    0.832871 0.063925 0.383161 0.169414
H51   H     H_    0.769793 0.936859 0.319765 0.164188
H52   H     H_    0.383815 0.063701 0.800667 0.193877
H53   H     H_    0.613954 0.936242 0.184924 0.165206
H54   H     H_    0.196538 0.424005 0.551632 0.132262
H55   H     H_    0.377037 0.640592 0.725942 0.164349
H56   H     H_    0.410444 0.663285 0.637591 0.166354
H57   H     H_    0.371651 0.530961 0.758482 0.163815
H58   H     H_    0.128508 0.469813 0.742279 0.162735
H59   H     H_    0.122225 0.363157 0.778498 0.134456
H60   H     H_    0.093610 0.343302 0.871166 0.134677
H61   H     H_    0.178228 0.936567 0.796366 0.182668
H62   H     H_    0.171013 0.440725 0.002654 0.116127
H63   H     H_    0.277094 0.559056 0.041697 0.116585
H64   H     H_    0.306292 0.580276 0.949814 0.098595
H65   H     H_    0.262924 0.935975 0.820434 0.169241
H66   H     H_    0.243436 0.063817 0.861844 0.209886
O1    O     O_3   0.000000 0.500000 0.500000 -0.479740
O2    O     O_R   0.158790 0.542980 0.615810 -0.627687
O3    O     O_R   0.884180 0.543000 0.427180 -0.643797
O4    O     O_R   0.926880 0.457030 0.590850 -0.639973
O5    O     O_R   0.030150 0.456990 0.366160 -0.650660
O6    O     O_3   0.499990 0.500000 0.000010 -0.488844
O7    O     O_R   0.615810 0.457000 0.072830 -0.605346
O8    O     O_R   0.341200 0.457020 0.884200 -0.627368
O9    O     O_R   0.469840 0.543010 0.133850 -0.638686
O10   O     O_R   0.573110 0.542970 0.909170 -0.641451
O11   O     O_R   0.590800 0.663980 0.133850 -0.630282
O12   O     O_R   0.909130 0.543010 0.573110 -0.637188
O13   O     O_R   0.469890 0.336020 0.926900 -0.621154
O14   O     O_R   0.573080 0.663970 0.030140 -0.642432
O15   O     O_R   0.366170 0.336040 0.909160 -0.624400
O16   O     O_R   0.366140 0.457030 0.030130 -0.625310
O17   O     O_R   0.590860 0.456990 0.926900 -0.638316
O18   O     O_R   0.615780 0.542990 0.158810 -0.635040
O19   O     O_R   0.427160 0.542990 0.884210 -0.649872
O20   O     O_R   0.133840 0.542970 0.469880 -0.630836
O21   O     O_R   0.072820 0.457010 0.615810 -0.647788
O22   O     O_R   0.884200 0.457010 0.341200 -0.639144
O23   O     O_R   0.926910 0.336030 0.469870 -0.640207
O24   O     O_R   0.030090 0.663980 0.573120 -0.637785
O25   O     O_R   0.909180 0.336020 0.366160 -0.630095
O26   O     O_R   0.133810 0.663960 0.590860 -0.639039
Zn1   Zn    Zn3+2 0.104790 0.561410 0.543380 0.981118
Zn2   Zn    Zn3+2 0.981970 0.438590 0.543380 0.965870
Zn3   Zn    Zn3+2 0.956640 0.438570 0.395200 0.971281
Zn4   Zn    Zn3+2 0.956600 0.561430 0.518040 0.967158
Zn5   Zn    Zn3+2 0.395190 0.438590 0.956630 0.999180
Zn6   Zn    Zn3+2 0.543350 0.561430 0.104810 0.984193
Zn7   Zn    Zn3+2 0.518020 0.561410 0.956640 0.955706
Zn8   Zn    Zn3+2 0.543380 0.438570 0.981970 1.004705
Br1   Br    Br    0.150735 0.081140 0.750225 -0.557815
O27   O     O_3   0.259097 0.632862 0.331797 -0.592308
C97   C     C_3   0.310407 0.700042 0.399270 0.058005
H67   H     H_    0.307468 0.745789 0.391234 0.170932
H68   H     H_    0.368162 0.712560 0.416631 0.109771
C98   C     C_3   0.290444 0.699084 0.459109 -0.333664
H69   H     H_    0.234598 0.691807 0.442343 0.226580
H70   H     H_    0.289743 0.651854 0.466145 0.256013
C99   C     C_3   0.345220 0.770713 0.532608 -0.959117
H71   H     H_    0.401156 0.778073 0.551077 0.259640
H72   H     H_    0.329048 0.768272 0.574525 0.273358
H73   H     H_    0.345988 0.819000 0.527720 0.259429
O28   O     O_3   0.134573 0.525989 0.203255 -0.593510
C100  C     C_3   0.058321 0.491988 0.178932 0.101629
H74   H     H_    0.046289 0.536650 0.201455 0.172151
H75   H     H_    0.040749 0.454499 0.200393 0.118100
C101  C     C_3   0.014202 0.450906 0.094896 -0.387138
H76   H     H_    0.031461 0.490187 0.075343 0.233802
H77   H     H_    0.025200 0.405755 0.071010 0.208411
C102  C     C_3   0.931964 0.417488 0.067917 -0.946003
H78   H     H_    0.913358 0.377208 0.086020 0.264122
H79   H     H_    0.901500 0.388060 0.006978 0.265301
H80   H     H_    0.919222 0.461776 0.089607 0.264242
Br2   Br    Br    0.601133 0.337147 0.108126 -0.528722
O29   O     O_3   0.342955 0.567206 0.493260 -0.661676
C103  C     C_3   0.413986 0.578360 0.508247 0.035552
H81   H     H_    0.408327 0.536787 0.458241 0.152808
H82   H     H_    0.441163 0.570146 0.554053 0.122681
C104  C     C_3   0.463344 0.655869 0.524237 -0.338248
H83   H     H_    0.438570 0.662375 0.476746 0.209844
H84   H     H_    0.468487 0.698505 0.573042 0.216171
C105  C     C_3   0.539722 0.669023 0.538411 -0.964004
H85   H     H_    0.566589 0.664551 0.586844 0.263592
H86   H     H_    0.574008 0.725467 0.549500 0.264687
H87   H     H_    0.536062 0.627857 0.489623 0.263209
O30   O     O_3   0.224652 0.434257 0.445576 -0.645619
C106  C     C_3   0.228042 0.368885 0.433012 0.058195
H88   H     H_    0.183609 0.324512 0.376315 0.168489
H89   H     H_    0.216967 0.348834 0.469971 0.125317
C107  C     C_3   0.301772 0.378972 0.438366 -0.364102
H90   H     H_    0.311387 0.397609 0.400209 0.224024
H91   H     H_    0.347144 0.421794 0.495156 0.198375
C108  C     C_3   0.302916 0.306736 0.418871 -0.959028
H92   H     H_    0.294544 0.287491 0.457088 0.263573
H93   H     H_    0.356887 0.315865 0.423468 0.263442
H94   H     H_    0.259144 0.263219 0.361631 0.263383

loop_
_geom_bond_atom_site_label_1
_geom_bond_atom_site_label_2
_ccdc_geom_bond_type
C44   C49   S    
C58   C62   S    
C89   H52   S    
C59   C60   S    
C87   C88   A    
C40   C41   A    
C23   C82   S    
C18   C21   S    
C41   C42   A    
C14   C18   S    
C46   H29   S    
C35   C36   A    
C102  H80   S    
C95   O14   A    
O3    Zn4   S    
C12   O5    A    
C105  H86   S    
C81   C82   A    
O18   Zn6   S    
O23   Zn2   S    
C99   H71   S    
C48   C54   T    
C7    H65   S    
C46   C49   S    
C26   C27   A    
C29   C30   A    
C98   H70   S    
C47   H33   S    
C5    C6    S    
C64   C68   S    
C36   C37   A    
C96   O13   A    
C108  H92   S    
C102  H79   S    
C31   Br2   S    
C3    C7    S    
C92   O19   A    
C71   C76   A    
C84   H59   S    
C49   C53   S    
C19   H14   S    
C32   C91   S    
C66   H48   S    
C77   C83   A    
C107  H91   S    
C44   H37   S    
C104  C105  S    
C107  H90   S    
C18   C19   S    
C73   C74   A    
C6    H3    S    
C41   H25   S    
C67   H2    S    
C60   H46   S    
C12   O20   A    
C6    H66   S    
C92   O8    A    
C98   C99   S    
C97   C98   S    
C71   O30   S    
C34   O22   A    
O27   C97   S    
C53   H35   S    
O20   Zn1   S    
C96   O15   A    
O1    Zn2   S    
C34   O3    A    
C10   C56   S    
C106  H88   S    
O25   Zn3   S    
C25   H16   S    
C79   C80   A    
C72   C73   A    
C94   O10   A    
C58   H42   S    
C99   H72   S    
C29   H19   S    
C97   H67   S    
O6    Zn6   S    
C4    H1    S    
O24   Zn4   S    
C103  H81   S    
C84   C90   A    
O9    Zn6   S    
C63   H51   S    
C105  H85   S    
C106  C107  S    
O28   C100  S    
O7    Zn8   S    
C20   H10   S    
O17   Zn8   S    
C101  H77   S    
C78   C89   S    
C19   H11   S    
C104  H84   S    
O16   Zn5   S    
C78   H20   S    
C1    O12   A    
O22   Zn3   S    
C98   H69   S    
C91   O7    A    
C51   C52   S    
C52   H36   S    
C101  H76   S    
C56   O26   A    
C46   H31   S    
C47   H32   S    
O6    Zn7   S    
C102  H78   S    
O1    Zn1   S    
C74   C75   A    
C39   C40   A    
C62   C66   S    
C86   C87   A    
C45   O25   A    
C47   C51   S    
C66   H47   S    
C103  C104  S    
C50   C51   S    
C25   C26   A    
C85   C86   A    
C44   H28   S    
C81   H58   S    
C31   C37   A    
C62   C69   S    
C17   H13   S    
O26   Zn1   S    
O4    Zn2   S    
C85   H60   S    
C33   C43   S    
C75   C76   A    
C23   O21   A    
O29   C103  S    
C3    C9    S    
C13   O28   S    
C60   H45   S    
C4    C67   S    
C86   H62   S    
C11   C16   S    
C31   C32   A    
C59   H43   S    
C75   H56   S    
C16   C20   S    
C91   O18   A    
C61   C95   S    
C17   C18   S    
C77   C79   A    
C108  H93   S    
C84   C85   A    
C103  H82   S    
C106  H89   S    
C79   C92   S    
O1    Zn4   S    
C48   C94   S    
C20   H8    S    
C4    Br1   S    
C40   H24   S    
C56   O24   A    
C100  H74   S    
C100  H75   S    
O6    Zn5   S    
C55   C57   T    
C50   H38   S    
C22   C24   T    
C74   H55   S    
C35   H21   S    
C5    C8    S    
C42   C43   A    
C65   H49   S    
O2    Zn1   S    
C78   H30   S    
O21   Zn2   S    
O13   Zn8   S    
C11   H12   S    
C77   H57   S    
C52   C53   S    
C42   H26   S    
C23   O2    A    
C9    C10   T    
C99   H73   S    
C44   C50   S    
C25   C30   A    
C52   H39   S    
C101  C102  S    
C46   C47   S    
C28   C29   A    
C59   C62   S    
C16   C22   S    
C104  H83   S    
C45   C70   S    
C3    C67   S    
C50   H27   S    
C58   C63   S    
C88   C90   A    
C80   C81   A    
C11   C17   S    
C15   C93   S    
O8    Zn5   S    
C93   O16   A    
C58   H50   S    
C6    C7    S    
C7    H61   S    
C76   O29   S    
C100  C101  S    
O5    Zn3   S    
O15   Zn5   S    
C12   C24   S    
C89   H41   S    
C107  C108  S    
C30   H15   S    
C60   C64   S    
C51   C54   S    
C32   C33   A    
C19   C20   S    
C2    C96   S    
C95   O11   A    
C11   O27   S    
C38   C43   A    
C65   C66   S    
C49   C55   S    
O12   Zn4   S    
C63   H40   S    
C1    C57   S    
C61   C68   T    
C45   O23   A    
C14   H7    S    
C38   C39   A    
C59   H44   S    
C27   C37   S    
C39   H23   S    
C4    C5    S    
C28   H18   S    
C72   H54   S    
O30   C106  S    
C33   C35   A    
C87   H63   S    
C108  H94   S    
C34   C36   S    
C94   O17   A    
C88   H64   S    
O14   Zn7   S    
C80   C90   S    
C69   C70   T    
O19   Zn7   S    
C17   H4    S    
C26   H17   S    
C14   H6    S    
C64   C65   S    
C63   C64   S    
C38   H22   S    
C15   C21   T    
C71   C72   A    
C67   H9    S    
C82   C83   A    
O6    Zn8   S    
C13   C16   S    
C2    C8    T    
O11   Zn6   S    
C97   H68   S    
C65   H53   S    
O10   Zn7   S    
O1    Zn3   S    
C53   H34   S    
C13   C14   S    
C3    C78   S    
C13   H5    S    
C73   C83   S    
C105  H87   S    
C5    C89   S    
C1    O4    A    
C27   C28   A    
C93   O9    A    
