data_mof_unit_61236.cif
_audit_creation_date              2012-12-10T20:20:39-0500
_audit_creation_method            fapswitch 2.2
_symmetry_space_group_name_H-M    P1
_symmetry_Int_Tables_number       1
_space_group_crystal_system       triclinic
_cell_length_a                    41.492741
_cell_length_b                    35.521402
_cell_length_c                    21.350145
_cell_angle_alpha                 89.893404
_cell_angle_beta                  58.805558
_cell_angle_gamma                 89.980009
_cell_volume                      26917.7528014

loop_
_atom_site_label
_atom_site_type_symbol
_atom_type_description
_atom_site_fract_x
_atom_site_fract_y
_atom_site_fract_z
_atom_type_partial_charge
C1    C     C_R   0.926637 0.499983 0.073485 1.049623
C2    C     C_R   0.325852 0.521865 0.717898 -0.227409
C3    C     C_R   0.999671 0.806795 0.500944 0.012478
C4    C     C_1   0.499903 0.266682 0.501021 0.135308
C5    C     C_1   0.999666 0.766716 0.501148 0.135214
C6    C     C_1   0.999731 0.733120 0.501206 0.172184
C7    C     C_1   0.499934 0.233080 0.501086 0.172741
C8    C     C_R   0.970562 0.673463 0.560173 0.390920
C9    C     C_R   0.029428 0.673827 0.441872 0.390019
C10   C     C_R   0.471363 0.173439 0.561227 0.390573
C11   C     C_R   0.528628 0.173738 0.440338 0.388496
C12   C     C_R   0.971519 0.634089 0.561500 0.351139
C13   C     C_R   0.174309 0.020319 0.280384 -0.227474
C14   C     C_R   0.028731 0.634462 0.439971 0.351181
C15   C     C_R   0.472259 0.134051 0.562351 0.350157
C16   C     C_R   0.527709 0.134370 0.438524 0.349166
C17   C     C_R   0.000082 0.614473 0.500466 -0.400946
C18   C     C_R   0.500001 0.114431 0.500277 -0.401621
C19   C     C_3   0.984099 0.531945 0.285703 0.312154
C20   C     C_3   0.023392 0.527296 0.706484 0.311152
C21   C     C_3   0.472965 0.023480 0.297131 0.315012
C22   C     C_3   0.524502 0.026351 0.705375 0.310279
C23   C     C_R   0.999894 0.693049 0.501084 -0.269438
C24   C     C_R   0.825872 0.021847 0.717992 -0.228076
C25   C     C_R   0.500000 0.193001 0.500944 -0.268506
C26   C     C_R   0.477581 0.673666 0.478062 0.296176
C27   C     C_R   0.521412 0.674020 0.522314 0.298632
C28   C     C_R   0.977771 0.173682 0.477697 0.295922
C29   C     C_R   0.021550 0.174012 0.522071 0.298582
C30   C     C_R   0.477292 0.633864 0.479103 0.257876
C31   C     C_R   0.521301 0.634218 0.523298 0.254253
C32   C     C_R   0.977399 0.133881 0.478904 0.257912
C33   C     C_R   0.021357 0.134211 0.523219 0.254143
C34   C     C_R   0.499996 0.614485 0.499773 -0.220732
C35   C     C_R   0.635167 0.522644 0.319805 0.457119
C36   C     C_R   0.000042 0.114487 0.499705 -0.220828
C37   C     C_R   0.498777 0.693043 0.501644 -0.092936
C38   C     C_R   0.998984 0.193049 0.501250 -0.092788
C39   C     C_1   0.498863 0.733249 0.501007 0.216887
C40   C     C_1   0.999132 0.233256 0.500489 0.216669
C41   C     C_1   0.999357 0.266910 0.499974 0.222479
C42   C     C_1   0.499065 0.766903 0.500544 0.224413
C43   C     C_R   0.981508 0.326531 0.469354 0.300344
C44   C     C_R   0.018085 0.326177 0.529647 0.300627
C45   C     C_R   0.480812 0.826526 0.470769 0.300584
C46   C     C_R   0.365019 0.523985 0.678517 0.456627
C47   C     C_R   0.518298 0.826162 0.529183 0.300956
C48   C     C_R   0.979654 0.366183 0.473558 0.307887
C49   C     C_R   0.020218 0.365828 0.525500 0.322346
C50   C     C_R   0.479074 0.866184 0.474808 0.330703
C51   C     C_R   0.520517 0.865806 0.524807 0.323190
C52   C     C_R   0.999960 0.385576 0.499646 -0.340707
C53   C     C_R   0.499898 0.885568 0.499769 -0.343709
C54   C     C_3   0.000414 0.500238 0.310939 -0.292320
C55   C     C_3   0.999577 0.500666 0.689051 -0.291716
C56   C     C_3   0.500345 0.000504 0.311050 -0.292591
C57   C     C_R   0.135168 0.022746 0.319796 0.457039
C58   C     C_3   0.499601 0.000725 0.689029 -0.291938
C59   C     C_R   0.999680 0.307099 0.499584 -0.128571
C60   C     C_R   0.499402 0.807091 0.500129 -0.131575
C61   C     C_3   0.981321 0.469966 0.289169 0.218288
C62   C     C_3   0.010493 0.466590 0.719221 0.212276
C63   C     C_3   0.494254 0.965214 0.276291 0.212167
C64   C     C_3   0.509162 0.966216 0.720495 0.211555
C65   C     C_3   0.017164 0.468218 0.212829 0.357446
C66   C     C_3   0.975394 0.473861 0.794936 0.361467
C67   C     C_3   0.527892 0.977365 0.201772 0.367195
C68   C     C_R   0.865036 0.023990 0.678540 0.456605
C69   C     C_3   0.474414 0.974872 0.795936 0.363110
C70   C     C_3   0.036155 0.498583 0.233933 0.237694
C71   C     C_3   0.964597 0.507969 0.765347 0.234782
C72   C     C_3   0.533892 0.012633 0.236023 0.234380
C73   C     C_3   0.464969 0.009402 0.765039 0.235289
C74   C     C_3   0.019895 0.529970 0.209342 0.240673
C75   C     C_3   0.988309 0.534290 0.782181 0.239132
C76   C     C_3   0.506676 0.035366 0.222703 0.237747
C77   C     C_3   0.489752 0.034729 0.780789 0.238502
C78   C     C_3   0.957965 0.589926 0.290928 -0.254920
C79   C     C_R   0.614411 0.501566 0.385406 -0.186786
C80   C     C_3   0.063701 0.576551 0.686705 -0.240841
C81   C     C_3   0.425837 0.066180 0.323251 -0.252256
C82   C     C_3   0.566889 0.073825 0.683590 -0.241090
C83   C     C_3   0.799766 0.467543 0.336805 -0.251188
C84   C     C_3   0.199804 0.416706 0.751705 -0.252453
C85   C     C_3   0.299904 0.973511 0.339761 -0.260902
C86   C     C_3   0.699822 0.916479 0.752687 -0.253385
C87   C     C_3   0.911515 0.696776 0.609421 -0.209184
C88   C     C_3   0.088191 0.697767 0.393827 -0.202127
C89   C     C_3   0.412199 0.196965 0.614588 -0.206713
C90   C     C_R   0.385618 0.501859 0.614469 -0.186261
C91   C     C_3   0.587805 0.197272 0.387081 -0.200331
C92   C     C_3   0.955745 0.608754 0.671283 -0.177823
C93   C     C_3   0.045856 0.609687 0.329218 -0.179935
C94   C     C_3   0.458200 0.108766 0.671165 -0.178152
C95   C     C_3   0.541311 0.110410 0.329232 -0.169634
C96   C     C_3   0.900972 0.501627 0.348610 -0.218236
C97   C     C_3   0.096354 0.477303 0.653815 -0.196173
C98   C     C_3   0.407856 0.963447 0.343021 -0.213518
C99   C     C_3   0.595363 0.973368 0.654516 -0.196041
C100  C     C_3   0.921820 0.385830 0.499840 -0.198423
C101  C     C_R   0.114431 0.001679 0.385424 -0.186685
C102  C     C_3   0.078124 0.385169 0.499345 -0.216574
C103  C     C_3   0.420999 0.885921 0.502601 -0.232706
C104  C     C_3   0.578745 0.885024 0.496902 -0.222196
C105  C     C_3   0.045745 0.411514 0.206298 -0.204780
C106  C     C_3   0.932086 0.427241 0.817455 -0.200402
C107  C     C_3   0.577790 0.937831 0.172321 -0.206287
C108  C     C_3   0.429042 0.930239 0.820647 -0.199314
C109  C     C_R   0.073341 0.500004 0.926640 1.050204
C110  C     C_R   0.885620 0.001863 0.614489 -0.186135
C111  C     C_R   0.633427 0.479956 0.411357 -0.353439
C112  C     C_R   0.366457 0.479598 0.589838 -0.355163
C113  C     C_R   0.133487 0.980240 0.411521 -0.353775
C114  C     C_R   0.866446 0.979583 0.589916 -0.355512
C115  C     C_R   0.672871 0.478254 0.372067 0.496266
C116  C     C_R   0.326995 0.478258 0.629013 0.496357
C117  C     C_R   0.172940 0.978700 0.372372 0.495864
C118  C     C_R   0.826984 0.978218 0.629166 0.496359
C119  C     C_R   0.692932 0.498328 0.306300 -0.028058
C120  C     C_R   0.426663 0.999988 0.073359 1.047528
C121  C     C_R   0.307054 0.499464 0.693210 -0.030115
C122  C     C_R   0.192986 0.998759 0.306580 -0.028279
C123  C     C_R   0.807059 0.999420 0.693375 -0.030031
C124  C     C_1   0.733022 0.498011 0.266096 0.073550
C125  C     C_1   0.266947 0.499196 0.733616 0.072250
C126  C     C_1   0.233089 0.998536 0.266428 0.073094
C127  C     C_1   0.766953 0.999129 0.733853 0.071763
C128  C     C_1   0.766673 0.498333 0.232748 0.189280
C129  C     C_1   0.233282 0.499225 0.767442 0.188077
C130  C     C_1   0.266748 0.998877 0.233067 0.188228
C131  C     C_R   0.573343 0.000001 0.926662 1.051634
C132  C     C_1   0.733289 0.999144 0.767717 0.187841
C133  C     C_R   0.825978 0.524143 0.134468 0.301375
C134  C     C_R   0.173846 0.523430 0.867958 0.299860
C135  C     C_R   0.326132 0.023152 0.132238 0.301339
C136  C     C_R   0.673843 0.023463 0.868024 0.300164
C137  C     C_R   0.000467 0.499955 0.121084 1.040059
C138  C     C_R   0.999621 0.500064 0.878814 1.039367
C139  C     C_R   0.500204 0.000012 0.121368 1.036167
C140  C     C_R   0.499691 0.000064 0.878742 1.040034
C141  C     C_R   0.865756 0.525723 0.096784 0.248594
C142  C     C_3   0.000724 0.499819 0.187876 -0.313222
C143  C     C_R   0.134039 0.524681 0.906003 0.248085
C144  C     C_R   0.365926 0.024619 0.094280 0.250178
C145  C     C_R   0.634039 0.024743 0.905972 0.253417
C146  C     C_R   0.885402 0.499853 0.114962 -0.233952
C147  C     C_R   0.114536 0.499851 0.885767 -0.236933
C148  C     C_R   0.385474 0.999910 0.114720 -0.236761
C149  C     C_R   0.614542 0.999828 0.885863 -0.233476
C150  C     C_R   0.865966 0.474069 0.172971 0.286594
C151  C     C_R   0.134029 0.475228 0.826011 0.273874
C152  C     C_R   0.366012 0.975521 0.175079 0.274495
C153  C     C_3   0.999355 0.500273 0.812007 -0.309522
C154  C     C_R   0.634049 0.975060 0.826352 0.271596
C155  C     C_R   0.826290 0.474856 0.214274 0.357561
C156  C     C_R   0.173709 0.474664 0.787364 0.354832
C157  C     C_R   0.326353 0.976673 0.216670 0.360081
C158  C     C_R   0.673727 0.974468 0.787797 0.355423
C159  C     C_R   0.806848 0.499243 0.193495 -0.143779
C160  C     C_R   0.193075 0.499316 0.807806 -0.138761
C161  C     C_R   0.306937 0.999734 0.193694 -0.143252
C162  C     C_R   0.693083 0.999226 0.808078 -0.139839
C163  C     C_R   0.000024 0.573312 0.500080 0.983088
C164  C     C_3   0.500405 0.000136 0.188241 -0.311194
C165  C     C_R   0.500007 0.073298 0.499973 0.984876
C166  C     C_R   0.000099 0.500107 0.378323 1.030944
C167  C     C_R   0.999899 0.500301 0.621670 1.033615
C168  C     C_R   0.500090 0.000251 0.378346 1.034933
C169  C     C_R   0.499902 0.000346 0.621667 1.033489
C170  C     C_R   0.999989 0.426669 0.499926 1.059076
C171  C     C_R   0.499981 0.926666 0.499942 1.066218
C172  C     C_R   0.500061 0.573196 0.499895 1.011638
C173  C     C_R   0.000064 0.073197 0.499890 1.011604
C174  C     C_R   0.573248 0.500719 0.426640 0.879761
C175  C     C_3   0.499451 0.000275 0.811910 -0.309033
C176  C     C_R   0.426762 0.500741 0.573333 0.878406
C177  C     C_R   0.073255 0.000733 0.426635 0.879776
C178  C     C_R   0.926762 0.000743 0.573335 0.878386
C179  C     C_3   0.964814 0.501522 0.264903 0.339338
C180  C     C_3   0.034492 0.492966 0.735637 0.331325
C181  C     C_3   0.466719 0.987911 0.263372 0.331945
C182  C     C_3   0.534235 0.991576 0.735827 0.331049
C183  C     C_R   0.499992 0.426572 0.500071 0.911763
C184  C     C_R   0.999980 0.926577 0.500079 0.911939
C185  C     C_R   0.499312 0.326157 0.558511 0.407709
C186  C     C_R   0.674293 0.520065 0.280262 -0.227113
C187  C     C_R   0.500507 0.326060 0.442847 0.407902
C188  C     C_R   0.999294 0.826163 0.558465 0.407694
C189  C     C_R   0.000147 0.826094 0.443132 0.407810
C190  C     C_R   0.499363 0.365588 0.557841 -0.309331
C191  C     C_R   0.500520 0.365496 0.443007 -0.309125
C192  C     C_R   0.999416 0.865591 0.557755 -0.309385
C193  C     C_R   0.000241 0.865525 0.443242 -0.309048
C194  C     C_R   0.499961 0.385328 0.500294 -0.119526
C195  C     C_R   0.999890 0.885340 0.500342 -0.119580
C196  C     C_R   0.499896 0.306770 0.500804 0.011781
H1    H     H_    0.498913 0.380753 0.602259 0.172070
H2    H     H_    0.382277 0.462790 0.540751 0.169241
H3    H     H_    0.043099 0.128745 0.584334 0.353962
H4    H     H_    0.959389 0.323190 0.408145 0.372527
H5    H     H_    0.040355 0.322280 0.590565 0.374939
H6    H     H_    0.457949 0.823161 0.410866 0.375268
H7    H     H_    0.541305 0.822269 0.588806 0.375138
H8    H     H_    0.909748 0.357114 0.506979 0.160742
H9    H     H_    0.907107 0.404440 0.480805 0.198319
H10   H     H_    0.915915 0.396746 0.553623 0.157332
H11   H     H_    0.090095 0.356384 0.491760 0.162556
H12   H     H_    0.092895 0.403448 0.518674 0.187235
H13   H     H_    0.117598 0.964242 0.461807 0.170345
H14   H     H_    0.084049 0.396505 0.445745 0.160950
H15   H     H_    0.408812 0.857248 0.509975 0.167447
H16   H     H_    0.406081 0.904637 0.484184 0.178658
H17   H     H_    0.415500 0.896763 0.556157 0.163423
H18   H     H_    0.590681 0.856212 0.489122 0.163766
H19   H     H_    0.593858 0.903289 0.515492 0.184570
H20   H     H_    0.584285 0.896310 0.443530 0.161038
H21   H     H_    0.953092 0.424691 0.304765 0.356530
H22   H     H_    0.025912 0.415543 0.716733 0.360888
H23   H     H_    0.486414 0.912441 0.271601 0.361870
H24   H     H_    0.882255 0.962774 0.540827 0.169094
H25   H     H_    0.522401 0.914545 0.720060 0.361283
H26   H     H_    0.021117 0.399858 0.256683 0.202784
H27   H     H_    0.065510 0.425361 0.219511 0.187666
H28   H     H_    0.060906 0.387430 0.169749 0.178933
H29   H     H_    0.951997 0.412585 0.765581 0.192663
H30   H     H_    0.913302 0.446239 0.809299 0.190962
H31   H     H_    0.914038 0.405385 0.857547 0.181786
H32   H     H_    0.560543 0.921746 0.223968 0.190672
H33   H     H_    0.594832 0.959578 0.179464 0.193666
H34   H     H_    0.597748 0.917721 0.130458 0.176446
H35   H     H_    0.941069 0.576797 0.269915 0.200650
H36   H     H_    0.448137 0.915320 0.768558 0.190868
H37   H     H_    0.410555 0.950078 0.813330 0.191527
H38   H     H_    0.410578 0.908715 0.861110 0.181470
H39   H     H_    0.089373 0.496824 0.165832 0.361434
H40   H     H_    0.912827 0.520424 0.831841 0.363094
H41   H     H_    0.583280 0.032553 0.171774 0.363334
H42   H     H_    0.413796 0.024082 0.830983 0.363987
H43   H     H_    0.050562 0.573656 0.191319 0.338745
H44   H     H_    0.970608 0.584592 0.786611 0.334261
H45   H     H_    0.516838 0.087692 0.226008 0.333954
H46   H     H_    0.983759 0.603211 0.245507 0.197439
H47   H     H_    0.474649 0.085899 0.782847 0.333037
H48   H     H_    0.594068 0.555077 0.334614 0.340921
H49   H     H_    0.406693 0.556025 0.662163 0.340588
H50   H     H_    0.094015 0.055032 0.334413 0.340927
H51   H     H_    0.906712 0.056055 0.662094 0.340582
H52   H     H_    0.940610 0.612684 0.329085 0.177794
H53   H     H_    0.077634 0.559149 0.709297 0.194742
H54   H     H_    0.042334 0.595346 0.729639 0.195781
H55   H     H_    0.085672 0.594763 0.643370 0.180562
H56   H     H_    0.413938 0.046587 0.299814 0.189072
H57   H     H_    0.500994 0.380592 0.398407 0.172308
H58   H     H_    0.444257 0.087376 0.281771 0.198394
H59   H     H_    0.401874 0.081564 0.368652 0.178414
H60   H     H_    0.580306 0.055748 0.706325 0.194746
H61   H     H_    0.546356 0.093329 0.726173 0.195332
H62   H     H_    0.589448 0.091276 0.639602 0.181065
H63   H     H_    0.673916 0.445021 0.443523 0.333972
H64   H     H_    0.325745 0.443428 0.560093 0.334399
H65   H     H_    0.174023 0.945623 0.443985 0.334097
H66   H     H_    0.825708 0.943372 0.560294 0.334205
H67   H     H_    0.820615 0.551431 0.061349 0.353587
H68   H     H_    0.999127 0.880745 0.602025 0.171930
H69   H     H_    0.179317 0.549346 0.942042 0.352936
H70   H     H_    0.320818 0.047824 0.056713 0.353269
H71   H     H_    0.679280 0.049578 0.941965 0.351436
H72   H     H_    0.870704 0.574487 0.051322 0.353147
H73   H     H_    0.128728 0.572408 0.954739 0.355681
H74   H     H_    0.371064 0.071944 0.044183 0.353290
H75   H     H_    0.628742 0.072589 0.954328 0.354128
H76   H     H_    0.869374 0.431802 0.228256 0.376947
H77   H     H_    0.130755 0.439356 0.759985 0.374466
H78   H     H_    0.369344 0.935365 0.234400 0.378182
H79   H     H_    0.000609 0.880632 0.398755 0.172139
H80   H     H_    0.630806 0.938913 0.760685 0.374483
H81   H     H_    0.782312 0.493366 0.348976 0.166569
H82   H     H_    0.826640 0.474381 0.334042 0.147400
H83   H     H_    0.783910 0.447689 0.383065 0.208423
H84   H     H_    0.172738 0.402566 0.790928 0.159744
H85   H     H_    0.217284 0.420296 0.776962 0.163303
H86   H     H_    0.215435 0.397879 0.703757 0.206542
H87   H     H_    0.281374 0.998287 0.350198 0.170545
H88   H     H_    0.326743 0.982608 0.335081 0.144235
H89   H     H_    0.285218 0.954595 0.387973 0.206234
H90   H     H_    0.690299 0.536014 0.229908 0.197632
H91   H     H_    0.672752 0.902385 0.792037 0.159788
H92   H     H_    0.717299 0.920208 0.777918 0.162877
H93   H     H_    0.715451 0.897541 0.704918 0.206402
H94   H     H_    0.498343 0.323916 0.650581 0.340293
H95   H     H_    0.501481 0.323656 0.350801 0.340553
H96   H     H_    0.998603 0.823896 0.650259 0.340073
H97   H     H_    0.000849 0.823711 0.351351 0.340097
H98   H     H_    0.899611 0.668906 0.608169 0.184561
H99   H     H_    0.919432 0.712991 0.558744 0.140785
H100  H     H_    0.889026 0.712732 0.656404 0.189443
H101  H     H_    0.309957 0.538584 0.767120 0.198165
H102  H     H_    0.100250 0.670004 0.395234 0.185295
H103  H     H_    0.079885 0.713866 0.444698 0.141852
H104  H     H_    0.110689 0.713964 0.347143 0.190864
H105  H     H_    0.399897 0.169163 0.614352 0.184969
H106  H     H_    0.419154 0.213251 0.564494 0.140509
H107  H     H_    0.390355 0.212936 0.662467 0.189596
H108  H     H_    0.600114 0.169376 0.386768 0.184810
H109  H     H_    0.580927 0.213185 0.437407 0.140987
H110  H     H_    0.609612 0.213483 0.339415 0.191184
H111  H     H_    0.960770 0.635801 0.691126 0.170259
H112  H     H_    0.190293 0.036251 0.230002 0.197696
H113  H     H_    0.981539 0.590957 0.646746 0.142716
H114  H     H_    0.933281 0.593423 0.719530 0.210776
H115  H     H_    0.040648 0.636765 0.309609 0.174339
H116  H     H_    0.020424 0.591443 0.352567 0.164506
H117  H     H_    0.068858 0.594877 0.281071 0.189466
H118  H     H_    0.463954 0.135820 0.689824 0.170067
H119  H     H_    0.483831 0.090720 0.645543 0.141758
H120  H     H_    0.436069 0.093746 0.720335 0.214480
H121  H     H_    0.534617 0.137768 0.313003 0.166863
H122  H     H_    0.516206 0.091612 0.353899 0.136292
H123  H     H_    0.809989 0.038565 0.767219 0.197907
H124  H     H_    0.563671 0.096714 0.278601 0.220248
H125  H     H_    0.456001 0.679226 0.416609 0.355770
H126  H     H_    0.566689 0.680297 0.526937 0.352807
H127  H     H_    0.956246 0.179225 0.416144 0.355564
H128  H     H_    0.066806 0.180235 0.526789 0.352680
H129  H     H_    0.906048 0.522402 0.381486 0.193986
H130  H     H_    0.898769 0.472773 0.370542 0.190124
H131  H     H_    0.873377 0.508608 0.355009 0.158176
H132  H     H_    0.097591 0.499720 0.616211 0.186487
H133  H     H_    0.090492 0.449584 0.637849 0.189290
H134  H     H_    0.617514 0.463943 0.461617 0.170287
H135  H     H_    0.124644 0.475585 0.647226 0.184380
H136  H     H_    0.403457 0.985491 0.383615 0.183698
H137  H     H_    0.417817 0.936941 0.355036 0.200229
H138  H     H_    0.380063 0.957454 0.349503 0.164916
H139  H     H_    0.597361 0.995620 0.615955 0.186004
H140  H     H_    0.588406 0.945829 0.639906 0.190825
H141  H     H_    0.623620 0.970648 0.647793 0.183373
H142  H     H_    0.431372 0.628386 0.476463 0.351104
H143  H     H_    0.543104 0.628737 0.584304 0.354015
H144  H     H_    0.931495 0.128461 0.476190 0.351078
O1    O     O_R   0.944560 0.468710 0.055440 -0.589554
O2    O     O_R   0.444560 0.499880 0.607950 -0.613016
O3    O     O_3   0.534265 0.805320 0.561038 -0.724358
O4    O     O_3   0.960714 0.386313 0.446834 -0.574196
O5    O     O_3   0.039241 0.385610 0.552368 -0.563718
O6    O     O_3   0.459777 0.886325 0.448858 -0.563001
O7    O     O_3   0.539988 0.885574 0.550729 -0.562998
O8    O     O_3   0.961497 0.439214 0.333357 -0.726765
O9    O     O_3   0.021723 0.431808 0.683836 -0.720652
O10   O     O_3   0.488186 0.929178 0.306789 -0.721780
O11   O     O_3   0.518931 0.931016 0.686484 -0.720974
O12   O     O_3   0.034372 0.436052 0.169427 -0.580361
O13   O     O_R   0.055440 0.999880 0.392050 -0.611696
O14   O     O_3   0.951101 0.446792 0.846159 -0.584585
O15   O     O_3   0.555534 0.953876 0.147060 -0.588626
O16   O     O_3   0.449136 0.948740 0.848201 -0.584775
O17   O     O_3   0.073015 0.497735 0.219888 -0.728276
O18   O     O_3   0.928747 0.516460 0.778267 -0.739620
O19   O     O_3   0.568262 0.025940 0.224475 -0.747345
O20   O     O_3   0.429477 0.019303 0.777638 -0.741151
O21   O     O_3   0.040451 0.560273 0.164464 -0.707214
O22   O     O_3   0.976035 0.568807 0.818350 -0.711395
O23   O     O_3   0.513961 0.071358 0.191653 -0.713667
O24   O     O_R   0.944560 0.999880 0.607950 -0.613088
O25   O     O_3   0.478900 0.069685 0.815669 -0.711311
O26   O     O_3   0.618739 0.546662 0.293420 -0.733866
O27   O     O_3   0.381640 0.548567 0.703505 -0.734540
O28   O     O_3   0.118703 0.046620 0.293267 -0.734067
O29   O     O_3   0.881670 0.048591 0.703469 -0.734851
O30   O     O_R   0.500000 0.444470 0.552540 -0.626264
O31   O     O_R   0.500000 0.444470 0.447460 -0.625692
O32   O     O_R   0.000000 0.944470 0.552540 -0.626329
O33   O     O_R   1.000000 0.944470 0.447460 -0.625793
O34   O     O_R   0.944560 0.531300 0.055450 -0.597950
O35   O     O_R   0.055440 0.531300 0.944550 -0.598363
O36   O     O_R   0.444560 0.031300 0.055450 -0.603389
O37   O     O_R   0.055440 0.468710 0.944560 -0.597234
O38   O     O_R   0.555440 0.031300 0.944550 -0.600793
O39   O     O_R   0.000010 0.468710 0.093020 -0.597260
O40   O     O_R   0.999990 0.468710 0.906980 -0.598072
O41   O     O_R   0.500010 0.968710 0.093020 -0.600389
O42   O     O_R   0.499990 0.968710 0.906980 -0.599202
O43   O     O_R   0.000010 0.531300 0.093030 -0.600802
O44   O     O_R   0.999990 0.531300 0.906970 -0.595020
O45   O     O_R   0.500010 0.031300 0.093030 -0.591448
O46   O     O_R   0.499990 0.031300 0.906970 -0.593106
O47   O     O_R   0.031280 0.555400 0.468730 -0.586370
O48   O     O_R   0.444560 0.968710 0.055440 -0.587934
O49   O     O_R   0.968720 0.555400 0.531270 -0.586675
O50   O     O_R   0.531280 0.055400 0.468730 -0.585060
O51   O     O_R   0.468720 0.055400 0.531270 -0.586203
O52   O     O_R   0.031290 0.499960 0.375690 -0.597234
O53   O     O_R   0.968710 0.499960 0.624310 -0.598700
O54   O     O_R   0.531290 0.999960 0.375690 -0.599560
O55   O     O_R   0.468710 0.999960 0.624310 -0.598513
O56   O     O_R   0.968700 0.499940 0.438280 -0.607856
O57   O     O_R   0.031300 0.499940 0.561720 -0.606313
O58   O     O_R   0.468700 0.999940 0.438280 -0.606213
O59   O     O_R   0.555440 0.968710 0.944560 -0.594872
O60   O     O_R   0.531300 0.999940 0.561720 -0.606672
O61   O     O_R   0.031310 0.444530 0.468680 -0.628551
O62   O     O_R   0.968690 0.444530 0.531320 -0.627574
O63   O     O_R   0.531310 0.944530 0.468680 -0.629275
O64   O     O_R   0.468690 0.944530 0.531320 -0.630796
O65   O     O_R   0.500010 0.555340 0.552490 -0.583831
O66   O     O_R   0.499990 0.555340 0.447510 -0.580776
O67   O     O_R   0.000010 0.055340 0.552490 -0.583738
O68   O     O_R   0.999990 0.055340 0.447510 -0.580876
O69   O     O_3   0.967123 0.564065 0.329378 -0.628652
O70   O     O_R   0.555450 0.499900 0.497080 -0.604849
O71   O     O_3   0.047598 0.554406 0.655257 -0.611166
O72   O     O_3   0.445250 0.047006 0.351633 -0.602192
O73   O     O_3   0.549751 0.052506 0.653132 -0.609779
O74   O     O_3   0.692272 0.457256 0.396496 -0.751829
O75   O     O_3   0.307461 0.456477 0.606051 -0.745348
O76   O     O_3   0.192368 0.957871 0.396965 -0.749417
O77   O     O_3   0.807434 0.956415 0.606270 -0.745389
O78   O     O_3   0.805090 0.545819 0.114376 -0.752087
O79   O     O_3   0.194681 0.544688 0.888677 -0.750977
O80   O     O_3   0.305295 0.043513 0.110211 -0.752148
O81   O     O_R   0.444550 0.499900 0.502920 -0.602683
O82   O     O_3   0.694666 0.044815 0.888638 -0.751640
O83   O     O_3   0.886111 0.551499 0.041461 -0.725399
O84   O     O_3   0.113500 0.549437 0.963017 -0.717133
O85   O     O_3   0.386408 0.049150 0.036612 -0.727560
O86   O     O_3   0.613499 0.049612 0.962768 -0.730455
O87   O     O_3   0.886525 0.449513 0.189297 -0.715558
O88   O     O_3   0.113523 0.453018 0.805749 -0.710511
O89   O     O_3   0.386551 0.952032 0.193314 -0.704413
O90   O     O_3   0.613561 0.952734 0.806225 -0.710180
O91   O     O_3   0.806388 0.450057 0.271921 -0.582263
O92   O     O_R   0.055450 0.999900 0.497080 -0.604896
O93   O     O_3   0.193694 0.451410 0.727293 -0.588451
O94   O     O_3   0.306465 0.953550 0.277157 -0.581159
O95   O     O_3   0.693723 0.951082 0.727943 -0.588136
O96   O     O_3   0.498706 0.306041 0.614594 -0.749545
O97   O     O_3   0.501091 0.305845 0.387014 -0.749350
O98   O     O_3   0.998824 0.806031 0.614397 -0.750781
O99   O     O_3   0.000531 0.805891 0.387482 -0.751523
O100  O     O_3   0.942361 0.692832 0.619452 -0.566910
O101  O     O_3   0.057626 0.693553 0.383020 -0.568672
O102  O     O_3   0.443978 0.192831 0.621613 -0.566952
O103  O     O_R   0.944550 0.999900 0.502920 -0.602772
O104  O     O_3   0.555960 0.193437 0.380206 -0.567467
O105  O     O_3   0.943490 0.614951 0.621627 -0.563281
O106  O     O_3   0.057276 0.615715 0.380140 -0.564530
O107  O     O_3   0.444846 0.114891 0.623251 -0.563023
O108  O     O_3   0.554897 0.115544 0.377010 -0.562803
O109  O     O_3   0.458274 0.694385 0.453013 -0.726359
O110  O     O_3   0.543970 0.695105 0.539026 -0.726629
O111  O     O_3   0.958530 0.194407 0.452511 -0.726824
O112  O     O_3   0.044124 0.195082 0.538766 -0.726832
O113  O     O_3   0.928732 0.503205 0.273606 -0.597024
O114  O     O_R   0.555440 0.499880 0.392050 -0.611698
O115  O     O_3   0.069827 0.485412 0.727639 -0.585800
O116  O     O_3   0.432707 0.975358 0.270496 -0.579822
O117  O     O_3   0.569268 0.982587 0.728006 -0.584774
O118  O     O_3   0.453977 0.613211 0.463754 -0.739768
O119  O     O_3   0.541620 0.613947 0.546603 -0.740164
O120  O     O_3   0.954064 0.113248 0.463579 -0.739886
O121  O     O_3   0.041611 0.113932 0.546662 -0.740253
O122  O     O_3   0.965811 0.306034 0.436679 -0.727019
O123  O     O_3   0.033661 0.305337 0.562253 -0.724846
O124  O     O_3   0.464621 0.806025 0.439044 -0.724974
Zn1   Zn    Zn3+2 0.000000 0.458210 0.000000 1.090810
Zn2   Zn    Zn3+2 0.499990 0.499910 0.429870 1.023596
Zn3   Zn    Zn3+2 0.000010 0.999910 0.570130 1.016880
Zn4   Zn    Zn3+2 0.999990 0.999910 0.429870 1.023086
Zn5   Zn    Zn3+2 0.500000 0.958210 0.000000 1.089261
Zn6   Zn    Zn3+2 0.000000 0.541790 0.000000 1.074321
Zn7   Zn    Zn3+2 0.500000 0.041790 0.000000 1.081179
Zn8   Zn    Zn3+2 0.041800 0.499960 0.458210 1.036152
Zn9   Zn    Zn3+2 0.958200 0.499960 0.541790 1.029009
Zn10  Zn    Zn3+2 0.541800 0.999960 0.458210 1.032341
Zn11  Zn    Zn3+2 0.458200 0.999960 0.541790 1.032387
Zn12  Zn    Zn3+2 0.500010 0.499910 0.570130 1.017300

loop_
_geom_bond_atom_site_label_1
_geom_bond_atom_site_label_2
_ccdc_geom_bond_type
C158  O95   S    
C157  C161  A    
C105  O12   S    
C101  C113  A    
C156  O93   S    
H94   O96   S    
H77   O88   S    
C185  C190  A    
C136  C162  A    
O36   Zn7   S    
C21   C76   S    
C35   O26   S    
O67   Zn3   S    
C152  O89   S    
C111  H134  S    
C88   O101  S    
C154  C158  A    
C83   H83   S    
C3    C189  A    
C5    C6    T    
C20   C55   S    
C110  C178  S    
C105  H26   S    
C55   C62   S    
C90   C176  S    
C33   C36   A    
C94   H119  S    
C109  O35   A    
C80   O71   S    
C155  O91   S    
H69   O79   S    
H43   O21   S    
C134  C143  A    
C146  C150  A    
O62   Zn9   S    
C67   C164  S    
C56   C72   S    
C80   H55   S    
C49   O5    S    
C70   C74   S    
O37   Zn1   S    
C89   H105  S    
C138  O40   A    
C1    O34   A    
C66   O14   S    
C153  C180  S    
C36   C173  S    
C149  C154  A    
C74   O21   S    
C96   H130  S    
O57   Zn8   S    
C112  H2    S    
C190  C194  A    
O33   Zn4   S    
H67   O78   S    
C50   C53   A    
C116  C121  A    
C27   C31   A    
C170  O62   A    
C192  C195  A    
C163  O47   A    
C28   C32   A    
C22   C77   S    
C75   O22   S    
H21   O8    S    
C186  H90   S    
C52   C170  S    
C62   C66   S    
C78   H35   S    
C26   O109  S    
C192  H68   S    
C118  O77   S    
C20   O71   S    
C97   O115  S    
C172  O65   A    
C54   C70   S    
C99   H140  S    
C173  O68   A    
O51   Zn11  S    
O46   Zn7   S    
H128  O112  S    
C88   H103  S    
C68   C110  A    
C12   O105  S    
C176  O2    A    
H42   O20   S    
C138  O44   A    
C92   H111  S    
C61   C179  S    
C9    O101  S    
C107  H33   S    
C125  C129  T    
C131  C149  S    
H96   O98   S    
C95   H121  S    
C184  C195  S    
C19   C179  S    
O24   Zn3   S    
C2    C121  A    
C4    C196  S    
C166  O56   A    
C152  C157  A    
C139  C164  S    
C16   O108  S    
O47   Zn8   S    
C114  H24   S    
C83   H81   S    
C22   C58   S    
C66   C153  S    
C48   O4    S    
C104  O7    S    
C54   C61   S    
O32   Zn3   S    
C105  H28   S    
C84   H85   S    
C8    O100  S    
H39   O17   S    
C184  O32   A    
C191  C194  A    
O63   Zn10  S    
C46   O27   S    
C99   O117  S    
C140  O46   A    
C45   C50   A    
O39   Zn1   S    
C98   H136  S    
C1    O1    A    
C81   H56   S    
C174  O114  A    
C61   C65   S    
C48   C52   A    
H22   O9    S    
C85   H87   S    
H47   O25   S    
C73   C77   S    
C106  H31   S    
C69   C175  S    
C102  O5    S    
C102  H12   S    
C55   C71   S    
C190  H1    S    
C97   H133  S    
O52   Zn8   S    
C32   O120  S    
C15   C18   A    
C134  C160  A    
C137  C142  S    
C165  O51   A    
C98   H137  S    
C122  C126  S    
C63   C181  S    
O13   Zn4   S    
C29   C33   A    
C82   H62   S    
C13   H112  S    
C150  O87   S    
C8    C23   A    
H5    O123  S    
H23   O10   S    
O60   Zn10  S    
C178  O103  A    
C32   C36   A    
C137  O39   A    
C188  O98   S    
C189  O99   S    
C13   C57   A    
O40   Zn1   S    
C11   C25   A    
C44   C59   A    
C177  O13   A    
C65   C70   S    
C183  C194  S    
O38   Zn7   S    
C169  O60   A    
C67   C72   S    
H4    O122  S    
C164  C181  S    
C120  O48   A    
C93   H117  S    
C29   C38   A    
H71   O82   S    
C78   H52   S    
C108  O16   S    
C184  O33   A    
C110  C114  A    
C43   C59   A    
C64   C182  S    
C180  O115  S    
C80   H54   S    
C107  H32   S    
C135  C161  A    
C14   C17   A    
C109  C147  S    
C136  O82   S    
C4    C7    T    
H127  O111  S    
C139  O41   A    
C92   H113  S    
C58   C64   S    
C93   H116  S    
C108  H38   S    
C31   C34   A    
C30   C34   A    
C155  C159  A    
O66   Zn2   S    
C156  C160  A    
C58   C169  S    
C103  H15   S    
H142  O118  S    
C53   C171  S    
C9    C23   A    
C64   C69   S    
C181  O116  S    
C24   C123  A    
O49   Zn9   S    
C20   C75   S    
C51   C53   A    
O65   Zn12  S    
C147  C151  A    
C117  C122  A    
C121  C125  S    
C83   O91   S    
C135  O80   S    
C75   C153  S    
C123  C127  S    
C63   O10   S    
C8    C12   A    
C106  H29   S    
H25   O11   S    
C93   O106  S    
C81   H59   S    
C97   H135  S    
C113  C117  A    
C91   H109  S    
C19   C54   S    
C26   C30   A    
C115  C119  A    
C150  C155  A    
C169  O55   A    
C57   O28   S    
C88   H102  S    
C2    H101  S    
C112  C116  A    
C28   O111  S    
C10   C25   A    
C108  H36   S    
C40   C41   T    
H70   O80   S    
O31   Zn2   S    
C50   O6    S    
C73   O20   S    
C148  C152  A    
O30   Zn12  S    
C100  H9    S    
C167  O53   A    
O43   Zn6   S    
C168  O58   A    
C57   C101  A    
C31   O119  S    
C87   H100  S    
O59   Zn5   S    
C188  C192  A    
C113  H13   S    
C22   C182  S    
H6    O124  S    
C35   C186  A    
H44   O22   S    
C84   H84   S    
H7    O3    S    
C94   H120  S    
H126  O110  S    
C96   O113  S    
C132  C162  S    
C89   H107  S    
H78   O89   S    
C189  C193  A    
C171  O63   A    
O54   Zn10  S    
O53   Zn9   S    
C87   O100  S    
C82   O73   S    
C179  O113  S    
C129  C160  S    
C151  O88   S    
C128  C159  S    
C107  O15   S    
C187  C196  A    
C86   H91   S    
C55   C167  S    
C109  O37   A    
C183  O31   A    
C139  O45   A    
C183  O30   A    
C76   O23   S    
C166  O52   A    
C19   O69   S    
C126  C130  T    
H97   O99   S    
C131  O59   A    
C92   O105  S    
C17   C163  S    
C94   O107  S    
O41   Zn5   S    
C18   C165  S    
H80   O90   S    
C64   O11   S    
C99   H139  S    
C173  O67   A    
C12   C17   A    
H63   O74   S    
C78   O69   S    
C69   C73   S    
C88   H104  S    
C29   O112  S    
C72   C76   S    
C124  C128  T    
H144  O120  S    
C86   H93   S    
C79   C174  S    
C82   H60   S    
C137  O43   A    
C95   H124  S    
C54   C166  S    
C21   O72   S    
C39   C42   T    
O34   Zn6   S    
C177  O92   A    
C143  O84   S    
C87   H98   S    
C69   O16   S    
H73   O84   S    
C47   C51   A    
C105  H27   S    
C84   H86   S    
C94   H118  S    
H75   O86   S    
C133  C159  A    
C14   O106  S    
C143  C147  A    
C9    C14   A    
C106  O14   S    
O42   Zn5   S    
C182  O117  S    
C93   H115  S    
C89   O102  S    
C66   C71   S    
C131  O38   A    
C49   C52   A    
C70   O17   S    
C191  H57   S    
C151  C156  A    
C178  O24   A    
C33   O121  S    
C81   O72   S    
C141  C146  A    
C138  C153  S    
C96   H129  S    
C185  C196  A    
H48   O26   S    
C34   C172  S    
H50   O28   S    
C24   H123  S    
H45   O23   S    
C165  O50   A    
C98   H138  S    
C120  O36   A    
C170  O61   A    
C65   O12   S    
C104  H19   S    
C85   O94   S    
C3    C5    S    
O1    Zn1   S    
C21   C56   S    
C61   O8    S    
C26   C37   A    
C46   C90   A    
C79   C111  A    
H95   O97   S    
C119  C186  A    
C133  C141  A    
C7    C25   S    
C37   C39   S    
C43   O122  S    
C38   C40   S    
C100  H8    S    
C140  C175  S    
C118  C123  A    
C19   C74   S    
C30   O118  S    
O64   Zn11  S    
C101  C177  S    
C24   C68   A    
C11   O104  S    
C172  O66   A    
C116  O75   S    
C107  H34   S    
C100  O4    S    
C95   H122  S    
C144  O85   S    
C44   O123  S    
C145  C149  A    
C167  O57   A    
O44   Zn6   S    
C168  O54   A    
C44   C49   A    
C45   C60   A    
C65   C142  S    
C90   C112  A    
C144  C148  A    
C83   H82   S    
C3    C188  A    
H72   O83   S    
C20   C180  S    
C27   O110  S    
C92   H114  S    
C119  C124  S    
C2    C46   A    
C21   C181  S    
H51   O29   S    
C78   H46   S    
C104  H20   S    
C85   H89   S    
C95   O108  S    
C71   O18   S    
C45   O124  S    
C10   C15   A    
C62   C180  S    
C174  O70   A    
O81   Zn2   S    
H64   O75   S    
O61   Zn8   S    
C11   C16   A    
C35   C79   A    
C15   O107  S    
C127  C132  T    
C47   C60   A    
C145  O86   S    
C193  C195  A    
C85   H88   S    
C77   O25   S    
C96   H131  S    
H66   O77   S    
C22   O73   S    
C81   H58   S    
C43   C48   A    
C103  H17   S    
C187  C191  A    
C136  C145  A    
H65   O76   S    
O68   Zn4   S    
C77   C175  S    
C82   H61   S    
C1    C146  S    
H74   O85   S    
C86   O95   S    
C10   O102  S    
H125  O109  S    
C157  O94   S    
C84   O93   S    
C63   C67   S    
C140  O42   A    
C41   C59   S    
H143  O119  S    
C99   H141  S    
C62   O9    S    
C42   C60   S    
C100  H10   S    
C102  H14   S    
H40   O18   S    
O50   Zn10  S    
C87   H99   S    
O45   Zn7   S    
C185  O96   S    
C158  C162  A    
H3    O121  S    
C142  C179  S    
C28   C38   A    
C133  O78   S    
C56   C168  S    
C106  H30   S    
C56   C63   S    
C97   H132  S    
H49   O27   S    
C114  C118  A    
C89   H106  S    
C175  C182  S    
C130  C161  S    
C135  C144  A    
C72   O19   S    
C91   H108  S    
C80   H53   S    
C76   C164  S    
O70   Zn12  S    
C134  O79   S    
C102  H11   S    
C91   O104  S    
C108  H37   S    
C51   O7    S    
C86   H92   S    
C103  H16   S    
O2    Zn12  S    
C120  C148  S    
C171  O64   A    
C98   O116  S    
C193  H79   S    
O92   Zn3   S    
C67   O15   S    
C68   O29   S    
C163  O49   A    
C104  H18   S    
C117  O76   S    
C71   C75   S    
C13   C122  A    
H41   O19   S    
H76   O87   S    
C27   C37   A    
C6    C23   S    
C74   C142  S    
O114  Zn2   S    
O58   Zn11  S    
C141  O83   S    
C154  O90   S    
C115  O74   S    
C91   H110  S    
O55   Zn11  S    
O56   Zn9   S    
O103  Zn4   S    
O35   Zn6   S    
C16   C18   A    
C187  O97   S    
C111  C115  A    
O48   Zn5   S    
C103  O6    S    
C176  O81   A    
C58   C73   S    
C47   O3    S    
