data_mof_unit_58865.cif
_audit_creation_date              2012-12-10T18:44:29-0500
_audit_creation_method            fapswitch 2.2
_symmetry_space_group_name_H-M    P1
_symmetry_Int_Tables_number       1
_space_group_crystal_system       triclinic
_cell_length_a                    12.841088
_cell_length_b                    10.695076
_cell_length_c                    9.917107
_cell_angle_alpha                 90.438544
_cell_angle_beta                  98.477247
_cell_angle_gamma                 90.919931
_cell_volume                      1346.85678033

loop_
_atom_site_label
_atom_site_type_symbol
_atom_type_description
_atom_site_fract_x
_atom_site_fract_y
_atom_site_fract_z
_atom_type_partial_charge
C1    C     C_R   0.499547 0.260148 0.499532 0.860002
C2    C     C_R   0.701498 0.498457 0.528075 0.923287
C3    C     C_R   0.813926 0.501016 0.547007 -0.072854
C4    C     C_R   0.186074 0.498983 0.452993 -0.072855
C5    C     C_R   0.027373 0.388113 0.361723 0.112828
C6    C     C_R   0.972628 0.611883 0.638279 0.112826
C7    C     C_R   0.133584 0.411361 0.363605 -0.311440
C8    C     C_R   0.866416 0.588636 0.636396 -0.311439
C9    C     C_R   0.134345 0.572480 0.537769 0.050642
C10   C     C_R   0.865655 0.427518 0.462231 0.050644
C11   C     C_R   0.027176 0.547391 0.544704 0.067823
C12   C     C_R   0.500453 0.739852 0.500468 0.860003
C13   C     C_R   0.972824 0.452606 0.455297 0.067823
C14   C     C_R   0.529927 0.063838 0.388651 -0.207420
C15   C     C_R   0.470073 0.936162 0.611349 -0.207421
C16   C     C_R   0.530775 0.935740 0.389441 -0.181938
C17   C     C_R   0.469225 0.064260 0.610559 -0.181937
C18   C     C_R   0.500742 0.872419 0.500736 -0.014219
C19   C     C_R   0.499258 0.127581 0.499264 -0.014220
C20   C     C_R   0.572330 0.570489 0.088479 0.509851
C21   C     C_R   0.427668 0.429512 0.911521 0.509853
C22   C     C_R   0.573806 0.568632 0.944348 -0.071151
C23   C     C_R   0.426193 0.431369 0.055652 -0.071149
C24   C     C_R   0.298502 0.501543 0.471925 0.923287
H1    H     H_    0.823672 0.643805 0.701526 0.153195
H2    H     H_    0.157407 0.757479 0.590044 0.199947
H3    H     H_    0.987063 0.327174 0.167076 0.192271
H4    H     H_    0.015681 0.212470 0.282753 0.186557
H5    H     H_    0.984322 0.787524 0.717256 0.186557
H6    H     H_    0.012939 0.672816 0.832928 0.192271
H7    H     H_    0.686618 0.695054 0.125640 0.331480
H8    H     H_    0.313358 0.304972 0.874356 0.331481
H9    H     H_    0.708086 0.568407 0.861626 0.219197
H10   H     H_    0.627090 0.691118 0.812956 0.235349
H11   H     H_    0.372907 0.308887 0.187049 0.235356
H12   H     H_    0.176329 0.356191 0.298477 0.153195
H13   H     H_    0.291911 0.431598 0.138371 0.219189
H14   H     H_    0.554199 0.112662 0.302793 0.161198
H15   H     H_    0.445801 0.887338 0.697207 0.161197
H16   H     H_    0.555531 0.886611 0.303912 0.178274
H17   H     H_    0.444469 0.113389 0.696088 0.178280
H18   H     H_    0.842589 0.242520 0.409954 0.199946
H19   H     H_    0.796807 0.346774 0.282425 0.229219
H20   H     H_    0.203194 0.653227 0.717573 0.229217
N1    N     N_R   0.499970 0.499970 0.857200 -0.130572
N2    N     N_R   0.500030 0.500030 0.142800 -0.130572
N3    N     N_3   0.806189 0.327994 0.386723 -0.454825
N4    N     N_3   0.193810 0.672006 0.613274 -0.454827
N5    N     N_3   0.977458 0.297680 0.264868 -0.492164
N6    N     N_3   0.022543 0.702312 0.735137 -0.492165
N7    N     N_3   0.657407 0.634056 0.893211 -0.488010
N8    N     N_3   0.342591 0.365947 0.106790 -0.488012
O1    O     O_R   0.499990 0.316750 0.614620 -0.582867
O2    O     O_3   0.357205 0.358035 0.822979 -0.738056
O3    O     O_R   0.500010 0.683250 0.385380 -0.582870
O4    O     O_R   0.499990 0.316780 0.385290 -0.647578
O5    O     O_R   0.500010 0.683220 0.614710 -0.647577
O6    O     O_R   0.346360 0.499970 0.595710 -0.541678
O7    O     O_R   0.653640 0.500030 0.404290 -0.541674
O8    O     O_R   0.346360 0.499990 0.366380 -0.655175
O9    O     O_R   0.653640 0.500010 0.633620 -0.655174
O10   O     O_3   0.642793 0.641966 0.177019 -0.738055
Zn1   Zn    Zn3+2 0.500000 0.499980 0.653120 0.978825
Zn2   Zn    Zn3+2 0.500000 0.500020 0.346880 0.978825

loop_
_geom_bond_atom_site_label_1
_geom_bond_atom_site_label_2
_ccdc_geom_bond_type
C15   C18   A    
C23   N8    S    
O4    Zn2   S    
H9    N7    S    
C11   C13   A    
C7    H12   S    
C5    C13   A    
C2    O9    A    
H2    N4    S    
O8    Zn2   S    
C5    N5    S    
O3    Zn2   S    
O9    Zn1   S    
C2    C3    S    
O7    Zn2   S    
C5    C7    A    
C23   N2    A    
C6    N6    S    
C8    H1    S    
O1    Zn1   S    
H7    O10   S    
C15   H15   S    
H10   N7    S    
H5    N6    S    
C16   H16   S    
C4    C7    A    
C3    C10   A    
C12   O5    A    
C9    C11   A    
H8    O2    S    
C17   C19   A    
C1    O4    A    
C20   C22   A    
O5    Zn1   S    
C21   N1    A    
H18   N3    S    
C21   C23   A    
C20   O10   S    
C21   O2    S    
C4    C24   S    
C14   C16   A    
C1    C19   S    
C17   H17   S    
C14   H14   S    
C12   O3    A    
H20   N4    S    
C6    C11   A    
C22   N1    A    
C9    N4    S    
C24   O6    A    
C3    C8    A    
H4    N5    S    
C12   C18   S    
O6    Zn1   S    
C15   C17   A    
H13   N8    S    
C1    O1    A    
C2    O7    A    
H11   N8    S    
C6    C8    A    
C24   O8    A    
H6    N6    S    
C4    C9    A    
C10   N3    S    
H19   N3    S    
C14   C19   A    
N1    Zn1   S    
C16   C18   A    
C20   N2    A    
H3    N5    S    
N2    Zn2   S    
C22   N7    S    
C10   C13   A    
