data_mof_unit_45782.cif
_audit_creation_date              2012-12-10T18:31:54-0500
_audit_creation_method            fapswitch 2.2
_symmetry_space_group_name_H-M    P1
_symmetry_Int_Tables_number       1
_space_group_crystal_system       triclinic
_cell_length_a                    10.64572
_cell_length_b                    14.983948
_cell_length_c                    15.47383
_cell_angle_alpha                 82.532694
_cell_angle_beta                  89.449529
_cell_angle_gamma                 104.35286
_cell_volume                      2368.73614695

loop_
_atom_site_label
_atom_site_type_symbol
_atom_type_description
_atom_site_fract_x
_atom_site_fract_y
_atom_site_fract_z
_atom_type_partial_charge
C1    C     C_R   0.478925 0.441891 0.662126 0.894624
C2    C     C_3   0.120997 0.497991 0.501105 0.085534
C3    C     C_3   0.100531 0.576377 0.430554 -0.510529
C4    C     C_3   0.076471 0.516482 0.592359 0.374123
C5    C     C_R   0.450318 0.406675 0.754479 -0.052235
C6    C     C_R   0.502517 0.590904 0.246118 -0.060552
C7    C     C_R   0.397522 0.281382 0.874600 -0.211317
C8    C     C_R   0.427030 0.311824 0.786069 -0.224874
C9    C     C_R   0.440131 0.469983 0.811045 -0.236297
C10   C     C_R   0.408917 0.441109 0.899636 0.079089
C11   C     C_R   0.391514 0.345629 0.931913 0.171733
C12   C     C_R   0.742113 0.500391 0.499983 0.850737
C13   C     C_R   0.405862 0.506195 0.957759 0.069466
C14   C     C_R   0.409627 0.477456 0.047990 0.070010
C15   C     C_R   0.383676 0.381175 0.078814 -0.234141
C16   C     C_R   0.372362 0.316160 0.021208 -0.237926
C17   C     C_R   0.402680 0.599313 0.928958 -0.229130
C18   C     C_R   0.418161 0.664589 0.986782 -0.243225
C19   C     C_R   0.442367 0.639804 0.073764 0.177546
C20   C     C_R   0.440740 0.546220 0.104240 0.090520
C21   C     C_R   0.470066 0.707315 0.130642 -0.208532
C22   C     C_R   0.498262 0.682639 0.217068 -0.204552
C23   C     C_R   0.515536 0.557932 0.337857 0.856985
C24   C     C_R   0.478200 0.524849 0.188774 -0.269062
C25   C     C_R   0.693384 0.843230 0.636441 -0.320425
C26   C     C_R   0.661371 0.753835 0.614415 0.012234
C27   C     C_R   0.514717 0.793645 0.510576 -0.068029
C28   C     C_R   0.542743 0.885801 0.529817 -0.003216
C29   C     C_R   0.634443 0.909619 0.594286 0.182548
C30   C     C_R   0.483682 0.954310 0.487706 0.081549
C31   C     C_R   0.517756 0.046101 0.511210 0.082329
C32   C     C_R   0.610162 0.066473 0.575540 -0.244326
C33   C     C_R   0.666963 0.999338 0.616140 -0.215466
C34   C     C_R   0.257902 0.499193 0.500177 0.903833
C35   C     C_R   0.391898 0.934109 0.422972 -0.244216
C36   C     C_R   0.335139 0.001266 0.382349 -0.215223
C37   C     C_R   0.366959 0.090804 0.404657 0.183937
C38   C     C_R   0.458252 0.114492 0.469393 -0.003018
C39   C     C_R   0.307821 0.157160 0.362639 -0.322432
C40   C     C_R   0.339133 0.246355 0.385153 0.008265
C41   C     C_R   0.485364 0.206385 0.489250 -0.069086
C42   C     C_3   0.895812 0.404400 0.479869 -0.394473
C43   C     C_3   0.038494 0.404174 0.477959 -0.409149
C44   C     C_3   0.956775 0.577933 0.431226 -0.407510
C45   C     C_3   0.929947 0.515737 0.592551 -0.516732
C46   C     C_3   0.878601 0.499847 0.500982 0.137684
H1    H     H_    0.856456 0.390558 0.415113 0.189758
H2    H     H_    0.127893 0.589717 0.598279 0.115313
H3    H     H_    0.947613 0.647100 0.445308 0.185230
H4    H     H_    0.160357 0.645474 0.442819 0.177900
H5    H     H_    0.354948 0.243120 0.046902 0.143268
H6    H     H_    0.490979 0.456502 0.210821 0.161916
H7    H     H_    0.515230 0.734643 0.261032 0.155359
H8    H     H_    0.416072 0.735399 0.962604 0.145899
H9    H     H_    0.382453 0.208109 0.898565 0.137584
H10   H     H_    0.432593 0.261591 0.742705 0.158429
H11   H     H_    0.462414 0.542749 0.785425 0.161962
H12   H     H_    0.841316 0.346776 0.529348 0.163955
H13   H     H_    0.369596 0.354280 0.147376 0.144387
H14   H     H_    0.385377 0.622986 0.862294 0.154943
H15   H     H_    0.469306 0.778797 0.108397 0.134306
H16   H     H_    0.737267 0.017970 0.665170 0.140313
H17   H     H_    0.552297 0.231463 0.537433 0.123034
H18   H     H_    0.294307 0.298512 0.353301 0.127521
H19   H     H_    0.265344 0.982778 0.332989 0.141514
H20   H     H_    0.763589 0.860365 0.685804 0.142744
H21   H     H_    0.706255 0.701711 0.646249 0.130447
H22   H     H_    0.447170 0.768395 0.462785 0.122983
H23   H     H_    0.054181 0.344349 0.523152 0.188410
H24   H     H_    0.641591 0.133954 0.596373 0.130838
H25   H     H_    0.361194 0.866813 0.401673 0.133779
H26   H     H_    0.238091 0.140179 0.312964 0.140907
H27   H     H_    0.067850 0.393979 0.411341 0.178571
H28   H     H_    0.918168 0.568041 0.365579 0.171135
H29   H     H_    0.131535 0.564926 0.364806 0.185805
H30   H     H_    0.919242 0.584168 0.607868 0.159666
H31   H     H_    0.867766 0.463348 0.642457 0.138885
N1    N     N_R   0.573860 0.731700 0.552730 -0.099602
N2    N     N_R   0.426060 0.268290 0.447230 -0.098814
O1    O     O_R   0.462770 0.383110 0.605620 -0.621965
O2    O     O_R   0.510160 0.531900 0.639510 -0.617574
O3    O     O_R   0.661510 0.425600 0.483070 -0.631214
O4    O     O_R   0.708900 0.574390 0.516960 -0.625337
O5    O     O_R   0.489840 0.468100 0.360490 -0.622781
O6    O     O_R   0.537230 0.616890 0.394380 -0.619594
O7    O     O_R   0.291100 0.425610 0.483040 -0.626966
O8    O     O_R   0.338490 0.574400 0.516930 -0.630898
Zn1   Zn    Zn3+2 0.468350 0.400660 0.477370 0.930238
Zn2   Zn    Zn3+2 0.531650 0.599340 0.522630 0.938575
O9    O     O_3   0.121515 0.462896 0.663178 -0.618882
C47   C     C_3   0.030986 0.381203 0.701713 0.106999
H32   H     H_    0.968261 0.344654 0.653996 0.132409
H33   H     H_    0.969511 0.398823 0.752110 0.151714
C48   C     C_3   0.103856 0.314322 0.746829 -0.821588
H34   H     H_    0.161727 0.346381 0.799228 0.272429
H35   H     H_    0.033944 0.249184 0.776379 0.198517
H36   H     H_    0.169512 0.297248 0.698820 0.260490

loop_
_geom_bond_atom_site_label_1
_geom_bond_atom_site_label_2
_ccdc_geom_bond_type
C44   H3    S    
C24   H6    S    
C43   H27   S    
C2    C4    S    
C19   C20   A    
C16   H5    S    
C7    H9    S    
C27   N1    A    
C42   H12   S    
C7    C8    A    
C45   C46   S    
C7    C11   A    
C26   N1    A    
C30   C35   A    
C45   H30   S    
C1    C5    S    
C26   H21   S    
C36   C37   A    
C19   C21   A    
C42   C46   S    
C30   C31   A    
O7    Zn1   S    
C1    O2    A    
C15   C16   A    
C6    C22   A    
C29   C33   A    
C18   C19   A    
C34   O7    A    
C27   H22   S    
C20   C24   A    
C33   H16   S    
C39   H26   S    
C3    H29   S    
C9    C10   A    
C21   H15   S    
C34   O8    A    
O2    Zn2   S    
C2    C34   S    
C35   H25   S    
C43   H23   S    
C21   C22   A    
C8    H10   S    
N2    Zn1   S    
C3    H4    S    
C44   C46   S    
C22   H7    S    
C4    O9    S    
C4    C45   S    
N1    Zn2   S    
C25   C29   A    
O4    Zn2   S    
C3    C44   S    
C23   O5    A    
C14   C20   A    
C38   C41   A    
C12   C46   S    
C47   H32   S    
O6    Zn2   S    
C36   H19   S    
C32   H24   S    
C48   H36   S    
C25   C26   A    
C12   O4    A    
C35   C36   A    
C44   H28   S    
C5    C9    A    
C37   C38   A    
C47   H33   S    
C11   C16   A    
C31   C32   A    
C2    C43   S    
C6    C24   A    
C17   C18   A    
C40   N2    A    
C12   O3    A    
C48   H35   S    
O8    Zn2   S    
C42   C43   S    
C41   H17   S    
C39   C40   A    
C4    H2    S    
C28   C29   A    
C15   H13   S    
C25   H20   S    
O5    Zn1   S    
C10   C13   A    
C41   N2    A    
C5    C8    A    
C40   H18   S    
C31   C38   A    
C13   C17   A    
C32   C33   A    
C28   C30   A    
C2    C3    S    
O1    Zn1   S    
C47   C48   S    
O9    C47   S    
O3    Zn1   S    
C6    C23   S    
C9    H11   S    
C42   H1    S    
C48   H34   S    
C10   C11   A    
C18   H8    S    
C17   H14   S    
C37   C39   A    
C23   O6    A    
C27   C28   A    
C1    O1    A    
C14   C15   A    
C45   H31   S    
C13   C14   A    
