data_mof_unit_51976.cif
_audit_creation_date              2013-03-05T15:41:39-0500
_audit_creation_method            fapswitch 2.2
_symmetry_space_group_name_H-M    P1
_symmetry_Int_Tables_number       1
_space_group_crystal_system       triclinic
_cell_length_a                    17.384802
_cell_length_b                    8.668764
_cell_length_c                    7.517959
_cell_angle_alpha                 102.588594
_cell_angle_beta                  93.407323
_cell_angle_gamma                 94.379378
_cell_volume                      1099.15224803

loop_
_atom_site_label
_atom_site_type_symbol
_atom_site_description
_atom_site_fract_x
_atom_site_fract_y
_atom_site_fract_z
_atom_type_partial_charge
O1    O     O_R   0.505650 0.286040 0.618880 -0.593253
O2    O     O_R   0.494350 0.713960 0.381120 -0.593253
O3    O     O_R   0.490960 0.256910 0.309800 -0.600600
O4    O     O_R   0.509040 0.743090 0.690200 -0.600600
C1    C     C_R   0.497250 0.199886 0.453808 0.891101
C2    C     C_R   0.502750 0.800114 0.546192 0.891101
O5    O     O_R   0.394600 0.516230 0.672450 -0.595522
O6    O     O_R   0.605400 0.483770 0.327550 -0.595523
O7    O     O_R   0.379910 0.487100 0.363380 -0.590391
O8    O     O_R   0.620090 0.512900 0.636620 -0.590390
C3    C     C_R   0.351059 0.501421 0.520474 0.793334
C4    C     C_R   0.648941 0.498579 0.479526 0.793334
Cu1   Cu    Cu3+1 0.508700 0.517250 0.683000 0.968069
Cu2   Cu    Cu3+1 0.491300 0.482750 0.317000 0.968068
C5    C     C_R   0.267013 0.511140 0.524141 -0.075932
C6    C     C_R   0.732987 0.488862 0.475859 -0.075929
C7    C     C_R   0.217253 0.476479 0.360619 -0.024941
C8    C     C_R   0.782748 0.523533 0.639380 -0.024942
C9    C     C_R   0.139697 0.501078 0.368643 -0.174027
C10   C     C_R   0.860304 0.498935 0.631357 -0.174025
C11   C     C_R   0.109045 0.550472 0.536346 0.116601
C12   C     C_R   0.890956 0.449530 0.463654 0.116600
C13   C     C_R   0.157042 0.584056 0.698564 -0.137764
C14   C     C_R   0.842957 0.415937 0.301437 -0.137767
C15   C     C_R   0.235760 0.565229 0.692415 -0.165868
C16   C     C_R   0.764240 0.434765 0.307585 -0.165869
C17   C     C_2   0.025747 0.562994 0.539348 -0.115529
C18   C     C_2   0.974254 0.437008 0.460653 -0.115516
H1    H     H_    0.727802 0.405696 0.180779 0.171183
H2    H     H_    0.272197 0.594292 0.819222 0.171187
H3    H     H_    0.133462 0.623461 0.829308 0.139423
H4    H     H_    0.866536 0.376526 0.170694 0.139424
H5    H     H_    0.897904 0.522190 0.756682 0.136523
H6    H     H_    0.102098 0.477832 0.243317 0.136523
C19   C     C_2   0.494943 0.031831 0.428059 -0.336952
C20   C     C_2   0.505056 0.968169 0.571940 -0.336952
H7    H     H_    0.484623 0.960175 0.289463 0.177464
H8    H     H_    0.515377 0.039825 0.710537 0.177464
N1    N     N_2   0.478180 0.456750 0.041980 -0.225436
N2    N     N_2   0.521820 0.543250 0.958020 -0.225437
C21   C     C_1   0.241457 0.411129 0.181514 0.264662
N3    N     N_1   0.259471 0.358274 0.036823 -0.279782
C22   C     C_1   0.758544 0.588890 0.818483 0.264658
N4    N     N_1   0.740529 0.641749 0.963173 -0.279774
C23   C     C_1   0.998505 0.281750 0.382209 0.270405
N5    N     N_1   0.017755 0.157871 0.319652 -0.253594
C24   C     C_1   0.001495 0.718259 0.617753 0.270410
N6    N     N_1   0.982246 0.842146 0.680269 -0.253590
C25   C     C_1   0.431503 0.329568 0.935188 0.570094
N7    N     N_1   0.392195 0.222714 0.847925 -0.329282
C26   C     C_1   0.568496 0.670432 0.064812 0.570093
N8    N     N_1   0.607804 0.777286 0.152075 -0.329281

loop_
_geom_bond_atom_site_label_1
_geom_bond_atom_site_label_2
_geom_bond_distance
_ccdc_geom_bond_type
O5    Cu1   1.979740 S    
O7    Cu2   1.989646 S    
C14   H4    1.083414 S    
N2    C26   1.385164 S    
C21   N3    1.156047 T    
C19   C20   1.325879 D    
O6    C4    1.308928 A    
C22   N4    1.156050 T    
O3    C1    1.286816 A    
C20   H8    1.087361 S    
C11   C17   1.461565 S    
C12   C18   1.461565 S    
Cu1   Cu2   2.698267 S    
O5    C3    1.308930 A    
O7    C3    1.295304 A    
O2    C2    1.294990 A    
O3    Cu2   1.946220 S    
O8    C4    1.295305 A    
O1    C1    1.294990 A    
C10   H5    1.086056 S    
C1    C19   1.424311 S    
C6    C8    1.422254 A    
C9    C11   1.391507 A    
C2    C20   1.424311 S    
C8    C10   1.383832 A    
C13   C15   1.392797 A    
C11   C13   1.398386 A    
C6    C16   1.406247 A    
O2    Cu2   1.952433 S    
C12   C14   1.398391 A    
C18   C23   1.451624 S    
C5    C15   1.406248 A    
C7    C21   1.443012 S    
O1    Cu1   1.952434 S    
C8    C22   1.443013 S    
C10   C12   1.391505 A    
C7    C9    1.383827 A    
C26   N8    1.157813 T    
N1    C25   1.385163 S    
C4    C6    1.471507 S    
N1    N2    1.308679 D    
C16   H1    1.082926 S    
O4    C2    1.286816 A    
C25   N7    1.157813 T    
C17   C24   1.451613 S    
O4    Cu1   1.946219 S    
C5    C7    1.422253 A    
C15   H2    1.082923 S    
Cu1   N2    2.027487 S    
O6    Cu2   1.979743 S    
C19   H7    1.087361 S    
Cu2   N1    2.027487 S    
C23   N5    1.157514 T    
C3    C5    1.471507 S    
C9    H6    1.086053 S    
C24   N6    1.157499 T    
C14   C16   1.392797 A    
C17   C18   1.360242 D    
O8    Cu1   1.989646 S    
C13   H3    1.083416 S    
