data_mof_unit_15593.cif
_audit_creation_date              2012-12-10T17:49:40-0500
_audit_creation_method            fapswitch 2.2
_symmetry_space_group_name_H-M    P1
_symmetry_Int_Tables_number       1
_space_group_crystal_system       triclinic
_cell_length_a                    10.49972
_cell_length_b                    10.636299
_cell_length_c                    9.946143
_cell_angle_alpha                 92.702018
_cell_angle_beta                  89.96187
_cell_angle_gamma                 91.739219
_cell_volume                      1109.02056316

loop_
_atom_site_label
_atom_site_type_symbol
_atom_type_description
_atom_site_fract_x
_atom_site_fract_y
_atom_site_fract_z
_atom_type_partial_charge
C1    C     C_R   0.508201 0.260443 0.497017 0.901372
C2    C     C_R   0.563083 0.067699 0.604452 0.071504
C3    C     C_R   0.516272 0.126728 0.491867 -0.098509
C4    C     C_R   0.257552 0.497636 0.499892 0.916403
C5    C     C_R   0.449954 0.058438 0.389706 -0.029760
C6    C     C_R   0.432861 0.930659 0.398316 -0.105537
C7    C     C_R   0.470377 0.873603 0.514895 -0.161195
C8    C     C_R   0.334207 0.334607 0.132267 -0.113010
C9    C     C_R   0.252084 0.252879 0.058347 -0.164722
C10   C     C_R   0.249690 0.254745 0.919555 -0.170829
C11   C     C_R   0.330309 0.337442 0.853360 -0.110969
C12   C     C_3   0.955229 0.435175 0.386832 -0.209289
C13   C     C_R   0.416136 0.420369 0.924267 0.143992
C14   C     C_R   0.417060 0.419652 0.068539 0.146805
C15   C     C_R   0.582862 0.573345 0.075173 0.000593
C16   C     C_R   0.488588 0.739747 0.504117 0.885943
C17   C     C_R   0.583561 0.572607 0.932272 -0.118828
C18   C     C_R   0.742274 0.499299 0.499994 0.901000
C19   C     C_3   0.043264 0.557661 0.612867 -0.212637
C20   C     C_3   0.955328 0.438148 0.609050 -0.216955
C21   C     C_3   0.877025 0.497080 0.500049 -0.053668
C22   C     C_3   0.961894 0.616446 0.504172 -0.140272
C23   C     C_3   0.036043 0.378354 0.495854 0.509231
C24   C     C_3   0.043152 0.554652 0.391167 -0.206276
C25   C     C_3   0.122408 0.495856 0.499835 -0.107093
C26   C     C_R   0.648553 0.128144 0.697354 -0.178647
C27   C     C_R   0.666348 0.079189 0.822632 -0.258779
C28   C     C_R   0.591672 0.976087 0.861072 0.493640
C29   C     C_R   0.510974 0.911163 0.765074 0.013934
C30   C     C_R   0.515102 0.947582 0.628762 0.007234
H1    H     H_    0.915821 0.389815 0.697156 0.166241
H2    H     H_    0.926546 0.713883 0.507611 0.153422
H3    H     H_    0.082656 0.602185 0.302571 0.177646
H4    H     H_    0.915639 0.384467 0.295295 0.173647
H5    H     H_    0.411395 0.103539 0.303861 0.199421
H6    H     H_    0.699720 0.214454 0.674277 0.182776
H7    H     H_    0.731064 0.128025 0.893447 0.177072
H8    H     H_    0.707615 0.082338 0.145396 0.371946
H9    H     H_    0.337161 0.817497 0.737587 0.193457
H10   H     H_    0.440321 0.748834 0.840654 0.241049
H11   H     H_    0.980115 0.038729 0.504518 0.385504
H12   H     H_    0.389977 0.876194 0.314536 0.204412
H13   H     H_    0.650494 0.633301 0.131865 0.197622
H14   H     H_    0.331689 0.327696 0.238674 0.223777
H15   H     H_    0.189958 0.187159 0.108439 0.209627
H16   H     H_    0.185299 0.190998 0.862966 0.206448
H17   H     H_    0.323671 0.332820 0.746870 0.242649
H18   H     H_    0.651395 0.632745 0.881820 0.175613
H19   H     H_    0.082983 0.607687 0.704730 0.171728
N1    N     N_R   0.498800 0.498800 0.142780 -0.140873
N2    N     N_R   0.498760 0.498720 0.857170 -0.146289
N3    N     N_3   0.406430 0.834567 0.812219 -0.384449
O1    O     O_R   0.500000 0.316780 0.614690 -0.634222
O2    O     O_2   0.716277 0.858448 0.048636 -0.361309
O3    O     O_3   0.614996 0.068558 0.129675 -0.563601
O4    O     O_2   0.141893 0.185886 0.356213 -0.368315
O5    O     O_2   0.172767 0.195897 0.600307 -0.369283
O6    O     O_3   0.949198 0.125859 0.506922 -0.566637
O7    O     O_R   0.499990 0.316750 0.385360 -0.633527
O8    O     O_R   0.313960 0.499980 0.614650 -0.647814
O9    O     O_R   0.313940 0.499960 0.385310 -0.643128
O10   O     O_R   0.500010 0.683250 0.614640 -0.641624
O11   O     O_R   0.500000 0.683220 0.385310 -0.587624
O12   O     O_R   0.686060 0.500040 0.614690 -0.628668
O13   O     O_R   0.686040 0.500020 0.385350 -0.619488
O14   O     O_2   0.484543 0.861811 0.073478 -0.308013
S1    S     S_3+6 0.600565 0.935845 0.031098 -0.013556
S2    S     S_3+6 0.080677 0.217799 0.489235 -0.032437
Zn1   Zn    Zn3+2 0.500010 0.500020 0.653130 0.929399
Zn2   Zn    Zn3+2 0.499990 0.499980 0.346870 0.972725

loop_
_geom_bond_atom_site_label_1
_geom_bond_atom_site_label_2
_ccdc_geom_bond_type
O9    Zn2   S    
C23   S2    S    
O3    S1    S    
C17   H18   S    
C9    H15   S    
C6    C7    A    
C20   H1    S    
C16   O11   A    
C17   N2    A    
C18   C21   S    
N2    Zn1   S    
C9    C10   A    
C19   H19   S    
C11   H17   S    
C24   H3    S    
O11   Zn2   S    
C2    C30   A    
O1    Zn1   S    
C4    O8    A    
C1    O7    A    
C2    C3    A    
N1    Zn2   S    
C15   H13   S    
C2    C26   A    
C7    C30   A    
C13   N2    A    
O12   Zn1   S    
C24   C25   S    
C18   O13   A    
C1    O1    A    
C11   C13   A    
C12   C23   S    
C18   O12   A    
C26   C27   A    
C29   C30   A    
C22   H2    S    
O8    Zn1   S    
C27   H7    S    
C5    H5    S    
C21   C22   S    
C7    C16   S    
C8    H14   S    
H11   O6    S    
O14   S1    D    
C23   C25   S    
C5    C6    A    
C19   C25   S    
C22   C24   S    
C15   N1    A    
C10   C11   A    
C14   N1    A    
O7    Zn2   S    
C12   H4    S    
O13   Zn2   S    
C12   C21   S    
C4    C25   S    
C10   H16   S    
C26   H6    S    
C28   S1    S    
C20   C21   S    
C29   N3    S    
C19   C22   S    
C6    H12   S    
O4    S2    D    
O6    S2    S    
C27   C28   A    
C15   C17   A    
C12   C24   S    
C28   C29   A    
C8    C14   A    
O2    S1    D    
O5    S2    D    
C3    C5    A    
C13   C14   A    
C20   C23   S    
C4    O9    A    
C16   O10   A    
H8    O3    S    
C19   C20   S    
O10   Zn1   S    
H9    N3    S    
C8    C9    A    
C1    C3    S    
H10   N3    S    
