data_mof_unit_19455.cif
_audit_creation_date              2012-12-11T15:47:09-0500
_audit_creation_method            fapswitch 2.2
_symmetry_space_group_name_H-M    P1
_symmetry_Int_Tables_number       1
_space_group_crystal_system       triclinic
_cell_length_a                    20.210431
_cell_length_b                    7.256955
_cell_length_c                    13.547103
_cell_angle_alpha                 89.995109
_cell_angle_beta                  103.145694
_cell_angle_gamma                 90.005231
_cell_volume                      1934.83498403

loop_
_atom_site_label
_atom_site_type_symbol
_atom_type_description
_atom_site_fract_x
_atom_site_fract_y
_atom_site_fract_z
_atom_type_partial_charge
O1    O     O_R   0.449560 0.506810 0.599700 -0.540986
O2    O     O_R   0.550440 0.006810 0.400300 -0.541004
O3    O     O_R   0.587960 0.180060 0.595760 -0.551041
O4    O     O_R   0.412040 0.680060 0.404240 -0.550999
C1    C     C_R   0.614940 0.344185 0.617466 0.702034
C2    C     C_R   0.385060 0.844182 0.382535 0.701931
O5    O     O_R   0.452380 0.177430 0.611700 -0.520282
O6    O     O_R   0.547620 0.677430 0.388300 -0.520147
O7    O     O_R   0.413900 0.001890 0.416350 -0.530858
O8    O     O_R   0.586100 0.501890 0.583650 -0.530865
C3    C     C_R   0.435940 0.345733 0.637049 0.754124
C4    C     C_R   0.564065 0.845755 0.362955 0.753965
O9    O     O_3   0.487530 0.337490 0.435890 -0.383516
O10   O     O_3   0.512470 0.837490 0.564110 -0.383606
V1    V     V_3+5 0.502310 0.064660 0.511890 1.484292
V2    V     V_3+5 0.497690 0.564660 0.488110 1.484481
C5    C     C_R   0.612244 0.928026 0.115845 -0.154276
C6    C     C_R   0.387807 0.426537 0.884318 -0.154274
H1    H     H_    0.520380 0.944623 0.168790 0.119471
H2    H     H_    0.479694 0.443194 0.831430 0.119427
H3    H     H_    0.693598 0.933860 0.987834 0.119248
H4    H     H_    0.306459 0.431520 0.012350 0.119193
H5    H     H_    0.586693 0.964339 0.039009 0.123139
H6    H     H_    0.413389 0.462135 0.961251 0.123140
C7    C     C_R   0.605017 0.856299 0.286952 -0.077289
C8    C     C_R   0.394974 0.356158 0.713031 -0.077268
C9    C     C_R   0.932558 0.860934 0.317387 -0.169300
C10   C     C_R   0.067433 0.362038 0.682598 -0.169330
C11   C     C_R   0.897506 0.873195 0.394211 -0.127110
C12   C     C_R   0.102497 0.374769 0.605803 -0.127076
C13   C     C_R   0.826744 0.877967 0.370866 -0.079443
C14   C     C_R   0.173263 0.379110 0.629162 -0.079435
C15   C     C_R   0.788913 0.861622 0.269693 0.095574
C16   C     C_R   0.211082 0.361831 0.730299 0.095519
C17   C     C_R   0.825217 0.866337 0.191048 0.061720
C18   C     C_R   0.174783 0.366001 0.808959 0.061714
C19   C     C_R   0.716250 0.858935 0.243674 0.007794
C20   C     C_R   0.283742 0.358769 0.756310 0.007742
C21   C     C_R   0.682604 0.899044 0.141748 0.102019
C22   C     C_R   0.317422 0.397959 0.858340 0.102006
C23   C     C_R   0.719283 0.909193 0.066115 -0.180296
C24   C     C_R   0.280753 0.407569 0.934003 -0.180318
C25   C     C_R   0.789213 0.885456 0.089683 -0.185941
C26   C     C_R   0.210804 0.384201 0.910375 -0.185907
C27   C     C_R   0.675113 0.817392 0.313462 0.293511
C28   C     C_R   0.324845 0.317689 0.686414 0.293525
C29   C     C_R   0.574330 0.915012 0.189174 -0.237325
C30   C     C_R   0.425713 0.413980 0.810960 -0.237560
C31   C     C_R   0.897148 0.861035 0.215999 -0.070370
C32   C     C_R   0.102845 0.361170 0.783991 -0.070395
H7    H     H_    0.987622 0.859451 0.336845 0.113174
H8    H     H_    0.012367 0.360986 0.663134 0.113183
H9    H     H_    0.802884 0.906485 0.432671 0.173457
H10   H     H_    0.197145 0.408062 0.567428 0.173513
H11   H     H_    0.925369 0.883841 0.472342 0.129745
H12   H     H_    0.074641 0.386168 0.527697 0.129755
H13   H     H_    0.815121 0.891349 0.028030 0.112989
H14   H     H_    0.184903 0.389656 0.972046 0.112954
C33   C     C_R   0.216973 0.022970 0.224819 -0.145716
C34   C     C_R   0.783049 0.522961 0.775132 -0.145779
H15   H     H_    0.192759 0.155719 0.206884 0.121959
H16   H     H_    0.807282 0.655704 0.793026 0.121957
C35   C     C_R   0.282150 0.018524 0.288231 -0.105242
C36   C     C_R   0.717872 0.518520 0.711721 -0.105307
H17   H     H_    0.305809 0.147451 0.317239 0.138723
H18   H     H_    0.694230 0.647442 0.682673 0.138602
C37   C     C_R   0.316063 0.850143 0.313961 -0.035677
C38   C     C_R   0.683936 0.350148 0.686040 -0.035572
C39   C     C_R   0.282926 0.686301 0.274324 -0.150745
C40   C     C_R   0.717052 0.186309 0.725725 -0.150900
H19   H     H_    0.307237 0.553663 0.292265 0.125716
H20   H     H_    0.692722 0.053678 0.707824 0.125615
C41   C     C_R   0.217756 0.690708 0.210892 -0.152143
C42   C     C_R   0.782222 0.190712 0.789156 -0.152235
H21   H     H_    0.194202 0.561682 0.181855 0.120056
H22   H     H_    0.805759 0.061691 0.818232 0.120014
C43   C     C_R   0.183732 0.859083 0.185318 -0.041674
C44   C     C_R   0.816268 0.359078 0.814680 -0.041613
O11   O     O_R   0.913920 0.203370 0.916260 -0.540215
O12   O     O_R   0.086080 0.703370 0.083740 -0.540191
O13   O     O_R   0.047620 0.535540 0.888290 -0.537498
O14   O     O_R   0.952380 0.035540 0.111710 -0.537499
C45   C     C_R   0.063561 0.368322 0.862237 0.683024
C46   C     C_R   0.936436 0.868300 0.137759 0.683030
O15   O     O_R   0.912040 0.532780 0.904220 -0.545557
O16   O     O_R   0.087960 0.032780 0.095780 -0.545562
O17   O     O_R   0.949550 0.708160 0.099720 -0.535100
O18   O     O_R   0.050450 0.208160 0.900280 -0.535122
C47   C     C_R   0.885433 0.364927 0.882984 0.677154
C48   C     C_R   0.114567 0.864930 0.117015 0.677183
O19   O     O_3   0.012480 0.375300 0.064060 -0.378220
O20   O     O_3   0.987520 0.875300 0.935940 -0.378237
V3    V     V_3+5 0.997690 0.648180 0.988110 1.419882
V4    V     V_3+5 0.002310 0.148180 0.011890 1.419855
Cl1   Cl    Cl    0.705504 0.686170 0.425232 -0.702483
Cl2   Cl    Cl    0.294352 0.187420 0.574319 -0.702604

loop_
_geom_bond_atom_site_label_1
_geom_bond_atom_site_label_2
_ccdc_geom_bond_type
C20   C22   A    
C35   H17   S    
O14   V4    S    
C9    C11   A    
C23   C25   A    
O15   V3    S    
O1    C3    A    
C46   O17   A    
O2    C4    A    
C33   C43   A    
C2    O7    A    
C18   C32   A    
C21   C23   A    
O5    C3    A    
C34   C44   A    
C5    H5    S    
C42   H22   S    
C6    H6    S    
C36   C38   A    
C31   C46   S    
H1    C29   S    
C34   H16   S    
C5    C21   A    
C39   H19   S    
C6    C22   A    
O16   V4    S    
C10   C32   A    
C26   H14   S    
C40   C42   A    
C13   C15   A    
C39   C41   A    
C17   C25   A    
C7    C29   A    
C8    C30   A    
C22   C24   A    
C45   O18   A    
O6    V2    S    
C41   H21   S    
C24   C26   A    
C1    C38   S    
C14   H10   S    
O13   C45   A    
C9    H7    S    
C32   C45   S    
O18   V4    S    
C44   C47   S    
C19   C21   A    
C35   C37   A    
C43   C48   S    
C33   H15   S    
C20   C28   A    
O11   V4    S    
O4    C2    A    
O16   C48   A    
O15   C47   A    
C11   H11   S    
C3    C8    S    
C12   H12   S    
C15   C19   A    
C37   C39   A    
C14   C16   A    
O4    V2    S    
C17   C31   A    
O13   V3    S    
O6    C4    A    
O1    V2    S    
C13   H9    S    
O2    V1    S    
H2    C30   S    
H3    C23   S    
C2    C37   S    
O14   C46   A    
C18   C26   A    
C19   C27   A    
C27   Cl1   S    
C7    C27   A    
O3    V1    S    
C16   C20   A    
C5    C29   A    
O3    C1    A    
C6    C30   A    
C33   C35   A    
C4    C7    S    
C34   C36   A    
C10   C12   A    
O7    V1    S    
C1    O8    A    
C11   C13   A    
O8    V2    S    
O19   V4    S    
C12   C14   A    
C10   H8    S    
H4    C24   S    
O17   V3    S    
O5    V1    S    
O20   V3    S    
C15   C17   A    
C16   C18   A    
O12   C48   A    
O11   C47   A    
C25   H13   S    
C28   Cl2   S    
C38   C40   A    
C42   C44   A    
O9    V2    S    
C41   C43   A    
O10   V1    S    
C40   H20   S    
O12   V3    S    
C8    C28   A    
C9    C31   A    
C36   H18   S    
