data_mof_unit_11846.cif
_audit_creation_date              2013-03-05T15:45:35-0500
_audit_creation_method            fapswitch 2.2
_symmetry_space_group_name_H-M    P1
_symmetry_Int_Tables_number       1
_space_group_crystal_system       triclinic
_cell_length_a                    27.743859
_cell_length_b                    10.618913
_cell_length_c                    10.002541
_cell_angle_alpha                 91.590867
_cell_angle_beta                  90.190125
_cell_angle_gamma                 90.351291
_cell_volume                      2945.63569582

loop_
_atom_site_label
_atom_site_type_symbol
_atom_site_description
_atom_site_fract_x
_atom_site_fract_y
_atom_site_fract_z
_atom_type_partial_charge
O1    O     O_R   0.499990 0.319060 0.613040 -0.610189
O2    O     O_R   0.500010 0.319100 0.386900 -0.622199
C1    C     C_R   0.501744 0.262407 0.497814 0.915309
O3    O     O_R   0.428750 0.500000 0.613050 -0.614102
O4    O     O_R   0.428760 0.500040 0.386920 -0.614360
C2    C     C_R   0.406022 0.499560 0.499719 0.875141
Zn1   Zn    Zn3+2 0.499990 0.499970 0.650990 0.943657
Zn2   Zn    Zn3+2 0.500010 0.500030 0.349010 0.956162
O5    O     O_R   0.499990 0.680900 0.613100 -0.618772
O6    O     O_R   0.500010 0.680940 0.386960 -0.609574
O7    O     O_R   0.571240 0.499960 0.613080 -0.627773
O8    O     O_R   0.571250 0.500000 0.386950 -0.569025
C3    C     C_R   0.502985 0.737652 0.502225 0.955682
C4    C     C_R   0.594020 0.500165 0.500069 0.926617
C5    C     C_R   0.177786 0.382516 0.452030 0.490607
O9    O     O_2   0.203807 0.278803 0.422557 -0.579595
N1    N     N_R   0.201546 0.489336 0.494590 -0.349569
C6    C     C_R   0.177865 0.595497 0.535017 0.489463
C7    C     C_R   0.278133 0.491932 0.375565 -0.114853
C8    C     C_R   0.328171 0.495262 0.376638 -0.213349
C9    C     C_R   0.327768 0.495316 0.619634 -0.218357
C10   C     C_R   0.277694 0.491984 0.618189 -0.099069
C11   C     C_R   0.252925 0.490423 0.496205 0.332966
C12   C     C_R   0.101757 0.489150 0.490538 -0.073285
C13   C     C_R   0.126859 0.380413 0.443825 -0.058585
C14   C     C_R   0.099919 0.275498 0.391802 0.121369
C15   C     C_R   0.127683 0.597330 0.534830 -0.006649
C16   C     C_R   0.353346 0.497070 0.498756 -0.043957
H1    H     H_    0.346352 0.496469 0.715052 0.164669
H2    H     H_    0.258062 0.490778 0.711545 0.138004
C17   C     C_R   0.646822 0.498680 0.500492 -0.201205
C18   C     C_R   0.973932 0.377171 0.473986 0.055300
C19   C     C_R   0.975134 0.605099 0.527775 0.043257
C20   C     C_R   0.949310 0.491131 0.503234 0.075537
C21   C     C_R   0.946928 0.263945 0.462700 -0.220915
C22   C     C_R   0.897005 0.264423 0.470273 -0.139315
C23   C     C_R   0.872323 0.377571 0.489839 -0.042437
C24   C     C_R   0.898346 0.491211 0.507200 -0.055913
C25   C     C_R   0.873329 0.605054 0.527652 -0.022224
C26   C     C_R   0.822962 0.603385 0.528159 0.494144
N2    N     N_R   0.798594 0.491991 0.510965 -0.328827
C27   C     C_R   0.821945 0.380107 0.492594 0.573484
C28   C     C_R   0.723798 0.532729 0.393354 -0.323957
C29   C     C_R   0.673320 0.533077 0.386568 0.458417
C30   C     C_R   0.670928 0.459242 0.615572 -0.400567
C31   C     C_R   0.721070 0.457180 0.620268 0.535918
C32   C     C_R   0.747293 0.493253 0.508200 0.175783
O10   O     O_2   0.796389 0.272222 0.475568 -0.555523
C33   C     C_R   0.024612 0.379728 0.458150 0.013313
C34   C     C_R   0.050703 0.490435 0.493617 0.068698
C35   C     C_R   0.026112 0.602474 0.532980 0.055003
C36   C     C_R   0.049739 0.276058 0.403085 -0.246141
H3    H     H_    0.745131 0.563294 0.309676 0.158268
H4    H     H_    0.877820 0.175470 0.460108 0.189158
H5    H     H_    0.963533 0.172687 0.451688 0.138636
H6    H     H_    0.030600 0.195380 0.361274 0.141377
O11   O     O_2   0.203074 0.698974 0.575470 -0.576928
C37   C     C_R   0.103223 0.705100 0.579000 -0.162064
H7    H     H_    0.347041 0.496472 0.282069 0.165544
H8    H     H_    0.258846 0.491189 0.281232 0.134657
H9    H     H_    0.122530 0.788274 0.615354 0.184504
C38   C     C_R   0.948934 0.718155 0.545417 -0.222866
C39   C     C_R   0.898946 0.717866 0.545200 -0.139650
O12   O     O_2   0.798390 0.711901 0.545819 -0.570863
C40   C     C_R   0.053414 0.708019 0.577795 -0.220003
H10   H     H_    0.966015 0.809336 0.555680 0.138425
H11   H     H_    0.650943 0.428738 0.701836 0.193808
H12   H     H_    0.880449 0.806864 0.558750 0.190131
H13   H     H_    0.037332 0.793403 0.616954 0.138743
C41   C     C_2   0.530834 0.929678 0.406259 -0.178320
C42   C     C_2   0.513791 0.868573 0.510772 -0.375453
H14   H     H_    0.539938 0.880672 0.312948 0.177749
H15   H     H_    0.510094 0.914771 0.608569 0.157817
C43   C     C_2   0.536628 0.065832 0.416979 0.135109
C44   C     C_2   0.503558 0.129426 0.490406 -0.338370
H16   H     H_    0.474099 0.082813 0.540808 0.129936
C45   C     C_2   0.479829 0.585734 0.927267 -0.134996
N3    N     N_2   0.500520 0.501330 0.852150 -0.191134
H17   H     H_    0.459400 0.658958 0.879661 0.161876
H18   H     H_    0.522740 0.437497 0.896265 0.165293
C46   C     C_2   0.483450 0.591139 0.077368 -0.123675
N4    N     N_2   0.500540 0.501360 0.147810 -0.191063
H19   H     H_    0.469633 0.674405 0.129038 0.164404
H20   H     H_    0.509622 0.418271 0.099694 0.155466
O13   O     O_3   0.744475 0.412194 0.731144 -0.588994
C47   C     C_3   0.750697 0.512359 0.825405 0.082717
H21   H     H_    0.715301 0.551053 0.858087 0.136134
H22   H     H_    0.772853 0.589390 0.783215 0.174365
C48   C     C_3   0.776854 0.464072 0.947454 -0.814578
H23   H     H_    0.812544 0.425779 0.917836 0.269582
H24   H     H_    0.782366 0.542247 0.022095 0.199478
H25   H     H_    0.755232 0.388576 0.993765 0.253748
C49   C     C_3   0.578758 0.126079 0.344912 -0.410498
C50   C     C_3   0.626947 0.082952 0.403193 -0.354024
C51   C     C_3   0.669457 0.148241 0.336965 -0.806667
H26   H     H_    0.669373 0.127237 0.227558 0.253634
H27   H     H_    0.667542 0.251712 0.354884 0.251958
H28   H     H_    0.703747 0.114042 0.380050 0.287709
H29   H     H_    0.628026 0.105472 0.512424 0.235463
H30   H     H_    0.630748 0.979377 0.387995 0.242366
H31   H     H_    0.576711 0.098739 0.236949 0.195311
H32   H     H_    0.578153 0.230269 0.352199 0.218911
C52   C     C_3   0.121578 0.163782 0.315675 -0.356805
C53   C     C_3   0.132058 0.054762 0.408838 -0.308532
C54   C     C_3   0.156250 0.945790 0.333045 -0.817860
H33   H     H_    0.132358 0.908957 0.251452 0.247852
H34   H     H_    0.190981 0.977334 0.289882 0.277546
H35   H     H_    0.163627 0.868519 0.402397 0.275175
H36   H     H_    0.155838 0.086897 0.492702 0.266366
H37   H     H_    0.097715 0.020381 0.452236 0.198806
H38   H     H_    0.095842 0.129367 0.237054 0.171436
H39   H     H_    0.153794 0.191559 0.257997 0.239792
O14   O     O_3   0.649214 0.575848 0.274672 -0.583862
C55   C     C_3   0.666873 0.518303 0.155446 0.104735
H40   H     H_    0.680396 0.420807 0.170062 0.129478
H41   H     H_    0.696283 0.577314 0.114818 0.149115
C56   C     C_3   0.626374 0.509391 0.052796 -0.797707
H42   H     H_    0.611568 0.604359 0.034598 0.261214
H43   H     H_    0.640089 0.468213 0.957207 0.197816
H44   H     H_    0.597282 0.447514 0.089892 0.245096

loop_
_geom_bond_atom_site_label_1
_geom_bond_atom_site_label_2
_geom_bond_distance
_ccdc_geom_bond_type
C49   C50   1.534332 S    
N2    C27   1.364958 A    
C51   H26   1.110758 S    
C12   C15   1.411668 A    
C4    C17   1.465120 S    
C44   H16   1.085712 S    
C55   H40   1.116607 S    
C51   H28   1.110330 S    
C45   N3    1.291957 D    
Zn1   O7    2.014027 S    
C54   H34   1.110817 S    
N1    C11   1.425456 S    
Zn2   N4    2.013056 S    
O4    C2    1.294601 A    
C22   C23   1.395982 A    
C56   H43   1.109694 S    
C53   H36   1.110423 S    
O7    C4    1.296953 A    
N3    H18   1.026719 S    
C5    C13   1.415024 A    
C5    O9    1.346897 S    
C52   H38   1.113090 S    
C35   C40   1.410760 A    
C23   C27   1.398450 A    
O5    C3    1.279504 A    
C48   H25   1.110720 S    
C6    O11   1.350655 S    
C31   C32   1.399440 A    
C28   H3    1.082699 S    
C2    C16   1.461510 S    
C21   C22   1.387402 A    
C19   C38   1.414400 A    
C30   H11   1.083220 S    
O6    C3    1.288014 A    
C41   C42   1.332151 D    
C50   H30   1.111825 S    
C48   H24   1.110491 S    
C1    C44   1.413218 S    
C31   O13   1.381406 S    
C37   H9    1.083648 S    
O1    Zn1   1.947847 S    
C9    C10   1.389491 A    
C43   C49   1.522230 S    
O3    Zn1   2.011342 S    
C53   C54   1.525921 S    
C46   H19   1.084421 S    
C46   N4    1.292582 D    
C45   H17   1.084795 S    
C12   C34   1.417002 A    
C54   H35   1.108652 S    
C17   C29   1.413424 A    
C38   H10   1.077563 S    
C21   H5    1.078589 S    
C18   C21   1.414405 A    
C12   C13   1.420798 A    
O3    C2    1.295227 A    
C43   C44   1.349721 D    
C56   H44   1.109013 S    
C49   H31   1.111618 S    
C25   C26   1.397409 A    
C42   H15   1.087543 S    
C47   H21   1.113397 S    
C8    C16   1.404668 A    
C34   C35   1.421854 A    
C13   C14   1.423252 A    
O13   C47   1.411058 S    
C9    H1    1.083000 S    
C15   C37   1.395997 A    
C52   H39   1.108307 S    
O1    C1    1.286421 A    
C18   C20   1.417203 A    
C7    C11   1.397168 A    
C28   C29   1.401892 A    
C41   C43   1.454682 S    
C23   C24   1.408722 A    
C14   C36   1.397169 A    
C14   C52   1.519826 S    
C37   C40   1.382454 A    
C45   C46   1.503896 S    
Zn2   O8    2.011345 S    
C33   C36   1.406940 A    
C38   C39   1.386861 A    
N1    C6    1.360713 A    
N2    C32   1.423617 S    
C27   O10   1.350024 S    
C8    H7    1.083001 S    
Zn1   N3    2.011766 S    
C26   N2    1.365268 A    
C9    C16   1.404494 A    
O8    C4    1.294012 A    
C29   O14   1.390418 S    
N4    H20   1.026431 S    
C25   C39   1.395711 A    
O14   C55   1.415168 S    
Zn1   O5    1.968600 S    
C39   H12   1.083574 S    
C10   H2    1.082949 S    
C20   C24   1.414631 A    
O2    Zn2   1.968601 S    
C6    C15   1.392496 A    
C47   C48   1.520964 S    
C49   H32   1.107001 S    
O4    Zn2   2.014024 S    
C55   H41   1.110699 S    
C51   H27   1.109972 S    
C5    N1    1.365498 A    
C7    H8    1.083003 S    
C19   C35   1.415605 A    
C3    C42   1.420586 S    
C54   H33   1.110826 S    
C26   O12   1.350164 S    
C7    C8    1.388479 A    
O2    C1    1.277750 A    
C56   H42   1.110697 S    
C53   H37   1.112131 S    
C24   C25   1.408010 A    
C50   H29   1.112209 S    
C40   H13   1.077490 S    
C19   C20   1.417701 A    
C47   H22   1.113451 S    
C50   C51   1.526795 S    
C18   C33   1.415649 A    
C55   C56   1.520297 S    
C22   H4    1.083536 S    
C30   C31   1.392097 A    
Zn2   O6    1.947846 S    
C33   C34   1.412990 A    
C17   C30   1.404542 A    
C52   C53   1.534707 S    
C10   C11   1.398020 A    
C41   H14   1.087180 S    
C48   H23   1.110760 S    
C28   C32   1.394768 A    
C36   H6    1.078826 S    
