data_mof_unit_65905.cif
_audit_creation_date              2012-10-26T20:49:16-0400
_audit_creation_method            fapswitch 2.2
_symmetry_space_group_name_H-M    P1
_symmetry_Int_Tables_number       1
_space_group_crystal_system       triclinic
_cell_length_a                    19.453611
_cell_length_b                    18.113502
_cell_length_c                    19.311204
_cell_angle_alpha                 90.002339
_cell_angle_beta                  89.622643
_cell_angle_gamma                 90.000742
_cell_volume                      6804.59971676

loop_
_atom_site_label
_atom_site_type_symbol
_atom_type_description
_atom_site_fract_x
_atom_site_fract_y
_atom_site_fract_z
_atom_type_partial_charge
C1    C     C_R   0.367513 0.500018 0.499863 0.579958
C2    C     C_R   0.964579 0.451613 0.456727 -0.101973
C3    C     C_R   0.072172 0.500326 0.499804 0.029799
C4    C     C_R   0.927940 0.500337 0.499775 0.030811
C5    C     C_R   0.450225 0.720796 0.535292 0.066937
C6    C     C_R   0.464123 0.279162 0.549546 0.037890
C7    C     C_R   0.549770 0.720806 0.464712 0.067330
C8    C     C_R   0.535867 0.279137 0.450462 0.037835
C9    C     C_R   0.448413 0.798715 0.536578 0.008734
C10   C     C_R   0.462807 0.201238 0.551291 0.000617
C11   C     C_R   0.551565 0.798724 0.463432 0.008679
C12   C     C_R   0.632487 0.500018 0.500124 0.579929
C13   C     C_R   0.537172 0.201213 0.448745 0.000737
C14   C     C_R   0.499985 0.838923 0.500003 -0.045070
C15   C     C_R   0.499990 0.161032 0.500024 -0.045322
C16   C     C_R   0.543089 0.961168 0.544907 -0.022179
C17   C     C_R   0.457201 0.038764 0.454819 -0.022955
C18   C     C_R   0.456885 0.961172 0.455117 -0.021942
C19   C     C_R   0.542770 0.038761 0.545221 -0.022753
C20   C     C_R   0.499985 0.078317 0.500024 0.111246
C21   C     C_R   0.499987 0.921620 0.500008 0.109506
C22   C     C_R   0.499831 0.500119 0.367279 0.581994
C23   C     C_R   0.852235 0.500262 0.499834 0.029436
C24   C     C_R   0.500220 0.500121 0.632719 0.582299
C25   C     C_R   0.453497 0.543555 0.253310 0.028739
C26   C     C_R   0.452106 0.453497 0.745455 0.028731
C27   C     C_R   0.546724 0.543327 0.746713 0.028651
C28   C     C_R   0.547759 0.453310 0.254509 0.028948
C29   C     C_R   0.452658 0.539411 0.181097 -0.102152
C30   C     C_R   0.456117 0.448753 0.817704 -0.105751
C31   C     C_R   0.547480 0.539184 0.818932 -0.102029
C32   C     C_R   0.543673 0.448574 0.182262 -0.105786
C33   C     C_R   0.497359 0.492274 0.145654 -0.013856
C34   C     C_R   0.147813 0.500256 0.499868 0.028894
C35   C     C_R   0.502561 0.492263 0.854343 -0.013875
C36   C     C_R   0.501320 0.500219 0.290977 -0.032980
C37   C     C_R   0.498728 0.500223 0.709018 -0.033034
C38   C     C_R   0.501767 0.491676 0.930033 0.341927
C39   C     C_R   0.498107 0.491683 0.069964 0.341944
C40   C     C_R   0.744383 0.433203 0.499082 -0.095983
C41   C     C_R   0.255755 0.567079 0.498913 -0.108447
C42   C     C_R   0.255615 0.433192 0.500911 -0.096304
C43   C     C_R   0.744247 0.567075 0.500850 -0.108412
C44   C     C_R   0.815954 0.433306 0.499006 -0.107742
C45   C     C_R   0.707952 0.500092 0.500046 0.036187
C46   C     C_R   0.184182 0.567134 0.498974 -0.106412
C47   C     C_R   0.184043 0.433298 0.500824 -0.107788
C48   C     C_R   0.815819 0.567136 0.500734 -0.106065
C49   C     C_2   0.401138 0.591162 0.286859 0.574745
C50   C     C_2   0.396140 0.411799 0.710812 0.576716
C51   C     C_2   0.599370 0.590637 0.713218 0.574371
C52   C     C_2   0.603647 0.411450 0.289105 0.576584
C53   C     C_2   0.392453 0.835429 0.577028 0.568201
C54   C     C_2   0.421648 0.164390 0.606765 0.562116
C55   C     C_2   0.607521 0.835454 0.422996 0.568340
C56   C     C_R   0.292049 0.500090 0.499879 0.036314
C57   C     C_2   0.578316 0.164331 0.393283 0.561884
C58   C     C_R   0.964007 0.549088 0.542808 -0.102689
C59   C     C_R   0.036154 0.451563 0.456794 -0.103565
C60   C     C_R   0.035585 0.549127 0.542771 -0.101589
Cu1   Cu    Cu3+1 0.500000 0.573360 0.500000 1.049283
Cu2   Cu    Cu3+1 0.500000 0.426640 0.500000 1.009460
H1    H     H_    0.416540 0.572835 0.152195 0.164092
H2    H     H_    0.157226 0.619422 0.497453 0.124833
H3    H     H_    0.156965 0.381071 0.502359 0.118462
H4    H     H_    0.842719 0.619484 0.500494 0.124916
H5    H     H_    0.936836 0.586401 0.577211 0.118257
H6    H     H_    0.063394 0.414169 0.422517 0.118348
H7    H     H_    0.062370 0.586506 0.577068 0.122260
H8    H     H_    0.937868 0.414290 0.422326 0.119470
H9    H     H_    0.411967 0.689289 0.563488 0.165115
H10   H     H_    0.435444 0.310585 0.587605 0.185619
H11   H     H_    0.588036 0.689308 0.436514 0.165261
H12   H     H_    0.420422 0.413926 0.846095 0.180493
H13   H     H_    0.564550 0.310537 0.412391 0.185594
H14   H     H_    0.576670 0.931839 0.579940 0.120357
H15   H     H_    0.423811 0.068090 0.419600 0.116546
H16   H     H_    0.423303 0.931846 0.420079 0.120583
H17   H     H_    0.576162 0.068084 0.580444 0.116734
H18   H     H_    0.300552 0.615740 0.297805 0.344363
H19   H     H_    0.333575 0.322967 0.712174 0.361494
H20   H     H_    0.700048 0.615108 0.702937 0.343279
H21   H     H_    0.666040 0.322481 0.287647 0.360940
H22   H     H_    0.358508 0.925472 0.628530 0.354422
H23   H     H_    0.583710 0.572438 0.847869 0.164435
H24   H     H_    0.368380 0.074944 0.638923 0.354322
H25   H     H_    0.641397 0.925463 0.371400 0.354513
H26   H     H_    0.631704 0.074926 0.361227 0.354226
H27   H     H_    0.579225 0.413603 0.153844 0.180503
H28   H     H_    0.717662 0.380749 0.498521 0.141919
H29   H     H_    0.282578 0.619475 0.497946 0.149205
H30   H     H_    0.282329 0.380746 0.501964 0.141973
H31   H     H_    0.717427 0.619478 0.501400 0.149372
H32   H     H_    0.842950 0.381017 0.499157 0.117513
N1    N     N_R   0.499256 0.427039 0.034466 -0.197000
N2    N     N_R   0.501159 0.556226 0.965588 -0.205372
N3    N     N_R   0.500395 0.427036 0.965528 -0.196856
N4    N     N_R   0.498934 0.556230 0.034413 -0.205226
N5    N     N_R   0.500000 0.683620 0.500000 -0.247459
N6    N     N_R   0.500000 0.316380 0.500000 -0.270235
O1    O     O_R   0.400190 0.561980 0.499990 -0.511079
O2    O     O_R   0.331625 0.579502 0.272664 -0.690331
O3    O     O_2   0.368876 0.436303 0.658783 -0.524475
O4    O     O_R   0.372506 0.345599 0.739633 -0.658957
O5    O     O_2   0.582365 0.641539 0.675498 -0.485484
O6    O     O_R   0.668756 0.579107 0.728102 -0.690573
O7    O     O_2   0.631004 0.435868 0.341122 -0.524738
O8    O     O_R   0.627120 0.345204 0.260239 -0.659340
O9    O     O_2   0.339389 0.801741 0.589988 -0.517895
O10   O     O_R   0.400239 0.907488 0.601714 -0.674584
O11   O     O_2   0.409380 0.197184 0.660823 -0.494339
O12   O     O_R   0.599810 0.438020 0.500010 -0.493791
O13   O     O_R   0.395557 0.093197 0.597350 -0.680344
O14   O     O_2   0.660647 0.801828 0.410152 -0.516789
O15   O     O_R   0.599658 0.907453 0.398188 -0.674531
O16   O     O_2   0.590447 0.197030 0.339146 -0.494737
O17   O     O_R   0.604549 0.093214 0.402801 -0.680412
O18   O     O_R   0.599810 0.561980 0.500010 -0.510783
O19   O     O_R   0.400190 0.438020 0.499990 -0.493876
O20   O     O_R   0.499990 0.561970 0.400150 -0.459711
O21   O     O_R   0.500010 0.438030 0.599850 -0.492605
O22   O     O_R   0.500010 0.561970 0.599850 -0.459406
O23   O     O_R   0.499990 0.438030 0.400150 -0.492577
O24   O     O_2   0.418488 0.642397 0.324035 -0.485033

loop_
_geom_bond_atom_site_label_1
_geom_bond_atom_site_label_2
_ccdc_geom_bond_type
C53   O10   S    
C29   H1    S    
C50   O4    S    
C8    C13   A    
C31   H23   S    
C18   C21   A    
Cu1   O1    S    
C19   C20   A    
C22   O23   A    
C7    H11   S    
C22   O20   A    
C16   C21   A    
C7    N5    A    
C30   C35   A    
H24   O13   S    
C14   C21   S    
C1    C56   S    
C10   C15   A    
C26   C50   S    
C30   H12   S    
C11   C14   A    
C13   C57   S    
C58   C60   A    
C54   O13   S    
C29   C33   A    
C17   C20   A    
H21   O8    S    
C1    O19   A    
C42   C56   A    
C5    N5    A    
C52   O7    D    
N2    N4    A    
C41   C46   A    
C34   C46   A    
C43   C48   A    
H25   O15   S    
C18   H16   S    
C3    C60   A    
C50   O3    D    
Cu1   O20   S    
Cu1   N5    S    
C38   N3    A    
C17   H15   S    
Cu2   O23   S    
C27   C51   S    
C17   C18   A    
C57   O16   D    
C25   C29   A    
C40   C45   A    
C27   C31   A    
C28   C32   A    
C35   C38   S    
C51   O6    S    
C49   O2    S    
C4    C23   S    
C2    C59   A    
C39   N4    A    
C3    C34   S    
C6    H10   S    
C49   O24   D    
C8    H13   S    
H22   O10   S    
C23   C44   A    
C46   H2    S    
C15   C20   S    
C6    N6    A    
C2    C4    A    
C9    C14   A    
C41   C56   A    
C5    C9    A    
C59   H6    S    
C7    C11   A    
C32   H27   S    
C51   O5    D    
C24   O22   A    
C24   C37   S    
C33   C39   S    
C19   H17   S    
C43   C45   A    
C39   N1    A    
Cu2   O19   S    
Cu2   N6    S    
C41   H29   S    
C26   C30   A    
C13   C15   A    
C31   C35   A    
C9    C53   S    
C38   N2    A    
C1    O1    A    
C12   O12   A    
C11   C55   S    
C57   O17   S    
C12   O18   A    
C53   O9    D    
C23   C48   A    
Cu1   O18   S    
C16   H14   S    
C12   C45   S    
C6    C10   A    
N1    N3    A    
C26   C37   A    
H18   O2    S    
C55   O14   D    
C22   C36   S    
C48   H4    S    
C32   C33   A    
C8    N6    A    
C5    H9    S    
C28   C52   S    
C55   O15   S    
C60   H7    S    
C27   C37   A    
C16   C19   A    
C24   O21   A    
C43   H31   S    
C54   O11   D    
C42   H30   S    
C42   C47   A    
H20   O6    S    
Cu1   Cu2   S    
C10   C54   S    
C25   C49   S    
C44   H32   S    
C25   C36   A    
C58   H5    S    
C40   C44   A    
Cu2   O12   S    
C28   C36   A    
C4    C58   A    
Cu1   O22   S    
C52   O8    S    
C34   C47   A    
C40   H28   S    
H26   O17   S    
C2    H8    S    
C47   H3    S    
Cu2   O21   S    
H19   O4    S    
C3    C59   A    
