data_mof_unit_66723.cif
_audit_creation_date              2013-03-05T15:39:25-0500
_audit_creation_method            fapswitch 2.2
_symmetry_space_group_name_H-M    P1
_symmetry_Int_Tables_number       1
_space_group_crystal_system       triclinic
_cell_length_a                    20.729895
_cell_length_b                    23.382177
_cell_length_c                    8.737352
_cell_angle_alpha                 90.221536
_cell_angle_beta                  104.532644
_cell_angle_gamma                 88.989598
_cell_volume                      4098.94222626

loop_
_atom_site_label
_atom_site_type_symbol
_atom_site_description
_atom_site_fract_x
_atom_site_fract_y
_atom_site_fract_z
_atom_type_partial_charge
P1    P     P_3+3 0.859590 0.433890 0.993820 0.491213
P2    P     P_3+3 0.859590 0.566110 0.493820 0.501849
P3    P     P_3+3 0.359590 0.933890 0.993820 0.487319
P4    P     P_3+3 0.359590 0.066110 0.493820 0.514469
O1    O     O_2   0.866180 0.413660 0.823810 -0.396199
O2    O     O_2   0.866180 0.586340 0.323810 -0.402589
O3    O     O_2   0.366180 0.913660 0.823810 -0.401631
O4    O     O_2   0.366180 0.086340 0.323810 -0.391559
O5    O     O_3   0.922050 0.469730 0.097400 -0.419412
O6    O     O_3   0.922050 0.530270 0.597400 -0.423969
O7    O     O_3   0.422050 0.969730 0.097400 -0.418856
O8    O     O_3   0.422050 0.030270 0.597400 -0.421875
O9    O     O_3   0.976760 0.360270 0.628090 -0.365023
O10   O     O_3   0.976760 0.639730 0.128090 -0.354283
O11   O     O_3   0.476760 0.860270 0.628090 -0.374266
O12   O     O_3   0.476760 0.139730 0.128090 -0.330995
O13   O     O_2   0.865338 0.323509 0.664304 -0.373096
O14   O     O_2   0.866047 0.691455 0.153215 -0.309798
O15   O     O_2   0.369237 0.818667 0.667139 -0.395788
O16   O     O_2   0.366299 0.188858 0.140622 -0.342390
O17   O     O_3   0.785575 0.476385 0.951921 -0.621568
O18   O     O_3   0.779801 0.538158 0.471945 -0.655865
O19   O     O_3   0.285803 0.976933 0.954467 -0.619480
O20   O     O_3   0.280364 0.036196 0.471308 -0.649057
O21   O     O_3   0.943182 0.242313 0.641417 -0.393747
O22   O     O_3   0.956009 0.761568 0.116307 -0.447494
O23   O     O_3   0.455070 0.741825 0.645505 -0.466443
O24   O     O_3   0.463410 0.256601 0.165103 -0.451086
C1    C     C_3   0.994174 0.152393 0.603341 -0.209601
C2    C     C_3   0.019863 0.830426 0.010894 -0.280300
C3    C     C_3   0.504287 0.650954 0.608266 -0.216449
C4    C     C_3   0.467703 0.355216 0.105980 -0.335771
H1    H     H_    0.026130 0.153509 0.725854 0.215614
H2    H     H_    0.070194 0.836806 0.992286 0.177337
H3    H     H_    0.540349 0.660732 0.721591 0.189028
H4    H     H_    0.413105 0.357105 0.092280 0.208891
P5    P     P_3+3 0.140130 0.433190 0.695710 0.475092
P6    P     P_3+3 0.140130 0.566810 0.195710 0.577151
P7    P     P_3+3 0.640130 0.933190 0.695710 0.483763
P8    P     P_3+3 0.640130 0.066810 0.195710 0.569550
P9    P     P_3+3 0.093743 0.314634 0.124172 0.539988
P10   P     P_3+3 0.088224 0.688466 0.630044 0.513017
P11   P     P_3+3 0.595526 0.816425 0.123834 0.502996
P12   P     P_3+3 0.588360 0.188795 0.625219 0.512972
O25   O     O_2   0.133470 0.412980 0.865660 -0.310115
O26   O     O_2   0.133470 0.587020 0.365660 -0.307161
O27   O     O_2   0.633470 0.912980 0.865660 -0.312113
O28   O     O_2   0.633470 0.087020 0.365660 -0.314136
O29   O     O_3   0.022720 0.360150 0.061220 -0.338560
O30   O     O_3   0.022720 0.639850 0.561220 -0.344949
O31   O     O_3   0.522720 0.860150 0.061220 -0.413172
O32   O     O_3   0.522720 0.139850 0.561220 -0.340371
O33   O     O_2   0.138562 0.328857 0.015989 -0.306163
O34   O     O_2   0.139250 0.671889 0.537030 -0.362470
O35   O     O_2   0.635622 0.823560 0.001147 -0.303765
O36   O     O_2   0.638792 0.172458 0.529952 -0.364149
O37   O     O_3   0.201765 0.484020 0.756694 -0.691542
O38   O     O_3   0.208088 0.518713 0.262593 -0.517415
O39   O     O_3   0.704684 0.981253 0.759271 -0.636530
O40   O     O_3   0.707702 0.018175 0.261894 -0.573004
O41   O     O_3   0.068330 0.245797 0.059239 -0.486908
O42   O     O_3   0.060905 0.755083 0.549894 -0.451887
O43   O     O_3   0.569590 0.745390 0.094838 -0.555225
O44   O     O_3   0.561262 0.255302 0.543580 -0.462806
C5    C     C_3   0.035261 0.221764 0.164845 0.280005
C6    C     C_3   0.035180 0.785832 0.658653 0.232225
C7    C     C_3   0.500006 0.747290 0.036851 0.361876
C8    C     C_3   0.539100 0.288287 0.654873 0.307451
H5    H     H_    0.006035 0.253797 0.215442 0.064155
H6    H     H_    0.999791 0.759937 0.704763 0.062636
H7    H     H_    0.486979 0.769341 0.920833 0.195018
H8    H     H_    0.508908 0.263146 0.718696 0.056034
H9    H     H_    0.072596 0.200524 0.261324 0.041493
H10   H     H_    0.076975 0.800761 0.755534 0.057269
H11   H     H_    0.475604 0.770191 0.119862 0.077634
H12   H     H_    0.582343 0.306915 0.741219 0.098350
C9    C     C_3   0.987219 0.176636 0.080842 -0.223096
C10   C     C_3   0.997160 0.837175 0.574731 -0.170380
C11   C     C_3   0.471471 0.688021 0.015789 -0.336124
C12   C     C_3   0.495682 0.336126 0.565697 -0.288525
H13   H     H_    0.010703 0.149302 0.004937 0.216177
H14   H     H_    0.027847 0.858834 0.506529 0.233250
H15   H     H_    0.498772 0.660703 0.948597 0.237488
H16   H     H_    0.522624 0.358152 0.489113 0.204580
C13   C     C_3   0.220737 0.484848 0.139771 0.538353
C14   C     C_3   0.227685 0.501558 0.631347 0.460772
C15   C     C_3   0.723972 0.987966 0.136585 0.467482
C16   C     C_3   0.724563 0.005447 0.632478 0.428195
H17   H     H_    0.175880 0.479131 0.045893 0.039374
H18   H     H_    0.190696 0.499071 0.515887 0.141465
H19   H     H_    0.680782 0.983393 0.036972 0.061537
H20   H     H_    0.683869 0.006738 0.523279 0.116139
C17   C     C_3   0.276054 0.508245 0.074661 0.190779
C18   C     C_3   0.290221 0.466808 0.631348 0.161142
C19   C     C_3   0.780848 0.014547 0.083493 0.156623
C20   C     C_3   0.785136 0.973786 0.601877 0.204659
H21   H     H_    0.286310 0.476378 0.988574 0.086639
H22   H     H_    0.274333 0.422983 0.595290 0.018578
H23   H     H_    0.789482 0.988154 0.984810 0.160831
H24   H     H_    0.799877 0.995996 0.503748 0.167487
H25   H     H_    0.257972 0.548498 0.011404 0.036089
H26   H     H_    0.322895 0.467415 0.753662 0.069151
H27   H     H_    0.764675 0.057580 0.038132 0.052391
H28   H     H_    0.770742 0.929412 0.564427 0.028529
Ba1   Ba    Ba6+2 0.999900 0.456810 0.844860 1.618195
Ba2   Ba    Ba6+2 0.999900 0.543190 0.344860 1.648981
Ba3   Ba    Ba6+2 0.499900 0.956810 0.844860 1.592736
Ba4   Ba    Ba6+2 0.499900 0.043190 0.344860 1.642644
C21   C     C_3   0.774833 0.507572 0.809395 0.855708
C22   C     C_3   0.760560 0.494664 0.362326 0.879350
C23   C     C_3   0.274043 0.006900 0.809644 0.860030
C24   C     C_3   0.261723 0.992059 0.362190 0.892696
H29   H     H_    0.786228 0.480502 0.716389 0.092998
H30   H     H_    0.801333 0.482605 0.304039 -0.078860
H31   H     H_    0.283670 0.978641 0.717005 0.093931
H32   H     H_    0.303021 0.979896 0.305964 -0.080792
C25   C     C_3   0.700661 0.526498 0.739895 0.050960
C26   C     C_3   0.699934 0.513647 0.231983 0.181024
C27   C     C_3   0.199979 0.026605 0.742357 0.036795
C28   C     C_3   0.200993 0.010772 0.230081 0.169459
H33   H     H_    0.698671 0.548753 0.628233 0.134775
H34   H     H_    0.713759 0.549845 0.168042 0.057093
H35   H     H_    0.198040 0.047579 0.629329 0.139210
H36   H     H_    0.215394 0.045777 0.162661 0.071940
O45   O     O_3   0.077880 0.530130 0.092320 -0.378753
O46   O     O_3   0.077880 0.469870 0.592320 -0.439372
O47   O     O_3   0.577880 0.030130 0.092320 -0.368119
O48   O     O_3   0.577880 0.969870 0.592320 -0.449222
P13   P     P_3+3 0.919230 0.695451 0.056677 0.565680
P14   P     P_3+3 0.914106 0.309671 0.562937 0.535059
P15   P     P_3+3 0.423666 0.197910 0.058924 0.549526
P16   P     P_3+3 0.418266 0.807027 0.564334 0.489671
C29   C     C_3   0.976388 0.213061 0.542815 0.472583
C30   C     C_3   0.012373 0.768307 0.056125 0.643155
C31   C     C_3   0.473249 0.706674 0.531701 0.421721
C32   C     C_3   0.489774 0.294427 0.073547 0.636675
H37   H     H_    0.947267 0.212373 0.417878 -0.003267
H38   H     H_    0.013274 0.740188 0.954227 -0.118126
H39   H     H_    0.430674 0.697544 0.431324 0.094428
H40   H     H_    0.476894 0.284069 0.946652 -0.032101
H41   H     H_    0.020838 0.129036 0.525865 0.144546
H42   H     H_    0.984027 0.840898 0.899487 0.072325
H43   H     H_    0.530669 0.627570 0.530272 0.170247
H44   H     H_    0.491286 0.367364 0.229270 0.204302
H45   H     H_    0.972838 0.149073 0.169684 0.084780
H46   H     H_    0.987490 0.868405 0.661359 0.079699
H47   H     H_    0.474295 0.667976 0.132383 0.164712
H48   H     H_    0.484845 0.368393 0.648419 0.135813
C33   C     C_R   0.120136 0.643819 0.938825 0.231879
C34   C     C_R   0.134290 0.365051 0.426628 0.268976
C35   C     C_R   0.619120 0.144382 0.936976 0.249827
C36   C     C_R   0.636963 0.868669 0.421823 0.216793
C37   C     C_R   0.134986 0.686559 0.843753 0.052315
C38   C     C_R   0.147375 0.320724 0.331349 0.089017
C39   C     C_R   0.634432 0.186700 0.840097 0.044264
C40   C     C_R   0.652169 0.825993 0.324779 0.194054
C41   C     C_R   0.188122 0.723643 0.905088 -0.326585
C42   C     C_R   0.203103 0.284520 0.389775 -0.321520
C43   C     C_R   0.687089 0.224020 0.901399 -0.302193
C44   C     C_R   0.706608 0.788458 0.384659 -0.304142
C45   C     C_R   0.229159 0.720384 0.062756 0.035092
C46   C     C_R   0.234697 0.279757 0.554672 -0.020720
C47   C     C_R   0.726871 0.221717 0.060002 0.032427
C48   C     C_R   0.733281 0.780555 0.550207 -0.034859
C49   C     C_R   0.221251 0.666231 0.141649 0.380722
C50   C     C_R   0.207463 0.318785 0.657237 0.428395
C51   C     C_R   0.719459 0.167998 0.140451 0.380005
C52   C     C_R   0.701171 0.816361 0.649279 0.406353
C53   C     C_R   0.161834 0.632397 0.088343 -0.006385
C54   C     C_R   0.163925 0.366620 0.588638 0.008050
C55   C     C_R   0.660497 0.133472 0.087942 -0.005771
C56   C     C_R   0.662095 0.866785 0.584985 0.005487
C57   C     C_R   0.813549 0.272981 0.294403 0.366192
C58   C     C_R   0.831434 0.737563 0.773818 0.435823
C59   C     C_R   0.319848 0.770024 0.293728 0.345021
C60   C     C_R   0.341925 0.242831 0.765116 0.452425
C61   C     C_R   0.866171 0.311099 0.349569 0.079813
C62   C     C_R   0.878611 0.694413 0.839246 0.004818
C63   C     C_R   0.370715 0.809386 0.349783 0.119974
C64   C     C_R   0.386706 0.198555 0.836547 -0.013776
C65   C     C_R   0.840489 0.363179 0.096725 0.216952
C66   C     C_R   0.852792 0.639865 0.592896 0.307329
C67   C     C_R   0.342059 0.862807 0.098349 0.194295
C68   C     C_R   0.354411 0.139903 0.595353 0.299143
C69   C     C_R   0.785189 0.323343 0.040616 0.450908
C70   C     C_R   0.801524 0.682381 0.527384 0.426967
C71   C     C_R   0.287069 0.822571 0.043370 0.440911
C72   C     C_R   0.303039 0.182091 0.531378 0.443546
C73   C     C_R   0.776915 0.272216 0.130902 -0.132970
C74   C     C_R   0.789613 0.733455 0.615849 -0.197718
C75   C     C_R   0.280310 0.770568 0.132534 -0.128434
C76   C     C_R   0.294261 0.234827 0.615373 -0.183607
C77   C     C_R   0.877350 0.355151 0.252188 -0.628830
C78   C     C_R   0.891810 0.648751 0.746465 -0.495005
C79   C     C_R   0.380119 0.854537 0.253182 -0.636700
C80   C     C_R   0.395560 0.149985 0.747168 -0.481270
H49   H     H_    0.198683 0.752124 0.821393 0.203769
H50   H     H_    0.220243 0.260176 0.302672 0.252126
H51   H     H_    0.697478 0.252466 0.817722 0.191064
H52   H     H_    0.724796 0.764094 0.299090 0.259182
H53   H     H_    0.906052 0.390162 0.308427 0.145484
H54   H     H_    0.928481 0.616562 0.800529 0.228937
H55   H     H_    0.409196 0.889449 0.308863 0.154351
H56   H     H_    0.430625 0.116900 0.802762 0.228980
I1    I     I_    0.068792 0.249255 0.567013 -0.542790
I2    I     I_    0.096942 0.748244 0.233523 -0.265515
I3    I     I_    0.550648 0.742063 0.452605 -0.589143
I4    I     I_    0.594520 0.288981 0.153347 -0.348290
O49   O     O_3   0.333194 0.517012 0.199223 -0.560665
C81   C     C_3   0.391213 0.510425 0.144007 -0.214355
H57   H     H_    0.387284 0.533281 0.030232 0.172218
H58   H     H_    0.401364 0.464263 0.131897 0.185518
H59   H     H_    0.434037 0.528373 0.232705 0.191819
O50   O     O_3   0.323479 0.489783 0.523828 -0.513540
C82   C     C_3   0.383785 0.459036 0.537724 0.055630
H60   H     H_    0.374374 0.413674 0.507608 0.110605
H61   H     H_    0.417028 0.463041 0.657845 0.137750
H62   H     H_    0.410737 0.476662 0.454884 0.191350
O51   O     O_3   0.838849 0.015655 0.209730 -0.592560
C83   C     C_3   0.895930 0.015985 0.149059 -0.082914
H63   H     H_    0.900032 0.975791 0.084256 0.189368
H64   H     H_    0.940819 0.019321 0.249166 0.193353
H65   H     H_    0.895076 0.052911 0.068666 0.134372
O52   O     O_3   0.838149 0.973279 0.739627 -0.603418
C84   C     C_3   0.896098 0.951271 0.702380 -0.154061
H66   H     H_    0.917358 0.982614 0.635043 0.209897
H67   H     H_    0.885973 0.911649 0.631136 0.126184
H68   H     H_    0.934015 0.941536 0.813819 0.173281
O53   O     O_3   0.817042 0.554820 0.826641 -0.707717
C85   C     C_3   0.821050 0.584128 0.969859 -0.021504
H69   H     H_    0.873840 0.584068 0.035707 0.207586
H70   H     H_    0.793343 0.566211 0.050462 0.140356
H71   H     H_    0.800433 0.627813 0.942205 0.126907
O54   O     O_3   0.738464 0.450419 0.443581 -0.641172
C86   C     C_3   0.778872 0.402495 0.447143 -0.207119
H72   H     H_    0.768594 0.383707 0.327915 0.141487
H73   H     H_    0.764301 0.370933 0.522079 0.168867
H74   H     H_    0.832237 0.412866 0.496416 0.161178
O55   O     O_3   0.317416 0.053134 0.820751 -0.703364
C87   C     C_3   0.321913 0.085195 0.959629 -0.025429
H75   H     H_    0.374675 0.085043 0.025822 0.209034
H76   H     H_    0.293616 0.069634 0.042253 0.145359
H77   H     H_    0.302741 0.128903 0.925115 0.120489
O56   O     O_3   0.239486 0.947762 0.443839 -0.635670
C88   C     C_3   0.278634 0.898912 0.445373 -0.198589
H78   H     H_    0.268695 0.880960 0.325028 0.139389
H79   H     H_    0.262949 0.866756 0.518039 0.164500
H80   H     H_    0.332116 0.908235 0.496449 0.165258
I5    I     I_    0.656090 0.589423 0.860703 -0.454461
I6    I     I_    0.669314 0.442145 0.087157 -0.168040
I7    I     I_    0.156413 0.091891 0.859451 -0.464934
I8    I     I_    0.165063 0.939534 0.086682 -0.230349
I9    I     I_    0.630396 0.459210 0.668177 -0.252294
I10   I     I_    0.608937 0.535656 0.295218 -0.322283
I11   I     I_    0.128773 0.960079 0.670548 -0.277218
I12   I     I_    0.111238 0.035626 0.294751 -0.357015
O57   O     O_3   0.801118 0.235681 0.405599 -0.567781
C89   C     C_3   0.740504 0.249880 0.442758 0.140978
H81   H     H_    0.722283 0.294176 0.413316 0.038779
H82   H     H_    0.746496 0.242524 0.570620 0.140594
H83   H     H_    0.701386 0.221222 0.379122 0.178471
O58   O     O_3   0.824534 0.781544 0.874782 -0.546415
C90   C     C_3   0.851455 0.832226 0.833132 0.035813
H84   H     H_    0.811211 0.862649 0.777816 0.147667
H85   H     H_    0.884745 0.825541 0.752791 0.033455
H86   H     H_    0.879173 0.853234 0.942962 0.187074
O59   O     O_3   0.312030 0.729978 0.402485 -0.585714
C91   C     C_3   0.256604 0.743387 0.461441 0.106603
H87   H     H_    0.229249 0.783468 0.415206 0.044569
H88   H     H_    0.272426 0.744937 0.591402 0.154086
H89   H     H_    0.222468 0.707558 0.432291 0.213784
O60   O     O_3   0.341875 0.291754 0.853516 -0.573438
C92   C     C_3   0.359670 0.338731 0.774033 -0.173557
H90   H     H_    0.330177 0.343643 0.651448 0.136618
H91   H     H_    0.411858 0.334931 0.769520 0.136535
H92   H     H_    0.352254 0.377911 0.838776 0.165799
O61   O     O_3   0.728395 0.342351 0.932356 -0.589340
C93   C     C_3   0.738868 0.345564 0.781100 -0.124920
H93   H     H_    0.773665 0.311914 0.760303 0.142300
H94   H     H_    0.753730 0.388789 0.759971 0.193306
H95   H     H_    0.690807 0.338519 0.693265 0.149788
O62   O     O_3   0.764889 0.673388 0.374639 -0.589710
C94   C     C_3   0.701185 0.654751 0.378027 -0.166241
H96   H     H_    0.672237 0.687188 0.424699 0.165103
H97   H     H_    0.704197 0.616800 0.453490 0.161458
H98   H     H_    0.673222 0.645145 0.255286 0.213795
O63   O     O_3   0.229650 0.841583 0.936960 -0.603139
C95   C     C_3   0.239103 0.846121 0.784717 -0.130101
H99   H     H_    0.275793 0.814596 0.763123 0.140437
H100  H     H_    0.251787 0.889907 0.762672 0.194253
H101  H     H_    0.191184 0.837555 0.697744 0.158629
O64   O     O_3   0.263805 0.171704 0.382331 -0.587042
C96   C     C_3   0.201372 0.153136 0.395244 -0.230781
H102  H     H_    0.174957 0.184033 0.454538 0.151053
H103  H     H_    0.206500 0.113777 0.464673 0.185424
H104  H     H_    0.170198 0.145921 0.274143 0.204471
O65   O     O_3   0.271293 0.642129 0.260489 -0.549109
C97   C     C_3   0.331115 0.636758 0.211244 0.160493
H105  H     H_    0.355630 0.677459 0.205702 0.069708
H106  H     H_    0.323548 0.617420 0.092855 0.096105
H107  H     H_    0.367372 0.611095 0.299754 0.188257
O66   O     O_3   0.221047 0.311846 0.820276 -0.550692
C98   C     C_3   0.210073 0.254990 0.865570 0.180614
H108  H     H_    0.217995 0.220316 0.785968 0.027456
H109  H     H_    0.158436 0.249858 0.874653 0.174800
H110  H     H_    0.243329 0.246254 0.984290 0.162883
O67   O     O_3   0.770738 0.144808 0.258322 -0.543815
C99   C     C_3   0.830613 0.142629 0.207875 0.061899
H111  H     H_    0.858578 0.182175 0.230837 0.105678
H112  H     H_    0.823190 0.132447 0.080584 0.086659
H113  H     H_    0.864813 0.111142 0.279375 0.190668
O68   O     O_3   0.704757 0.801891 0.804042 -0.535971
C100  C     C_3   0.678090 0.746767 0.812784 0.139055
H114  H     H_    0.690634 0.714176 0.732054 0.045552
H115  H     H_    0.623072 0.749895 0.790336 0.142955
H116  H     H_    0.697844 0.730044 0.934569 0.172351
O69   O     O_3   0.065690 0.610391 0.879795 -0.650481
C101  C     C_3   0.084717 0.565927 0.790026 0.125153
H117  H     H_    0.112519 0.531879 0.864481 0.104504
H118  H     H_    0.116383 0.578903 0.711805 0.104234
H119  H     H_    0.038745 0.548613 0.714669 0.206625
O70   O     O_3   0.093121 0.409191 0.357637 -0.616144
C102  C     C_3   0.027408 0.394066 0.351748 0.113169
H120  H     H_    0.007821 0.412913 0.444559 0.148618
H121  H     H_    0.016911 0.347458 0.343706 0.016528
H122  H     H_    0.997384 0.414955 0.248929 0.179575
O71   O     O_3   0.564691 0.110849 0.878706 -0.649782
C103  C     C_3   0.583457 0.066192 0.789137 0.116779
H123  H     H_    0.611967 0.032457 0.863210 0.099542
H124  H     H_    0.614033 0.079091 0.708739 0.100319
H125  H     H_    0.537444 0.048444 0.715516 0.208273
O72   O     O_3   0.596063 0.913134 0.354652 -0.610110
C104  C     C_3   0.530214 0.897840 0.347087 0.112713
H126  H     H_    0.510499 0.912457 0.444172 0.142960
H127  H     H_    0.519055 0.851889 0.330403 0.048416
H128  H     H_    0.500940 0.920734 0.248045 0.190288
I13   I     I_    0.910753 0.104909 0.614211 -0.247113
I14   I     I_    0.006005 0.891429 0.181899 -0.270754
I15   I     I_    0.434494 0.592666 0.650129 -0.244331
I16   I     I_    0.494381 0.419567 0.961455 -0.405842
I17   I     I_    0.899254 0.217471 0.942631 -0.309752
I18   I     I_    0.905178 0.809202 0.424030 -0.238473
I19   I     I_    0.370109 0.699415 0.888739 -0.409305
I20   I     I_    0.405350 0.300026 0.428248 -0.335041
I21   I     I_    0.256295 0.402421 0.224832 -0.301392
I22   I     I_    0.255955 0.587956 0.677617 -0.245707
I23   I     I_    0.759526 0.904255 0.208672 -0.270476
I24   I     I_    0.752379 0.090906 0.701428 -0.297514

loop_
_geom_bond_atom_site_label_1
_geom_bond_atom_site_label_2
_geom_bond_distance
_ccdc_geom_bond_type
C1    C29   1.522292 S    
C29   H37   1.107163 S    
C15   H19   1.087268 S    
P9    O41   1.750131 S    
C45   C75   1.608361 S    
C22   C26   1.529506 S    
C46   C76   1.593585 S    
P11   O43   1.752672 S    
C98   H109  1.101701 S    
C63   C79   1.400615 A    
C104  H126  1.081766 S    
P12   O44   1.737620 S    
C31   H39   1.100204 S    
O62   C94   1.405250 S    
C61   C77   1.397415 A    
C38   C42   1.408787 A    
C19   H23   1.107138 S    
C79   H55   1.064649 S    
C1    H1    1.108999 S    
C92   H92   1.103433 S    
C77   H53   1.064405 S    
O56   C88   1.387599 S    
P8    O28   1.594520 D    
C33   C37   1.388920 A    
O11   P16   1.743380 S    
C36   C40   1.389440 A    
C19   H27   1.098381 S    
O60   C92   1.404861 S    
P2    O18   1.754418 S    
C19   O51   1.413575 S    
O9    P14   1.757460 S    
C66   C78   1.398889 A    
C35   C39   1.395970 A    
C80   H56   1.081043 S    
O21   C29   1.400122 S    
C64   C80   1.411038 A    
C99   H113  1.094464 S    
C32   H40   1.100394 S    
C88   H78   1.102362 S    
P9    O29   1.773615 S    
C72   O64   1.374545 S    
C49   C53   1.450352 A    
C18   O50   1.410119 S    
C5    C9    1.519276 S    
C102  H120  1.082969 S    
C95   H101  1.109661 S    
C48   C52   1.468763 A    
C7    C11   1.508838 S    
C14   H18   1.105414 S    
C17   H25   1.104295 S    
C24   C28   1.537487 S    
O42   C6    1.392783 S    
O1    Ba1   2.928672 S    
C26   I10   2.148268 S    
C70   C74   1.470655 A    
C82   H60   1.100769 S    
C57   O57   1.382420 S    
O53   C85   1.409117 S    
P14   C61   1.879800 S    
C58   O58   1.381074 S    
C62   C78   1.402245 A    
C10   H14   1.104608 S    
C98   H108  1.102848 S    
C8    H8    1.113065 S    
O2    Ba2   2.895292 S    
C85   H70   1.102350 S    
C91   H88   1.100672 S    
C20   H28   1.109923 S    
C97   H105  1.093635 S    
P5    O25   1.599358 D    
P11   C40   1.866275 S    
P6    C53   1.918747 S    
P7    O27   1.599358 D    
C104  H128  1.064078 S    
C90   H85   1.109909 S    
C36   O72   1.366794 S    
C101  H119  1.096483 S    
O29   Ba1   2.907254 S    
C28   I8    2.111511 S    
C69   O61   1.379963 S    
C27   H35   1.095696 S    
P13   C62   1.875173 S    
Ba1   O45   2.922686 S    
C10   I18   2.138856 S    
Ba3   O47   2.922686 S    
C6    H6    1.110408 S    
C42   H50   1.074550 S    
C24   O56   1.407763 S    
C3    H43   1.111796 S    
C4    I16   2.135165 S    
C4    H44   1.103780 S    
P3    O7    1.625459 S    
C10   H46   1.101369 S    
O41   C5    1.404327 S    
C12   H48   1.101534 S    
C18   H26   1.112673 S    
O31   Ba3   2.907254 S    
C88   H80   1.111445 S    
P8    C55   1.930943 S    
P5    O37   1.742399 S    
P1    Ba1   3.521563 S    
C1    I13   2.093603 S    
P8    O40   1.769774 S    
C89   H82   1.106432 S    
O20   C24   1.394600 S    
C84   H68   1.108602 S    
C34   C54   1.395160 A    
Ba2   O45   3.056571 S    
C33   C53   1.397501 A    
O44   C8    1.399063 S    
C49   O65   1.383917 S    
C36   C56   1.390199 A    
C50   O66   1.390591 S    
C6    H10   1.108766 S    
C35   C55   1.402756 A    
O68   C100  1.421216 S    
C23   C27   1.561828 S    
O57   C89   1.408439 S    
C26   H34   1.096916 S    
C41   C45   1.427463 A    
O12   P15   1.745551 S    
C101  H118  1.106265 S    
C25   I9    2.145884 S    
C2    C30   1.527478 S    
C15   C19   1.514652 S    
C51   O67   1.385364 S    
Ba3   Ba4   4.820059 S    
C22   H30   1.122395 S    
C7    H7    1.108197 S    
P12   O32   1.772593 S    
C46   C50   1.477823 A    
O61   C93   1.394525 S    
C94   H98   1.107843 S    
O23   P16   1.762151 S    
C48   C74   1.590252 S    
O21   P14   1.755416 S    
C83   H63   1.108297 S    
C99   H112  1.109354 S    
C84   H66   1.105597 S    
C2    H2    1.108185 S    
C39   C43   1.405849 A    
C40   C44   1.410617 A    
O72   C104  1.402618 S    
C82   H62   1.104206 S    
P2    Ba2   3.504375 S    
C102  H121  1.113571 S    
C95   H100  1.091262 S    
P5    Ba1   3.506090 S    
C96   H102  1.102577 S    
O22   C30   1.407825 S    
C27   I7    2.143752 S    
C33   O69   1.373553 S    
O10   Ba2   2.907180 S    
C1    H41   1.111897 S    
O49   C81   1.409654 S    
Ba4   O48   2.898956 S    
P9    O33   1.523588 D    
P10   O30   1.771158 S    
P11   O35   1.523575 D    
C50   C54   1.457044 A    
C81   H58   1.105821 S    
C86   H74   1.112471 S    
O3    Ba3   2.928672 S    
P4    O8    1.605401 S    
C17   H21   1.111977 S    
C24   H32   1.120965 S    
C3    I15   2.103205 S    
C31   I3    2.084303 S    
P5    O46   1.612073 S    
O15   P16   1.536377 D    
P7    O48   1.612073 S    
O13   P14   1.531924 D    
C16   I24   2.131950 S    
C103  H123  1.088985 S    
O17   C21   1.412177 S    
P15   C64   1.901356 S    
C4    H4    1.107953 S    
C69   C73   1.470804 A    
O58   C90   1.406003 S    
C8    H12   1.110974 S    
C81   H59   1.109112 S    
O19   C23   1.413363 S    
C72   C76   1.464338 A    
O23   C31   1.406086 S    
C89   H81   1.105030 S    
O26   Ba2   2.931925 S    
C87   H75   1.101465 S    
C84   H67   1.107544 S    
C93   H94   1.091537 S    
C45   C49   1.475156 A    
P6    O26   1.594520 D    
C60   C64   1.415399 A    
C7    H11   1.113661 S    
C14   I22   2.122380 S    
C94   H96   1.098196 S    
C93   H93   1.103219 S    
P3    C67   1.981998 S    
C83   H65   1.112257 S    
C16   C20   1.526579 S    
C2    I14   2.129330 S    
O55   C87   1.407741 S    
C12   H16   1.106927 S    
O52   C84   1.409555 S    
C21   C25   1.561477 S    
C90   H84   1.102248 S    
P4    Ba4   3.504375 S    
P1    O1    1.594699 D    
C44   C48   1.424492 A    
C96   H104  1.106784 S    
P3    O3    1.594699 D    
P4    O20   1.761408 S    
C30   I2    2.075781 S    
C18   H22   1.102332 S    
C78   H54   1.081585 S    
C66   C70   1.451628 A    
O11   Ba3   2.908943 S    
P6    O38   1.768313 S    
C21   O53   1.405518 S    
O18   C22   1.387709 S    
C93   H95   1.108977 S    
C67   C79   1.396779 A    
C86   H72   1.100894 S    
C65   C77   1.392917 A    
C58   C62   1.410773 A    
P8    Ba4   3.523782 S    
C43   H51   1.054107 S    
O70   C102  1.401800 S    
C97   H106  1.102954 S    
C103  H125  1.095339 S    
C98   H110  1.109395 S    
C104  H127  1.104447 S    
C6    C10   1.511123 S    
O67   C99   1.417611 S    
P1    O5    1.625459 S    
O9    Ba1   2.908943 S    
C59   O59   1.376786 S    
O51   C83   1.412927 S    
C4    C32   1.532639 S    
C13   H17   1.084484 S    
C11   H47   1.110718 S    
C68   C80   1.406968 A    
P8    O47   1.632440 S    
C87   H77   1.105112 S    
C52   O68   1.378650 S    
C97   H107  1.104091 S    
P7    C56   1.933560 S    
C67   C71   1.474739 A    
P12   O36   1.533595 D    
O63   C95   1.397048 S    
C9    H13   1.110442 S    
O59   C91   1.402437 S    
P7    O39   1.742809 S    
C11   I19   2.128459 S    
C47   C73   1.602891 S    
O22   P13   1.754636 S    
C58   C74   1.437797 A    
C3    C31   1.523191 S    
O12   Ba4   2.907180 S    
C88   H79   1.090895 S    
C26   I6    2.101719 S    
C3    H3    1.106496 S    
O54   C86   1.382889 S    
O16   P15   1.550689 D    
C35   O71   1.373640 S    
C32   I4    2.109102 S    
P1    C65   1.977908 S    
O24   C32   1.401002 S    
C27   I11   2.144946 S    
O8    Ba3   2.899902 S    
C51   C55   1.451442 A    
Ba1   Ba2   4.820059 S    
Ba2   O46   2.898956 S    
C2    H42   1.091725 S    
C102  H122  1.070075 S    
C9    I17   2.130149 S    
O71   C103  1.409351 S    
P10   O34   1.531062 D    
C11   H15   1.106362 S    
P11   O31   1.777061 S    
C100  H114  1.107597 S    
O28   Ba4   2.931925 S    
C5    H5    1.113262 S    
C41   H49   1.056141 S    
C37   C41   1.409338 A    
C85   H69   1.101152 S    
C100  H115  1.108837 S    
C52   C56   1.450816 A    
C91   H87   1.110074 S    
O30   Ba2   2.908859 S    
O14   P13   1.551335 D    
C22   O54   1.403464 S    
O10   P13   1.757013 S    
C8    C12   1.512529 S    
C90   H86   1.105391 S    
P1    O17   1.772744 S    
C94   H97   1.099073 S    
O65   C97   1.414436 S    
P3    O19   1.776298 S    
P4    O4    1.599527 D    
C83   H64   1.109332 S    
C44   H52   1.075300 S    
P7    Ba3   3.506090 S    
Ba1   O46   3.063964 S    
O64   C96   1.403469 S    
Ba3   O48   3.063964 S    
C15   I23   2.120575 S    
C82   H61   1.106222 S    
C59   C75   1.440828 A    
C60   C76   1.441864 A    
C29   I1    2.069473 S    
C20   H24   1.112977 S    
C5    H9    1.103859 S    
O37   C14   1.401037 S    
C85   H71   1.104121 S    
P2    C66   1.945362 S    
C25   H33   1.098784 S    
O39   C16   1.399769 S    
C14   C18   1.517773 S    
C92   H91   1.094473 S    
C71   O63   1.381292 S    
C16   H20   1.103753 S    
C20   O52   1.411478 S    
C70   O62   1.377275 S    
C71   C75   1.474177 A    
C21   H29   1.097214 S    
C12   I20   2.140219 S    
C86   H73   1.084155 S    
P2    O2    1.599527 D    
C13   C17   1.513200 S    
O4    Ba4   2.895292 S    
O40   C15   1.407967 S    
O43   C7    1.403763 S    
P10   C37   1.875904 S    
C103  H124  1.103641 S    
P5    C54   1.932510 S    
C65   C69   1.474492 A    
O50   C82   1.409709 S    
C34   O70   1.368388 S    
C100  H116  1.109841 S    
C59   C63   1.403712 A    
P3    Ba3   3.521563 S    
O5    Ba2   2.923615 S    
C23   O55   1.405762 S    
C68   C72   1.445016 A    
P6    Ba2   3.523782 S    
C47   C51   1.470784 A    
C28   I12   2.146122 S    
C101  H117  1.090335 S    
C91   H89   1.093745 S    
C57   C61   1.408459 A    
C87   H76   1.104401 S    
C92   H90   1.097277 S    
P4    C68   1.950675 S    
C25   I5    2.135929 S    
O27   Ba3   2.898087 S    
C17   O49   1.410478 S    
C43   C47   1.424370 A    
C89   H83   1.098077 S    
P2    O6    1.605401 S    
O38   C13   1.405244 S    
C9    H45   1.110656 S    
O7    Ba4   2.923615 S    
P6    O45   1.632440 S    
C99   H111  1.091079 S    
C60   O60   1.377927 S    
P9    C38   1.877941 S    
P10   O42   1.736572 S    
O66   C98   1.426765 S    
P12   C39   1.881112 S    
C30   H38   1.108460 S    
O24   P15   1.751909 S    
C95   H99   1.099357 S    
C96   H103  1.093052 S    
C57   C73   1.440023 A    
Ba4   O47   3.056571 S    
O69   C101  1.409303 S    
C42   C46   1.429068 A    
P16   C63   1.886898 S    
O32   Ba4   2.908859 S    
C81   H57   1.114635 S    
C34   C38   1.391983 A    
O25   Ba1   2.898087 S    
C13   I21   2.120450 S    
O6    Ba1   2.899902 S    
C23   H31   1.097220 S    
C28   H36   1.098466 S    
