data_mof_unit_54006.cif
_audit_creation_date              2012-12-11T14:17:44-0500
_audit_creation_method            fapswitch 2.2
_symmetry_space_group_name_H-M    P1
_symmetry_Int_Tables_number       1
_space_group_crystal_system       triclinic
_cell_length_a                    10.995727
_cell_length_b                    11.118095
_cell_length_c                    18.749517
_cell_angle_alpha                 89.811615
_cell_angle_beta                  90.206816
_cell_angle_gamma                 119.491129
_cell_volume                      1995.1508719

loop_
_atom_site_label
_atom_site_type_symbol
_atom_type_description
_atom_site_fract_x
_atom_site_fract_y
_atom_site_fract_z
_atom_type_partial_charge
C1    C     C_R   0.520610 0.459311 0.147569 0.577685
C2    C     C_R   0.539958 0.061125 0.147487 0.586170
C3    C     C_R   0.938142 0.478453 0.147401 0.572497
C4    C     C_R   0.453269 0.521235 0.854331 0.565052
C5    C     C_R   0.068199 0.547395 0.854320 0.577550
C6    C     C_R   0.478993 0.932223 0.854416 0.582973
C7    C     C_R   0.405501 0.005168 0.461259 -0.131957
C8    C     C_R   0.096487 0.454125 0.445372 -0.171569
C9    C     C_R   0.614751 0.584078 0.469039 -0.144232
C10   C     C_R   0.125514 0.472369 0.519435 -0.163638
C11   C     C_R   0.374292 0.937417 0.526781 -0.154166
C12   C     C_R   0.616937 0.589306 0.543477 -0.156558
C13   C     C_R   0.713472 0.941955 0.558430 -0.082595
C14   C     C_R   0.982919 0.712301 0.549114 -0.105857
C15   C     C_R   0.345159 0.235439 0.587754 -0.064056
C16   C     C_R   0.079478 0.768267 0.409538 -0.078547
C17   C     C_R   0.790089 0.158633 0.465621 -0.087490
C18   C     C_R   0.273080 0.257615 0.448036 -0.108698
C19   C     C_R   0.852794 0.038059 0.551088 -0.129044
C20   C     C_R   0.957507 0.799996 0.506176 -0.161704
C21   C     C_R   0.225286 0.128748 0.558080 -0.118816
C22   C     C_R   0.007276 0.829591 0.436741 -0.120862
C23   C     C_R   0.890650 0.145656 0.504332 -0.122905
C24   C     C_R   0.186675 0.144255 0.489657 -0.163927
C25   C     C_R   0.520140 0.451748 0.356617 0.543726
C26   C     C_R   0.575191 0.119872 0.362240 0.541508
C27   C     C_R   0.951856 0.488320 0.348890 0.533100
C28   C     C_R   0.461561 0.515309 0.649063 0.502818
C29   C     C_R   0.118811 0.575724 0.637563 0.520520
C30   C     C_R   0.454715 0.875487 0.637858 0.520531
C31   C     C_R   0.492686 0.969908 0.929478 -0.022172
C32   C     C_R   0.029481 0.523257 0.929247 -0.023021
C33   C     C_R   0.477287 0.507200 0.929487 -0.023764
C34   C     C_R   0.001195 0.491194 0.077041 -0.011997
C35   C     C_R   0.489273 0.997767 0.077319 -0.014780
C36   C     C_R   0.506860 0.509910 0.077410 -0.014362
C37   C     C_R   0.423739 0.036762 0.958027 -0.104324
C38   C     C_R   0.960966 0.389014 0.957800 -0.104189
C39   C     C_R   0.612431 0.575576 0.958841 -0.103792
C40   C     C_R   0.960732 0.372891 0.032563 -0.095120
C41   C     C_R   0.408831 0.037365 0.032821 -0.098229
C42   C     C_R   0.626621 0.590594 0.033642 -0.096795
C43   C     C_R   0.546067 0.921873 0.048448 0.410276
C44   C     C_R   0.077597 0.622415 0.048065 0.405923
C45   C     C_R   0.374576 0.452938 0.047748 0.404581
C46   C     C_R   0.094553 0.638304 0.975237 0.412791
C47   C     C_R   0.545441 0.905650 0.975540 0.416716
C48   C     C_R   0.359704 0.454011 0.974823 0.410545
C49   C     C_R   0.359843 0.092941 0.913711 -0.098521
C50   C     C_R   0.903712 0.271042 0.913457 -0.097290
C51   C     C_R   0.732758 0.639014 0.915318 -0.097502
C52   C     C_R   0.926601 0.240702 0.059261 -0.009430
C53   C     C_R   0.309611 0.071569 0.059660 -0.010887
C54   C     C_R   0.758258 0.689981 0.061139 -0.005419
C55   C     C_R   0.264630 0.127692 0.941676 0.470784
C56   C     C_R   0.869518 0.142498 0.941248 0.466956
C57   C     C_R   0.861029 0.734118 0.943932 0.469640
C58   C     C_R   0.882127 0.127872 0.013950 0.504857
C59   C     C_R   0.238926 0.115793 0.014462 0.510117
C60   C     C_R   0.873236 0.760127 0.016673 0.510692
C61   C     C_R   0.475933 0.919718 0.562901 -0.005088
C62   C     C_R   0.089145 0.557450 0.559416 -0.006864
C63   C     C_R   0.512849 0.482570 0.583280 -0.007070
C64   C     C_R   0.053121 0.536954 0.410178 0.002009
C65   C     C_R   0.542759 0.068879 0.435380 -0.001443
C66   C     C_R   0.504274 0.473089 0.433335 -0.003301
C67   C     C_R   0.609629 0.969707 0.531366 0.049715
C68   C     C_R   0.050885 0.643864 0.520384 0.021703
C69   C     C_R   0.424314 0.358470 0.548848 0.030918
C70   C     C_R   0.073669 0.655635 0.446411 0.042274
C71   C     C_R   0.647723 0.066307 0.476687 0.028670
C72   C     C_R   0.400996 0.362615 0.475278 0.028693
Cr1   Cr    Cr6+3 0.768550 0.541320 0.250660 1.049805
Cr2   Cr    Cr6+3 0.458680 0.227230 0.250660 1.045878
Cr3   Cr    Cr6+3 0.772770 0.231450 0.250660 1.048982
Cr4   Cr    Cr6+3 0.541320 0.768550 0.749340 1.090483
Cr5   Cr    Cr6+3 0.227230 0.458680 0.749340 1.103834
Cr6   Cr    Cr6+3 0.231450 0.772770 0.749340 1.091453
H1    H     H_    0.378119 0.105029 0.856851 0.141159
H2    H     H_    0.891113 0.277941 0.856632 0.145687
H3    H     H_    0.727861 0.620424 0.858538 0.140824
H4    H     H_    0.945600 0.223596 0.113790 0.220074
H5    H     H_    0.275165 0.053657 0.114352 0.217079
H6    H     H_    0.772964 0.724586 0.115740 0.218953
H7    H     H_    0.323720 0.010190 0.431609 0.156941
H8    H     H_    0.102280 0.373939 0.415963 0.116143
H9    H     H_    0.698218 0.667041 0.439372 0.154382
H10   H     H_    0.166749 0.413589 0.546151 0.152832
H11   H     H_    0.271858 0.899919 0.549488 0.148311
H12   H     H_    0.698194 0.675906 0.570899 0.109222
H13   H     H_    0.689241 0.855389 0.592232 0.145937
H14   H     H_    0.936134 0.689997 0.601343 0.157866
H15   H     H_    0.370510 0.226351 0.642708 0.136918
H16   H     H_    0.114871 0.789591 0.354685 0.147792
H17   H     H_    0.822546 0.244748 0.430695 0.147194
H18   H     H_    0.232744 0.264905 0.396638 0.146919
H19   H     H_    0.931330 0.029437 0.581955 0.114242
H20   H     H_    0.896182 0.842115 0.526110 0.102020
H21   H     H_    0.158588 0.038346 0.589567 0.121707
H22   H     H_    0.983602 0.893741 0.402373 0.116714
H23   H     H_    0.998334 0.215095 0.497461 0.122008
H24   H     H_    0.086319 0.072691 0.469364 0.117894
O1    O     O_R   0.910960 0.572410 0.171010 -0.466288
O2    O     O_R   0.427590 0.338550 0.171010 -0.463536
O3    O     O_R   0.661450 0.089040 0.171010 -0.459689
O4    O     O_R   0.572410 0.910960 0.828990 -0.404029
O5    O     O_R   0.338550 0.427590 0.828990 -0.414699
O6    O     O_R   0.089040 0.661450 0.828990 -0.413248
O7    O     O_R   0.639750 0.528530 0.175600 -0.532399
O8    O     O_R   0.471470 0.111220 0.175600 -0.532173
O9    O     O_R   0.888780 0.360250 0.175600 -0.536880
O10   O     O_R   0.528530 0.639750 0.824400 -0.464062
O11   O     O_R   0.111220 0.471470 0.824400 -0.453838
O12   O     O_R   0.360250 0.888780 0.824400 -0.459491
O13   O     O_R   0.909330 0.572400 0.331540 -0.512989
O14   O     O_R   0.427600 0.336930 0.331540 -0.531962
O15   O     O_R   0.663070 0.090670 0.331540 -0.497711
O16   O     O_R   0.572400 0.909330 0.668460 -0.519320
O17   O     O_R   0.336930 0.427600 0.668460 -0.531498
O18   O     O_R   0.090670 0.663070 0.668460 -0.544220
O19   O     O_R   0.638240 0.528520 0.324410 -0.491067
O20   O     O_R   0.471480 0.109720 0.324410 -0.500161
O21   O     O_R   0.890280 0.361760 0.324410 -0.529094
O22   O     O_R   0.528520 0.638240 0.675590 -0.541546
O23   O     O_R   0.109720 0.471480 0.675590 -0.494232
O24   O     O_R   0.361760 0.890280 0.675590 -0.519296
O25   O     O_3   0.666667 0.333333 0.250630 -0.295439
O26   O     O_3   0.333333 0.666667 0.749370 -0.318595
F1    F     F_    0.601936 0.862940 0.091381 -0.562923
F2    F     F_    0.136947 0.735558 0.090794 -0.562994
F3    F     F_    0.259449 0.396939 0.089942 -0.564501
F4    F     F_    0.177365 0.767588 0.949801 -0.549542
F5    F     F_    0.595669 0.824916 0.950042 -0.548494
F6    F     F_    0.228771 0.404227 0.948691 -0.547415
F7    F     F_    0.190805 0.164405 0.897329 -0.518375
F8    F     F_    0.833474 0.034256 0.896771 -0.518443
F9    F     F_    0.971285 0.807381 0.900202 -0.519732
F10   F     F_    0.856618 0.004900 0.040901 -0.500834
F11   F     F_    0.141655 0.142904 0.041766 -0.503594
F12   F     F_    0.996068 0.856883 0.044580 -0.504951

loop_
_geom_bond_atom_site_label_1
_geom_bond_atom_site_label_2
_ccdc_geom_bond_type
C2    C35   S    
C39   C51   A    
C30   O24   A    
C29   O23   A    
C3    O1    A    
C18   H18   S    
C36   C42   A    
Cr3   O15   S    
C26   O15   A    
Cr6   O26   S    
C54   H6    S    
C53   C59   A    
C54   C60   A    
Cr6   O18   S    
C7    C11   A    
C10   H10   S    
C17   C23   A    
C34   C40   A    
C12   H12   S    
C55   C59   A    
C46   F4    S    
C21   H21   S    
C23   H23   S    
C44   F2    S    
Cr6   O6    S    
C11   H11   S    
C9    C66   A    
C6    O12   A    
C1    O7    A    
C4    C33   S    
C66   C72   A    
C63   C69   A    
C65   C71   A    
Cr1   O1    S    
C16   C22   A    
C51   C57   A    
C32   C38   A    
C35   C43   A    
C51   H3    S    
C8    H8    S    
C5    C32   S    
C58   F10   S    
C6    C31   S    
C4    O10   A    
C31   C47   A    
C47   F5    S    
C18   C72   A    
Cr3   O9    S    
C10   C62   A    
Cr5   O11   S    
C56   F8    S    
C44   C46   A    
C39   C42   A    
C19   H19   S    
C15   C69   A    
C4    O5    A    
C22   H22   S    
C13   C19   A    
Cr4   O22   S    
C14   C20   A    
Cr5   O5    S    
C16   C70   A    
C18   C24   A    
C59   F11   S    
C25   O14   A    
C3    O9    A    
C12   C63   A    
C27   O21   A    
C57   C60   A    
C30   O16   A    
C3    C34   S    
C11   C61   A    
Cr1   O25   S    
Cr4   O16   S    
C49   H1    S    
C69   C72   A    
C19   C23   A    
C64   C70   A    
Cr2   O8    S    
C7    C65   A    
C24   H24   S    
C37   C49   A    
C61   C67   A    
Cr2   O25   S    
C43   F1    S    
Cr4   O10   S    
Cr2   O14   S    
C6    O4    A    
C57   F9    S    
C36   C45   A    
C33   C39   A    
C52   H4    S    
C1    O2    A    
C14   H14   S    
Cr5   O26   S    
C52   C58   A    
C8    C64   A    
C17   H17   S    
C68   C70   A    
Cr2   O20   S    
C60   F12   S    
C45   F3    S    
Cr1   O19   S    
Cr4   O26   S    
Cr3   O21   S    
C21   C24   A    
Cr6   O24   S    
C29   O18   A    
Cr5   O23   S    
Cr2   O2    S    
C13   C67   A    
C45   C48   A    
C48   F6    S    
C34   C44   A    
C29   C62   S    
Cr6   O12   S    
Cr4   O4    S    
C5    O11   A    
C26   C65   S    
C32   C46   A    
C25   C66   S    
C20   C22   A    
Cr5   O17   S    
C28   O17   A    
C50   H2    S    
C15   H15   S    
C28   O22   A    
C17   C71   A    
C38   C50   A    
C2    O3    A    
C16   H16   S    
Cr1   O13   S    
C62   C68   A    
C53   H5    S    
C40   C52   A    
C42   C54   A    
C38   C40   A    
Cr3   O25   S    
C7    H7    S    
C43   C47   A    
C55   F7    S    
C56   C58   A    
C67   C71   A    
Cr1   O7    S    
C49   C55   A    
C37   C41   A    
C35   C41   A    
C9    C12   A    
C50   C56   A    
C27   C64   S    
C9    H9    S    
C41   C53   A    
C28   C63   S    
C31   C37   A    
C15   C21   A    
C20   H20   S    
C8    C10   A    
C30   C61   S    
C33   C48   A    
C14   C68   A    
C26   O20   A    
Cr3   O3    S    
C25   O19   A    
C13   H13   S    
C1    C36   S    
C27   O13   A    
C5    O6    A    
C2    O8    A    
