data_mof_unit_26928.cif
_audit_creation_date              2012-12-10T19:45:01-0500
_audit_creation_method            fapswitch 2.2
_symmetry_space_group_name_H-M    P1
_symmetry_Int_Tables_number       1
_space_group_crystal_system       triclinic
_cell_length_a                    15.051862
_cell_length_b                    10.865967
_cell_length_c                    13.754503
_cell_angle_alpha                 89.688492
_cell_angle_beta                  91.028109
_cell_angle_gamma                 88.356219
_cell_volume                      2248.26311661

loop_
_atom_site_label
_atom_site_type_symbol
_atom_type_description
_atom_site_fract_x
_atom_site_fract_y
_atom_site_fract_z
_atom_type_partial_charge
C1    C     C_R   0.494748 0.262533 0.499601 0.783352
C2    C     C_R   0.549463 0.881694 0.681297 0.137807
C3    C     C_R   0.494546 0.100817 0.233991 -0.178294
C4    C     C_R   0.501393 0.899975 0.766986 -0.179067
C5    C     C_R   0.466275 0.152555 0.145015 -0.142530
C6    C     C_R   0.533410 0.850245 0.855241 -0.137967
C7    C     C_R   0.387845 0.224369 0.139136 -0.108178
C8    C     C_R   0.613161 0.781203 0.858656 -0.111079
C9    C     C_R   0.480756 0.934577 0.414623 -0.235807
C10   C     C_R   0.505302 0.065315 0.585762 -0.254377
C11   C     C_R   0.502577 0.871811 0.501306 -0.087259
C12   C     C_R   0.502373 0.737749 0.500266 0.789997
C13   C     C_R   0.488720 0.128655 0.498428 -0.087769
C14   C     C_R   0.517092 0.938416 0.588102 0.004305
C15   C     C_R   0.472998 0.062243 0.411728 0.004702
C16   C     C_R   0.328640 0.498651 0.499573 0.804971
C17   C     C_R   0.671368 0.498810 0.500685 0.810937
C18   C     C_R   0.565423 0.434132 0.795293 0.390481
C19   C     C_R   0.440129 0.575645 0.205038 0.389143
C20   C     C_R   0.437489 0.568329 0.791812 -0.029791
C21   C     C_R   0.561088 0.429251 0.208201 -0.027287
C22   C     C_R   0.437586 0.572053 0.894311 0.004079
C23   C     C_R   0.045256 0.402542 0.339935 -0.216504
C24   C     C_R   0.563690 0.430197 0.105781 0.002498
C25   C     C_R   0.500978 0.501040 0.948285 0.056933
C26   C     C_R   0.500777 0.502128 0.051874 0.056177
C27   C     C_R   0.566233 0.432041 0.898927 -0.060112
C28   C     C_R   0.439259 0.577589 0.101296 -0.057346
C29   C     C_R   0.377614 0.648666 0.943772 -0.212739
C30   C     C_R   0.628815 0.362255 0.056321 -0.213197
C31   C     C_R   0.379991 0.653976 0.045462 -0.207238
C32   C     C_R   0.631267 0.365097 0.954631 -0.209769
C33   C     C_R   0.814998 0.537154 0.583672 -0.256942
C34   C     C_R   0.955000 0.580817 0.664772 -0.218045
C35   C     C_R   0.185195 0.447765 0.420587 -0.277406
C36   C     C_R   0.768150 0.495749 0.501845 -0.065814
C37   C     C_R   0.231890 0.495878 0.499958 -0.075632
C38   C     C_R   0.813820 0.451677 0.420543 -0.246792
C39   C     C_R   0.186152 0.539693 0.581339 -0.240283
C40   C     C_R   0.906394 0.449005 0.420387 0.108766
C41   C     C_R   0.093716 0.538000 0.583015 0.108128
C42   C     C_R   0.953522 0.492592 0.502206 0.060428
C43   C     C_R   0.046641 0.492487 0.501883 0.061600
C44   C     C_R   0.907598 0.536861 0.584146 0.111963
C45   C     C_R   0.337056 0.243537 0.222023 -0.134328
C46   C     C_R   0.092616 0.447167 0.420344 0.118215
C47   C     C_R   0.952572 0.403929 0.339789 -0.215457
C48   C     C_R   0.047609 0.581714 0.664097 -0.214939
C49   C     C_3   0.643359 0.245505 0.741482 -0.672867
C50   C     C_3   0.289058 0.631251 0.255358 -0.651918
C51   C     C_R   0.661809 0.763396 0.774075 -0.138772
C52   C     C_R   0.364742 0.191350 0.311107 -0.089306
C53   C     C_R   0.630737 0.814439 0.685847 -0.087282
C54   C     C_R   0.444316 0.120553 0.317970 0.135186
Cu1   Cu    Cu3+1 0.500010 0.499980 0.597420 0.963374
Cu2   Cu    Cu3+1 0.499990 0.500020 0.402580 0.963095
H1    H     H_    0.779384 0.571606 0.646138 0.138148
H2    H     H_    0.684731 0.314024 0.920888 0.157480
H3    H     H_    0.777311 0.418510 0.357698 0.144127
H4    H     H_    0.222474 0.576241 0.643058 0.144271
H5    H     H_    0.917005 0.369919 0.276692 0.139321
H6    H     H_    0.083167 0.616695 0.726847 0.139640
H7    H     H_    0.079879 0.367510 0.276977 0.137642
H8    H     H_    0.920434 0.615090 0.728015 0.136614
H9    H     H_    0.366422 0.265093 0.070333 0.128539
H10   H     H_    0.637289 0.741643 0.926878 0.127796
H11   H     H_    0.275943 0.298207 0.216962 0.104843
H12   H     H_    0.220911 0.410430 0.359370 0.142119
H13   H     H_    0.723854 0.710602 0.777072 0.107397
H14   H     H_    0.324415 0.206032 0.374671 0.102734
H15   H     H_    0.669593 0.801046 0.621023 0.101706
H16   H     H_    0.555637 0.045706 0.237575 0.123984
H17   H     H_    0.439160 0.952569 0.765354 0.123145
H18   H     H_    0.505410 0.137488 0.080675 0.137622
H19   H     H_    0.496105 0.864638 0.920953 0.136881
H20   H     H_    0.697664 0.418717 0.758673 0.224747
H21   H     H_    0.705640 0.210990 0.778067 0.194450
H22   H     H_    0.646457 0.215865 0.664629 0.242624
H23   H     H_    0.467614 0.884014 0.348602 0.153762
H24   H     H_    0.586183 0.203371 0.777816 0.213978
H25   H     H_    0.394724 0.749346 0.243552 0.216901
H26   H     H_    0.251343 0.693465 0.204444 0.186462
H27   H     H_    0.261718 0.649212 0.328297 0.242005
H28   H     H_    0.277527 0.534267 0.234624 0.216184
H29   H     H_    0.512672 0.115132 0.652749 0.162080
H30   H     H_    0.388796 0.622710 0.750093 0.136313
H31   H     H_    0.608438 0.372620 0.249917 0.136386
H32   H     H_    0.330189 0.707199 0.903672 0.132064
H33   H     H_    0.678842 0.308005 0.096384 0.131737
H34   H     H_    0.335350 0.719604 0.078883 0.151713
N1    N     N_R   0.499960 0.499900 0.743810 -0.192872
N2    N     N_R   0.500040 0.500100 0.256190 -0.193220
N3    N     N_2   0.637506 0.378702 0.744454 -0.379064
N4    N     N_2   0.383016 0.657854 0.256797 -0.381556
O1    O     O_R   0.500000 0.319630 0.582270 -0.564125
O2    O     O_R   0.500000 0.680370 0.417730 -0.567902
O3    O     O_R   0.499990 0.319660 0.417730 -0.577979
O4    O     O_R   0.500010 0.680340 0.582270 -0.579000
O5    O     O_R   0.370260 0.499960 0.582280 -0.595309
O6    O     O_R   0.629740 0.500040 0.417720 -0.596551
O7    O     O_R   0.370250 0.499990 0.417740 -0.553369
O8    O     O_R   0.629750 0.500010 0.582260 -0.558518

loop_
_geom_bond_atom_site_label_1
_geom_bond_atom_site_label_2
_ccdc_geom_bond_type
C40   C47   A    
C38   C40   A    
Cu1   Cu2   S    
C21   H31   S    
C10   H29   S    
C8    H10   S    
C22   C29   A    
C32   H2    S    
C50   H28   S    
C6    H19   S    
C39   C41   A    
Cu1   O8    S    
C18   N1    A    
C7    C45   A    
C35   C37   A    
C24   C26   A    
Cu2   O7    S    
C3    C54   A    
C33   C36   A    
C49   H22   S    
C9    H23   S    
C5    H18   S    
C29   H32   S    
Cu1   N1    S    
C19   N2    A    
C22   C25   A    
C20   H30   S    
C45   H11   S    
C17   C36   S    
C12   O4    A    
C16   C37   S    
C40   C42   A    
C23   C46   A    
C41   C43   A    
C42   C44   A    
Cu2   O3    S    
C30   H33   S    
C17   O6    A    
C52   C54   A    
C50   H27   S    
C20   N1    A    
C23   C47   A    
C15   C54   S    
C34   C44   A    
Cu1   O1    S    
C10   C14   A    
C1    O3    A    
C5    C7    A    
C50   N4    S    
C6    C8    A    
C45   C52   A    
C25   C26   A    
C2    C53   A    
C51   C53   A    
C2    C4    A    
C17   O8    A    
H20   N3    S    
C7    H9    S    
C48   H6    S    
C1    O1    A    
C31   H34   S    
C34   H8    S    
C19   C28   A    
C9    C11   A    
C8    C51   A    
C4    H17   S    
C19   N4    S    
C4    C6    A    
C20   C22   A    
C13   C15   A    
C1    C13   S    
C42   C43   A    
Cu2   O6    S    
C53   H15   S    
C50   H26   S    
Cu2   O2    S    
C33   H1    S    
C27   C32   A    
C33   C44   A    
C28   C31   A    
C18   C27   A    
C3    C5    A    
C10   C13   A    
C47   H5    S    
C11   C12   S    
C16   O5    A    
C25   C27   A    
C26   C28   A    
C49   H24   S    
C36   C38   A    
C3    H16   S    
C9    C15   A    
C37   C39   A    
C30   C32   A    
H25   N4    S    
C35   H12   S    
C39   H4    S    
Cu1   O4    S    
C23   H7    S    
C11   C14   A    
C41   C48   A    
C49   H21   S    
C2    C14   S    
C43   C46   A    
C24   C30   A    
C52   H14   S    
C38   H3    S    
C16   O7    A    
Cu2   N2    S    
C34   C48   A    
C29   C31   A    
C21   C24   A    
Cu1   O5    S    
C18   N3    S    
C12   O2    A    
C51   H13   S    
C49   N3    S    
C35   C46   A    
C21   N2    A    
