data_mof_unit_32784.cif
_audit_creation_date              2012-12-11T15:57:30-0500
_audit_creation_method            fapswitch 2.2
_symmetry_space_group_name_H-M    P1
_symmetry_Int_Tables_number       1
_space_group_crystal_system       triclinic
_cell_length_a                    10.733782
_cell_length_b                    10.734186
_cell_length_c                    16.975514
_cell_angle_alpha                 99.570874
_cell_angle_beta                  99.878754
_cell_angle_gamma                 61.401609
_cell_volume                      1683.77986795

loop_
_atom_site_label
_atom_site_type_symbol
_atom_type_description
_atom_site_fract_x
_atom_site_fract_y
_atom_site_fract_z
_atom_type_partial_charge
C1    C     C_R   0.354174 0.776457 0.402090 0.579333
C2    C     C_2   0.328449 0.343022 0.825261 -0.010170
C3    C     C_2   0.462917 0.292598 0.806606 -0.164554
C4    C     C_R   0.368503 0.345645 0.357606 0.561473
C5    C     C_2   0.495912 0.291589 0.726385 -0.165264
C6    C     C_1   0.768123 0.368282 0.714732 -0.023679
C7    C     C_1   0.813109 0.329103 0.780667 -0.026571
C8    C     C_1   0.358495 0.765003 0.713716 -0.038396
C9    C     C_1   0.325347 0.811757 0.780519 -0.027040
C10   C     C_R   0.895903 0.306891 0.087443 0.549797
C11   C     C_R   0.318513 0.298606 0.120067 0.572824
C12   C     C_2   0.841273 0.322926 0.162658 -0.109303
C13   C     C_R   0.294482 0.891053 0.083794 0.562870
C14   C     C_R   0.879275 0.300055 0.860021 0.548442
C15   C     C_R   0.306880 0.293849 0.893734 0.547200
C16   C     C_R   0.778244 0.375815 0.405661 0.569189
C17   C     C_R   0.280236 0.881022 0.857256 0.556159
C18   C     C_R   0.381181 0.715120 0.631583 0.506478
C19   C     C_R   0.416706 0.383374 0.595923 0.551856
C20   C     C_R   0.717680 0.411856 0.635707 0.514220
C21   C     C_1   0.341096 0.334372 0.274339 -0.015464
C22   C     C_1   0.330304 0.323868 0.203426 0.001551
C23   C     C_2   0.888694 0.205918 0.201324 -0.163314
C24   C     C_2   0.856268 0.326413 0.335526 -0.120365
C25   C     C_1   0.200726 0.419014 0.771941 0.217527
C26   C     C_1   0.841410 0.100789 0.304621 0.258259
C27   C     C_2   0.861544 0.214880 0.283590 -0.055723
C28   C     C_2   0.328401 0.854970 0.334340 -0.087062
C29   C     C_2   0.347487 0.821469 0.157170 0.072632
C30   C     C_2   0.416407 0.871940 0.216945 -0.150474
C31   C     C_2   0.439057 0.836125 0.298723 -0.140201
C32   C     C_2   0.414368 0.399383 0.681915 -0.130055
Cr1   Cr    Cr6+3 0.608020 0.610770 0.522990 1.051554
Cr2   Cr    Cr6+3 0.289390 0.599570 0.488050 1.062032
Cr3   Cr    Cr6+3 0.602610 0.289690 0.489020 1.053848
Cr4   Cr    Cr6+3 0.053780 0.052210 0.965970 1.049502
Cr5   Cr    Cr6+3 0.060060 0.372530 0.992430 1.070997
Cr6   Cr    Cr6+3 0.372600 0.061970 0.991430 1.042336
H1    H     H_    0.950293 0.099656 0.172339 0.170506
H2    H     H_    0.581513 0.194257 0.701600 0.167917
H3    H     H_    0.338506 0.501359 0.708718 0.112937
H4    H     H_    0.778575 0.429496 0.190721 0.117790
H5    H     H_    0.889770 0.398520 0.318866 0.106958
H6    H     H_    0.448349 0.949787 0.207327 0.152133
H7    H     H_    0.548043 0.785659 0.327046 0.168801
H8    H     H_    0.220196 0.907343 0.304897 0.134226
H9    H     H_    0.552814 0.227486 0.847243 0.150495
I1    I     I_    0.291821 0.659664 0.167104 -0.381463
N1    N     N_1   0.098405 0.479259 0.729803 -0.253912
N2    N     N_1   0.825530 0.009360 0.321190 -0.268553
O1    O     O_R   0.749250 0.499990 0.439200 -0.503230
O2    O     O_R   0.411120 0.181190 0.091480 -0.515707
O3    O     O_R   0.364220 0.944920 0.062310 -0.513707
O4    O     O_R   0.477870 0.725740 0.440280 -0.491633
O5    O     O_R   0.158740 0.906940 0.874970 -0.495020
O6    O     O_R   0.930920 0.176940 0.885610 -0.494608
O7    O     O_R   0.910730 0.394510 0.895320 -0.498531
O8    O     O_R   0.185840 0.361180 0.920280 -0.485013
O9    O     O_R   0.399210 0.173040 0.915160 -0.512741
O10   O     O_R   0.353170 0.937370 0.898860 -0.491553
O11   O     O_3   0.162150 0.162240 0.983280 -0.267989
O12   O     O_R   0.299400 0.468710 0.556310 -0.486432
O13   O     O_R   0.260770 0.742210 0.412610 -0.482007
O14   O     O_R   0.297990 0.466320 0.394220 -0.481247
O15   O     O_R   0.487720 0.253870 0.385870 -0.495100
O16   O     O_R   0.721940 0.304340 0.422320 -0.473876
O17   O     O_R   0.750770 0.502570 0.614050 -0.471118
O18   O     O_R   0.479280 0.728140 0.602370 -0.489895
O19   O     O_R   0.262290 0.744790 0.587460 -0.492064
O20   O     O_R   0.489240 0.256450 0.560730 -0.497192
O21   O     O_R   0.723350 0.306730 0.584410 -0.505828
O22   O     O_3   0.500010 0.500010 0.500020 -0.330303
O23   O     O_R   0.170650 0.915100 0.051290 -0.491520
O24   O     O_R   0.941960 0.184500 0.049060 -0.502303
O25   O     O_R   0.922640 0.402670 0.071640 -0.502524
O26   O     O_R   0.196880 0.368740 0.083740 -0.479137

loop_
_geom_bond_atom_site_label_1
_geom_bond_atom_site_label_2
_ccdc_geom_bond_type
C14   O6    A    
C20   O17   A    
C24   C27   D    
C12   C23   D    
C28   H8    S    
C26   C27   S    
C13   C29   S    
C11   O26   A    
C26   N2    T    
C30   C31   S    
Cr6   O2    S    
Cr3   O15   S    
C19   O12   A    
C18   O18   A    
Cr2   O12   S    
C12   H4    S    
C11   O2    A    
Cr1   O22   S    
C7    C14   S    
Cr3   O20   S    
C8    C9    T    
C1    C28   S    
C32   H3    S    
C16   O1    A    
C20   O21   A    
C23   C27   S    
C17   O5    A    
Cr5   O8    S    
C5    C32   D    
C18   O19   A    
Cr5   O25   S    
Cr3   O21   S    
C16   C24   S    
C21   C22   T    
C30   H6    S    
C19   C32   S    
C1    O13   A    
C13   O3    A    
C29   I1    S    
Cr3   O16   S    
C8    C18   S    
C1    O4    A    
C29   C30   D    
Cr4   O6    S    
C10   O25   A    
Cr2   O14   S    
C2    C15   S    
Cr2   O19   S    
C10   C12   S    
Cr6   O10   S    
C9    C17   S    
Cr5   O26   S    
C13   O23   A    
Cr3   O22   S    
C15   O8    A    
C16   O16   A    
Cr4   O11   S    
Cr2   O22   S    
Cr1   O17   S    
Cr1   O4    S    
C14   O7    A    
Cr4   O24   S    
C15   O9    A    
C28   C31   D    
C3    C5    S    
Cr5   O11   S    
C6    C7    T    
Cr1   O1    S    
C6    C20   S    
C4    O14   A    
C11   C22   S    
Cr6   O11   S    
C2    C3    D    
Cr4   O5    S    
C4    C21   S    
C10   O24   A    
C4    O15   A    
Cr6   O3    S    
C23   H1    S    
C3    H9    S    
Cr2   O13   S    
C2    C25   S    
C25   N1    T    
Cr4   O23   S    
C17   O10   A    
Cr6   O9    S    
C31   H7    S    
C5    H2    S    
C24   H5    S    
C19   O20   A    
Cr5   O7    S    
Cr1   O18   S    
