data_mof_unit_5393.cif
_audit_creation_date              2012-12-10T16:32:38-0500
_audit_creation_method            fapswitch 2.2
_symmetry_space_group_name_H-M    P1
_symmetry_Int_Tables_number       1
_space_group_crystal_system       triclinic
_cell_length_a                    16.900802
_cell_length_b                    16.901188
_cell_length_c                    16.905864
_cell_angle_alpha                 64.708578
_cell_angle_beta                  64.771746
_cell_angle_gamma                 65.524439
_cell_volume                      3787.18509577

loop_
_atom_site_label
_atom_site_type_symbol
_atom_type_description
_atom_site_fract_x
_atom_site_fract_y
_atom_site_fract_z
_atom_type_partial_charge
C1    C     C_R   0.584770 0.031860 0.600482 -0.157438
C2    C     C_R   0.820965 0.560397 0.041030 0.907864
C3    C     C_R   0.431159 0.974334 0.178003 1.012184
C4    C     C_R   0.559493 0.044511 0.821269 0.921752
C5    C     C_R   0.567601 0.822026 0.026259 0.960576
C6    C     C_R   0.439157 0.179063 0.959675 0.926304
C7    C     C_R   0.025714 0.568789 0.822001 1.005400
C8    C     C_R   0.954937 0.440743 0.178726 0.890341
C9    C     C_R   0.822132 0.026095 0.568340 1.013799
C10   C     C_R   0.178261 0.955303 0.441074 0.890078
C11   C     C_R   0.535592 0.016080 0.553994 0.125020
C12   C     C_R   0.396486 0.971416 0.415248 -0.078027
C13   C     C_R   0.444119 0.986382 0.464148 0.153785
C14   C     C_R   0.013273 0.555929 0.535932 0.150842
C15   C     C_R   0.985317 0.464513 0.444632 0.151348
C16   C     C_R   0.554790 0.538086 0.009376 0.236251
C17   C     C_R   0.467754 0.450043 0.975422 0.171911
C18   C     C_R   0.575668 0.015208 0.462115 -0.168814
C19   C     C_R   0.401625 0.993370 0.554103 -0.091200
C20   C     C_R   0.009319 0.464842 0.577532 -0.198398
C21   C     C_R   0.995615 0.553352 0.400570 -0.118699
C22   C     C_R   0.547212 0.563488 0.921474 -0.118611
C23   C     C_R   0.028357 0.603286 0.584908 -0.075501
C24   C     C_R   0.476897 0.423125 0.062679 -0.153922
C25   C     C_R   0.534039 0.993703 0.420954 -0.200017
C26   C     C_R   0.448946 0.000909 0.600144 -0.212604
C27   C     C_R   0.503668 0.520066 0.904755 -0.159270
C28   C     C_R   0.520005 0.466839 0.079564 -0.116315
C29   C     C_R   0.989027 0.422832 0.535704 -0.196806
C30   C     C_R   0.002867 0.600075 0.447379 -0.116349
C31   C     C_R   0.537867 0.069693 0.674648 0.334762
C32   C     C_R   0.422389 0.997950 0.317516 0.277211
C33   C     C_R   0.069394 0.675661 0.536434 0.360525
C34   C     C_R   0.970763 0.415203 0.397209 -0.074497
C35   C     C_R   0.996859 0.318075 0.423095 0.277510
C36   C     C_R   0.675791 0.538966 0.057757 0.313288
C37   C     C_R   0.322076 0.445333 0.970547 0.308523
C38   C     C_R   0.324481 0.929830 0.463654 0.361029
C39   C     C_R   0.681819 0.005936 0.574132 0.310167
C40   C     C_R   0.461703 0.324865 0.939577 0.358665
C41   C     C_R   0.565796 0.681584 0.010437 0.281380
C42   C     C_R   0.930094 0.462737 0.325408 0.358261
C43   C     C_R   0.002500 0.576799 0.682554 0.276677
C44   C     C_R   0.588741 0.071134 0.721777 -0.126573
C45   C     C_R   0.598079 0.586547 0.028158 -0.027675
C46   C     C_R   0.392940 0.962976 0.275191 -0.203312
C47   C     C_R   0.073211 0.722435 0.586716 -0.235192
C48   C     C_R   0.962656 0.274915 0.393650 -0.201630
C49   C     C_R   0.722156 0.589048 0.063788 -0.239849
C50   C     C_R   0.276730 0.401542 0.954005 -0.199673
C51   C     C_R   0.277513 0.926449 0.413319 -0.234923
C52   C     C_R   0.725248 0.038122 0.605329 -0.207729
C53   C     C_R   0.410620 0.277947 0.936027 -0.250519
C54   C     C_R   0.603731 0.725540 0.035748 -0.260194
C55   C     C_R   0.926567 0.412253 0.278617 -0.235640
C56   C     C_R   0.416621 0.407564 0.959717 -0.104473
C57   C     C_R   0.037081 0.606788 0.724830 -0.202389
C58   C     C_R   0.676440 0.075561 0.676827 0.228174
C59   C     C_R   0.322282 0.922961 0.325367 0.278082
C60   C     C_R   0.076956 0.677534 0.674600 0.275763
C61   C     C_R   0.922995 0.324203 0.323564 0.275927
C62   C     C_R   0.678147 0.676356 0.068807 0.294563
C63   C     C_R   0.324028 0.322654 0.928558 0.260664
C64   C     C_R   0.974262 0.177907 0.431343 1.012368
C65   C     C_R   0.044609 0.821712 0.558984 0.889662
C66   C     C_R   0.178802 0.434301 0.969552 0.990292
H1    H     H_    0.415940 0.996124 0.671919 0.196214
H2    H     H_    0.574641 0.617306 0.865897 0.153555
H3    H     H_    0.998470 0.588304 0.329489 0.207703
H4    H     H_    0.020310 0.425452 0.643727 0.203488
H5    H     H_    0.424538 0.138657 0.646848 0.342366
H6    H     H_    0.454770 0.104359 0.295220 0.335999
H7    H     H_    0.143678 0.740508 0.421880 0.364312
H8    H     H_    0.101410 0.298155 0.456297 0.337102
H9    H     H_    0.741789 0.419588 0.119501 0.358388
H10   H     H_    0.310941 0.545740 0.008631 0.347147
H11   H     H_    0.259963 0.854781 0.577830 0.364110
H12   H     H_    0.572817 0.984546 0.354019 0.202995
H13   H     H_    0.701956 0.902556 0.538996 0.340313
H14   H     H_    0.581097 0.256378 0.881197 0.357532
H15   H     H_    0.515073 0.781485 0.918847 0.340203
H16   H     H_    0.856051 0.575733 0.261801 0.362108
H17   H     H_    0.897683 0.541678 0.704945 0.339390
H18   H     H_    0.751291 0.056927 0.745572 0.359887
H19   H     H_    0.254938 0.940273 0.249750 0.359806
H20   H     H_    0.060058 0.744888 0.749970 0.360278
H21   H     H_    0.940327 0.249216 0.255629 0.359627
H22   H     H_    0.747535 0.752029 0.048578 0.357773
H23   H     H_    0.000046 0.671133 0.412687 0.207817
H24   H     H_    0.248067 0.250773 0.955453 0.358101
H25   H     H_    0.977974 0.356394 0.575144 0.203469
H26   H     H_    0.524858 0.446181 0.147824 0.162131
H27   H     H_    0.497104 0.541606 0.837071 0.160540
H28   H     H_    0.331423 0.993701 0.590468 0.208067
H29   H     H_    0.640763 0.029128 0.421681 0.199355
H30   H     H_    0.449143 0.369386 0.118035 0.153711
O1    O     O_R   0.982940 0.138950 0.510160 -0.557913
O2    O     O_R   0.982940 0.510160 0.138950 -0.610601
O3    O     O_R   0.861050 0.017060 0.489840 -0.558334
O4    O     O_R   0.138950 0.982940 0.510160 -0.606529
O5    O     O_R   0.867700 0.025880 0.612340 -0.638356
O6    O     O_R   0.132300 0.974120 0.387660 -0.628785
O7    O     O_R   0.025880 0.612340 0.867700 -0.640005
O8    O     O_R   0.974120 0.387660 0.132300 -0.627369
O9    O     O_R   0.612340 0.867700 0.025880 -0.622097
O10   O     O_R   0.387660 0.132300 0.974120 -0.615348
O11   O     O_R   0.387660 0.974120 0.132300 -0.637134
O12   O     O_R   0.017060 0.861050 0.489840 -0.606971
O13   O     O_R   0.612340 0.025880 0.867700 -0.648039
O14   O     O_R   0.132300 0.387660 0.974120 -0.634187
O15   O     O_R   0.867700 0.612340 0.025880 -0.629445
O16   O     O_R   0.974120 0.132300 0.387660 -0.640412
O17   O     O_R   0.025880 0.867700 0.612340 -0.629516
O18   O     O_3   0.444594 0.106308 0.702649 -0.729183
O19   O     O_3   0.470983 0.061040 0.261919 -0.744243
O20   O     O_3   0.105428 0.699942 0.442007 -0.753683
O21   O     O_3   0.058499 0.263931 0.472097 -0.747284
O22   O     O_3   0.708238 0.445630 0.073983 -0.722338
O23   O     O_R   0.138950 0.510160 0.982940 -0.545123
O24   O     O_3   0.272367 0.523638 0.997071 -0.715894
O25   O     O_3   0.300742 0.892733 0.557977 -0.755495
O26   O     O_3   0.735626 0.945908 0.523350 -0.745699
O27   O     O_3   0.554600 0.290635 0.926103 -0.705947
O28   O     O_3   0.496510 0.729077 0.970625 -0.728287
O29   O     O_3   0.894114 0.556445 0.301728 -0.755195
O30   O     O_3   0.940769 0.526629 0.738120 -0.739650
O31   O     O_3   0.714807 0.110194 0.707752 -0.712548
O32   O     O_3   0.291388 0.887447 0.287901 -0.712400
O33   O     O_3   0.112717 0.708298 0.711956 -0.713507
O34   O     O_R   0.861050 0.489840 0.017060 -0.598673
O35   O     O_3   0.887525 0.285927 0.293428 -0.716896
O36   O     O_3   0.710879 0.713680 0.102737 -0.710420
O37   O     O_3   0.285151 0.287017 0.899214 -0.691480
O38   O     O_R   0.510160 0.982940 0.138950 -0.557471
O39   O     O_R   0.489840 0.017060 0.861050 -0.586632
O40   O     O_R   0.489840 0.861050 0.017060 -0.594346
O41   O     O_R   0.510160 0.138950 0.982940 -0.606274
O42   O     O_R   0.017060 0.489840 0.861050 -0.557208
Zn1   Zn    Zn3+2 0.004880 0.004880 0.583590 1.026037
Zn2   Zn    Zn3+2 0.995120 0.995120 0.416410 1.026400
Zn3   Zn    Zn3+2 0.004880 0.583590 0.004880 1.033808
Zn4   Zn    Zn3+2 0.995120 0.416410 0.995120 1.039891
Zn5   Zn    Zn3+2 0.583590 0.004880 0.004880 1.034013
Zn6   Zn    Zn3+2 0.416410 0.995120 0.995120 1.038564

loop_
_geom_bond_atom_site_label_1
_geom_bond_atom_site_label_2
_ccdc_geom_bond_type
C16   C28   A    
C5    O40   A    
C4    O13   A    
C11   C18   A    
C50   C63   A    
C46   C59   A    
C40   C56   A    
O16   Zn2   S    
C34   C42   A    
C13   C25   A    
O5    Zn1   S    
C5    O9    A    
H9    O22   S    
H6    O19   S    
H10   O24   S    
H7    O20   S    
C26   H1    S    
C63   O37   S    
C41   O28   S    
C47   C65   S    
O4    Zn1   S    
C24   H30   S    
C48   C64   S    
C8    O8    A    
C35   C48   A    
C1    C31   A    
C23   C43   A    
C8    C55   S    
C34   C35   A    
H21   O35   S    
O14   Zn4   S    
C19   C26   A    
C8    O2    A    
C42   O29   S    
C47   C60   A    
C37   C56   A    
C44   C58   A    
C23   C33   A    
C1    C11   S    
O17   Zn1   S    
C36   O22   S    
C15   C34   S    
H18   O31   S    
C39   C52   A    
O41   Zn5   S    
C58   O31   S    
C9    O3    A    
C7    O7    A    
C12   C32   A    
C18   H29   S    
C20   H4    S    
C9    C52   S    
C32   C46   A    
C14   C30   A    
C30   H23   S    
C10   C51   S    
O7    Zn3   S    
C43   O30   S    
C15   C29   A    
C20   C29   A    
H13   O26   S    
C2    O15   A    
C17   C24   A    
C31   C44   A    
C13   C19   A    
H15   O28   S    
C25   H12   S    
C17   C27   A    
C62   O36   S    
C5    C54   S    
C10   O6    A    
H11   O25   S    
O13   Zn5   S    
O42   Zn4   S    
O12   Zn2   S    
H24   O37   S    
C61   O35   S    
C57   C60   A    
C38   C51   A    
C4    C44   S    
C11   C26   A    
C3    O11   A    
C59   O32   S    
H5    O18   S    
C21   H3    S    
C14   C23   S    
C16   C45   S    
H16   O29   S    
C2    C49   S    
C14   C20   A    
C42   C55   A    
C50   C66   S    
C6    O10   A    
C43   C57   A    
C36   C45   A    
C28   H26   S    
C65   O12   A    
O6    Zn2   S    
C66   O14   A    
C10   O4    A    
C39   O26   S    
C17   C56   S    
C22   H2    S    
C19   H28   S    
C52   C58   A    
C4    O39   A    
O39   Zn6   S    
C66   O23   A    
O2    Zn3   S    
O23   Zn3   S    
O8    Zn4   S    
O3    Zn2   S    
C35   O21   S    
C51   C59   A    
H22   O36   S    
C6    C53   S    
C29   H25   S    
C40   O27   S    
C64   O1    A    
C33   O20   S    
C16   C22   A    
C49   C62   A    
C31   O18   S    
C65   O17   A    
H8    O21   S    
C64   O16   A    
C24   C28   A    
C60   O33   S    
O9    Zn5   S    
C7    O42   A    
H20   O33   S    
O10   Zn6   S    
C54   C62   A    
C21   C30   A    
C3    C46   S    
C22   C27   A    
C3    O38   A    
C6    O41   A    
O40   Zn6   S    
C18   C25   A    
C37   C50   A    
C53   C63   A    
C48   C61   A    
C37   O24   S    
C33   C47   A    
C55   C61   A    
C2    O34   A    
C7    C57   S    
C32   O19   S    
C12   C38   A    
O34   Zn4   S    
C41   C54   A    
C38   O25   S    
C27   H27   S    
C1    C39   A    
C15   C21   A    
C12   C13   S    
C9    O5    A    
C40   C53   A    
O15   Zn3   S    
C41   C45   A    
O38   Zn5   S    
H19   O32   S    
H17   O30   S    
O11   Zn6   S    
O1    Zn1   S    
C36   C49   A    
H14   O27   S    
