data_mof_unit_22010.cif
_audit_creation_date              2012-12-11T17:05:37-0500
_audit_creation_method            fapswitch 2.2
_symmetry_space_group_name_H-M    P1
_symmetry_Int_Tables_number       1
_space_group_crystal_system       triclinic
_cell_length_a                    6.969981
_cell_length_b                    14.547641
_cell_length_c                    16.000677
_cell_angle_alpha                 90.217454
_cell_angle_beta                  89.77904
_cell_angle_gamma                 89.870576
_cell_volume                      1622.38920503

loop_
_atom_site_label
_atom_site_type_symbol
_atom_type_description
_atom_site_fract_x
_atom_site_fract_y
_atom_site_fract_z
_atom_type_partial_charge
O1    O     O_R   0.494380 0.415640 0.412830 -0.539062
O2    O     O_R   0.823960 0.405540 0.586560 -0.545791
O3    O     O_R   0.994270 0.584360 0.587170 -0.533785
C1    C     C_R   0.655114 0.383444 0.615121 0.689687
O4    O     O_R   0.824090 0.404620 0.413450 -0.545394
O5    O     O_R   0.994400 0.583430 0.412820 -0.538330
C2    C     C_R   0.655723 0.382735 0.384325 0.696379
O6    O     O_R   0.494250 0.416570 0.587180 -0.538715
O7    O     O_3   0.660800 0.558670 0.500000 -0.356042
V1    V     V_3+5 0.935650 0.489120 0.500000 1.405551
O8    O     O_R   0.324110 0.594460 0.413440 -0.536657
C3    C     C_R   0.155217 0.616383 0.384631 0.702071
O9    O     O_R   0.323980 0.595380 0.586550 -0.538601
C4    C     C_R   0.154768 0.617474 0.615550 0.658458
V2    V     V_3+5 0.435660 0.510880 0.500000 1.422699
O10   O     O_3   0.160640 0.441330 0.500000 -0.375619
C5    C     C_3   0.005736 0.653944 0.756720 -0.319065
H1    H     H_    0.858740 0.643132 0.731714 0.147525
H2    H     H_    0.056485 0.586377 0.780528 0.121302
C6    C     C_3   0.996193 0.724088 0.829969 -0.327048
H3    H     H_    0.044874 0.690534 0.888583 0.122877
H4    H     H_    0.844387 0.745591 0.839758 0.143816
H5    H     H_    0.901751 0.876935 0.737223 0.136920
C7    C     C_3   0.071202 0.783885 0.654445 -0.139986
C8    C     C_3   0.343004 0.702928 0.726575 -0.341216
C9    C     C_3   0.142506 0.687998 0.686164 0.068306
H6    H     H_    0.447580 0.726809 0.678756 0.175435
H7    H     H_    0.398305 0.636755 0.751712 0.135127
C10   C     C_3   0.123115 0.809285 0.811527 0.107081
C11   C     C_3   0.052735 0.853141 0.728830 -0.348322
C12   C     C_3   0.332579 0.774868 0.797778 -0.313711
H8    H     H_    0.388337 0.743875 0.856384 0.133495
H9    H     H_    0.427537 0.833749 0.781849 0.146695
H10   H     H_    0.179604 0.810979 0.609666 0.106948
H11   H     H_    0.139521 0.915409 0.714912 0.118591
C13   C     C_R   0.276813 0.751664 0.188315 0.084345
C14   C     C_R   0.117974 0.809708 0.178798 -0.101888
C15   C     C_R   0.963204 0.797062 0.234351 -0.134287
H12   H     H_    0.837403 0.839869 0.229390 0.156487
C16   C     C_R   0.975353 0.734213 0.300966 -0.171696
H13   H     H_    0.857906 0.730074 0.345070 0.145137
C17   C     C_R   0.142585 0.681734 0.313897 -0.109513
C18   C     C_R   0.288855 0.689241 0.254108 0.098348
C19   C     C_3   0.496630 0.708130 0.266329 -0.411825
C20   C     C_3   0.483443 0.775730 0.194431 -0.395752
H14   H     H_    0.587174 0.647083 0.251810 0.166131
H15   H     H_    0.525040 0.741745 0.327540 0.187888
H16   H     H_    0.565849 0.753673 0.138186 0.165060
H17   H     H_    0.504747 0.848479 0.213837 0.188486
C21   C     C_R   0.492783 0.316014 0.741356 0.093516
C22   C     C_R   0.647340 0.317307 0.685158 -0.109542
C23   C     C_R   0.799237 0.255419 0.699669 -0.174557
H18   H     H_    0.921918 0.254033 0.658208 0.135018
C24   C     C_R   0.788142 0.190144 0.764256 -0.176626
H19   H     H_    0.903202 0.140748 0.770874 0.126965
C25   C     C_R   0.624496 0.184624 0.816007 -0.109277
C26   C     C_R   0.481385 0.251162 0.805034 0.100956
C27   C     C_3   0.271077 0.238994 0.793007 -0.406074
C28   C     C_3   0.283406 0.310110 0.723927 -0.398701
H20   H     H_    0.186630 0.262787 0.848080 0.173503
H21   H     H_    0.235525 0.168986 0.769826 0.166721
H22   H     H_    0.206924 0.375215 0.739228 0.162034
H23   H     H_    0.254167 0.281582 0.660711 0.173987
C29   C     C_R   0.490515 0.314487 0.259192 0.075170
C30   C     C_R   0.647367 0.315611 0.314234 -0.105232
C31   C     C_R   0.783088 0.243847 0.307532 -0.211710
H24   H     H_    0.892999 0.237023 0.354863 0.133015
C32   C     C_R   0.763882 0.174446 0.246164 -0.049549
C33   C     C_R   0.621338 0.180958 0.184109 -0.158347
C34   C     C_R   0.474532 0.245374 0.197564 0.046749
C35   C     C_3   0.276785 0.221515 0.228121 -0.219052
C36   C     C_3   0.286423 0.303400 0.286096 -0.422462
H25   H     H_    0.163919 0.225806 0.179440 0.132330
H26   H     H_    0.269207 0.286958 0.353659 0.178023
H27   H     H_    0.196126 0.361993 0.265067 0.159069
O11   O     O_R   0.771490 0.080820 0.910070 -0.540409
O12   O     O_R   0.441590 0.092730 0.083780 -0.538017
O13   O     O_R   0.271350 0.913900 0.084390 -0.535879
C37   C     C_R   0.609816 0.113416 0.113927 0.705496
O14   O     O_R   0.441780 0.091820 0.910670 -0.540349
O15   O     O_R   0.271540 0.912980 0.910040 -0.543565
C38   C     C_R   0.610883 0.113795 0.881985 0.691822
O16   O     O_R   0.771300 0.081740 0.084420 -0.534992
O17   O     O_3   0.604960 0.938700 0.997240 -0.375067
V3    V     V_3+5 0.330090 0.008230 0.997220 1.406725
O18   O     O_R   0.941820 0.901930 0.910640 -0.546346
C39   C     C_R   0.111363 0.879046 0.882395 0.649020
O19   O     O_R   0.941630 0.902840 0.083750 -0.543359
C40   C     C_R   0.110275 0.880562 0.112337 0.728121
V4    V     V_3+5 0.830090 0.986410 0.997190 1.397190
O20   O     O_3   0.105080 0.055990 0.997200 -0.367904
C41   C     C_1   0.853794 0.086653 0.259864 0.316059
N1    N     N_1   0.919413 0.014691 0.270891 -0.355285
C42   C     C_1   0.281636 0.134416 0.275576 0.359799
N2    N     N_1   0.292531 0.066988 0.313474 -0.337795
C43   C     C_1   0.888429 0.778334 0.608283 0.286513
N3    N     N_1   0.745623 0.774147 0.571823 -0.366245

loop_
_geom_bond_atom_site_label_1
_geom_bond_atom_site_label_2
_ccdc_geom_bond_type
C8    C12   S    
C31   C32   A    
C1    O6    A    
V3    O20   S    
C35   C42   S    
C23   H18   S    
C8    H7    S    
C10   C11   S    
C11   H11   S    
C21   C28   S    
C13   C14   A    
C14   C15   A    
C7    C9    S    
C7    C43   S    
O5    C3    A    
C15   H12   S    
C27   H20   S    
V2    O10   S    
C5    C6    S    
C25   C26   A    
C3    C17   S    
C5    H2    S    
O8    V2    S    
C23   C24   A    
C32   C33   A    
C37   O16   A    
C12   H9    S    
C34   C35   S    
O1    V2    S    
C29   C34   A    
O7    V1    S    
C19   H15   S    
O19   C40   A    
C27   H21   S    
C16   C17   A    
C31   H24   S    
O12   V3    S    
O9    C4    A    
C42   N2    T    
O17   V4    S    
C36   H27   S    
C19   H14   S    
C21   C22   A    
C6    C10   S    
O12   C37   A    
O13   C40   A    
C24   C25   A    
C1    C22   S    
C22   C23   A    
H5    C11   S    
O17   V3    S    
O14   C38   A    
O18   V4    S    
O11   C38   A    
O4    C2    A    
O18   C39   A    
C8    C9    S    
C7    H10   S    
O2    C1    A    
C18   C19   S    
O14   V3    S    
C2    C30   S    
C12   H8    S    
C20   H17   S    
C43   N3    T    
C5    H1    S    
C13   C20   S    
C4    C9    S    
O15   C39   A    
O3    C4    A    
O13   V3    S    
C36   H26   S    
C16   H13   S    
O19   V4    S    
O6    V2    S    
O9    V2    S    
C33   C37   S    
C27   C28   S    
C17   C18   A    
C5    C9    S    
V4    O20   S    
O2    V1    S    
C19   C20   S    
C35   H25   S    
C20   H16   S    
O16   V4    S    
C24   H19   S    
C28   H22   S    
O1    C2    A    
C21   C26   A    
C6    H4    S    
O5    V1    S    
O8    C3    A    
C25   C38   S    
C8    H6    S    
C28   H23   S    
C14   C40   S    
C29   C30   A    
O7    V2    S    
C35   C36   S    
C10   C12   S    
O3    V1    S    
V1    O10   S    
C15   C16   A    
C26   C27   S    
C41   N1    T    
C32   C41   S    
C29   C36   S    
C33   C34   A    
C7    C11   S    
C10   C39   S    
O4    V1    S    
C6    H3    S    
C30   C31   A    
C13   C18   A    
O15   V3    S    
O11   V4    S    
