data_mof_unit_68368.cif
_audit_creation_date              2012-12-11T17:41:16-0500
_audit_creation_method            fapswitch 2.2
_symmetry_space_group_name_H-M    P1
_symmetry_Int_Tables_number       1
_space_group_crystal_system       triclinic
_cell_length_a                    8.170004
_cell_length_b                    12.766392
_cell_length_c                    14.286079
_cell_angle_alpha                 93.146699
_cell_angle_beta                  90.987072
_cell_angle_gamma                 98.048886
_cell_volume                      1472.68819865

loop_
_atom_site_label
_atom_site_type_symbol
_atom_type_description
_atom_site_fract_x
_atom_site_fract_y
_atom_site_fract_z
_atom_type_partial_charge
Ba1   Ba    Ba6+2 0.855630 0.555280 0.454520 1.641617
Ba2   Ba    Ba6+2 0.334200 0.444810 0.545490 1.637624
C1    C     C_3   0.709497 0.966071 0.209286 0.405542
C2    C     C_R   0.179547 0.498166 0.195970 0.051681
C3    C     C_R   0.333029 0.551464 0.226915 -0.374906
C4    C     C_3   0.139086 0.796282 0.194270 0.340618
C5    C     C_R   0.444630 0.598939 0.164561 -0.015104
C6    C     C_R   0.399010 0.603408 0.070294 0.356980
C7    C     C_R   0.243724 0.551839 0.035950 -0.065405
C8    C     C_R   0.134332 0.495156 0.097969 -0.069588
C9    C     C_R   0.050900 0.499694 0.901555 -0.035795
C10   C     C_R   0.942973 0.440994 0.962997 -0.010055
C11   C     C_R   0.005041 0.501480 0.803944 0.043283
C12   C     C_3   0.669245 0.854269 0.242669 0.326101
C13   C     C_R   0.849054 0.451017 0.773639 -0.272979
C14   C     C_R   0.740288 0.398372 0.835420 -0.000189
C15   C     C_R   0.789920 0.388387 0.928059 -0.180918
C16   C     C_3   0.102798 0.822178 0.093948 -0.299094
C17   C     C_R   0.199722 0.554294 0.940014 -0.024913
C18   C     C_R   0.770007 0.174997 0.529428 -0.277188
C19   C     C_R   0.430181 0.814528 0.461413 -0.294817
C20   C     C_R   0.407601 0.993878 0.425359 -0.054142
C21   C     C_R   0.341817 0.887216 0.421477 -0.000191
C22   C     C_R   0.578409 0.847424 0.511908 0.051336
C23   C     C_3   0.474406 0.317593 0.260914 0.314079
C24   C     C_R   0.644845 0.957290 0.518784 -0.057394
C25   C     C_R   0.558153 0.030978 0.473504 -0.063090
C26   C     C_R   0.622868 0.140279 0.479578 0.034740
C27   C     C_R   0.859232 0.104042 0.570682 -0.005940
C28   C     C_3   0.216712 0.762260 0.654266 0.318859
C29   C     C_R   0.795162 0.996196 0.567943 -0.091267
C30   C     C_3   0.204592 0.879327 0.671392 -0.322093
C31   C     C_3   0.980938 0.232786 0.339026 0.276818
C32   C     C_3   0.054786 0.130682 0.324560 -0.331044
C33   C     C_3   0.626659 0.706424 0.750773 0.234833
C34   C     C_3   0.467449 0.304598 0.154350 -0.286210
C35   C     C_3   0.554396 0.777192 0.823003 -0.301092
C36   C     C_3   0.616177 0.594518 0.974378 0.211312
C37   C     C_3   0.044289 0.193614 0.802291 0.348176
C38   C     C_3   0.062418 0.157578 0.901446 -0.346491
C39   C     C_3   0.544782 0.144372 0.756349 0.334950
C40   C     C_3   0.599283 0.054245 0.808908 -0.364623
C41   C     C_R   0.985681 0.438185 0.059295 -0.022522
H1    H     H_    0.743163 0.849719 0.307328 0.021429
H2    H     H_    0.708379 0.657359 0.785456 -0.014366
H3    H     H_    0.528348 0.653637 0.713558 0.089038
H4    H     H_    0.720984 0.023791 0.270775 -0.065116
H5    H     H_    0.652083 0.816454 0.873431 0.155194
H6    H     H_    0.455204 0.732081 0.861285 0.138989
H7    H     H_    0.498152 0.837665 0.787018 0.089287
H8    H     H_    0.536440 0.838065 0.259022 -0.041529
H9    H     H_    0.352576 0.334454 0.285565 -0.006358
H10   H     H_    0.570635 0.385840 0.281201 0.050274
H11   H     H_    0.375244 0.235547 0.130525 0.142743
H12   H     H_    0.285942 0.914692 0.731684 0.103596
H13   H     H_    0.430962 0.376287 0.123959 0.001025
H14   H     H_    0.591643 0.293649 0.128292 0.148822
H15   H     H_    0.827642 0.973379 0.171593 0.032123
H16   H     H_    0.161451 0.769149 0.043887 0.091576
H17   H     H_    0.121466 0.272064 0.798122 0.092992
H18   H     H_    0.912678 0.201845 0.788861 -0.066565
H19   H     H_    0.195053 0.157114 0.919650 0.158427
H20   H     H_    0.011051 0.212366 0.952430 0.083068
H21   H     H_    0.994617 0.076560 0.906741 0.128213
H22   H     H_    0.654813 0.183495 0.720326 -0.054250
H23   H     H_    0.242010 0.921570 0.607631 0.078205
H24   H     H_    0.449379 0.111260 0.701648 0.081517
H25   H     H_    0.696357 0.086015 0.863201 0.148760
H26   H     H_    0.650997 0.998335 0.758667 0.062450
H27   H     H_    0.068711 0.717309 0.205436 0.065210
H28   H     H_    0.491419 0.011973 0.844097 0.158342
H29   H     H_    0.369892 0.551401 0.299996 0.087656
H30   H     H_    0.705228 0.344266 0.973950 0.089287
H31   H     H_    0.809809 0.455344 0.701411 0.077283
H32   H     H_    0.900760 0.392159 0.103571 0.102709
H33   H     H_    0.283153 0.598129 0.894853 0.112932
H34   H     H_    0.075066 0.889603 0.687917 0.144085
H35   H     H_    0.337814 0.047031 0.391855 0.110828
H36   H     H_    0.864583 0.944334 0.603717 0.110076
H37   H     H_    0.818976 0.258417 0.533143 0.059094
H38   H     H_    0.273248 0.792329 0.202266 0.018415
H39   H     H_    0.378163 0.731649 0.457499 0.069539
H40   H     H_    0.967244 0.809949 0.078670 0.137488
H41   H     H_    0.152203 0.905668 0.082235 0.154567
H42   H     H_    0.344896 0.752575 0.637828 -0.074854
H43   H     H_    0.135142 0.732643 0.592943 0.088149
H44   H     H_    0.313852 0.050630 0.154543 0.344021
H45   H     H_    0.845069 0.213533 0.344598 0.005814
H46   H     H_    0.627648 0.524094 0.015414 0.015627
H47   H     H_    0.741774 0.641328 0.971216 0.065445
H48   H     H_    0.573999 0.566292 0.901932 0.024387
H49   H     H_    0.033953 0.272704 0.405978 0.063663
H50   H     H_    0.003211 0.086013 0.259950 0.114938
H51   H     H_    0.030687 0.081812 0.386128 0.096457
H52   H     H_    0.189075 0.149171 0.313860 0.145228
O1    O     O_2   0.887370 0.460630 0.272300 -0.463433
O2    O     O_2   0.202234 0.114222 0.567627 -0.489668
O3    O     O_3   0.096520 0.118547 0.738053 -0.598159
O4    O     O_3   0.129410 0.451380 0.388510 -0.496190
O5    O     O_3   0.575400 0.626570 0.547370 -0.496380
O6    O     O_2   0.344320 0.238700 0.455090 -0.475730
O7    O     O_3   0.512051 0.223875 0.297915 -0.598280
O8    O     O_2   0.396022 0.403260 0.833947 -0.503622
O9    O     O_3   0.475104 0.212125 0.820512 -0.579193
O10   O     O_3   0.670210 0.653170 0.329170 -0.490514
O11   O     O_2   0.785409 0.590601 0.167063 -0.503008
O12   O     O_3   0.721427 0.771819 0.692009 -0.626396
O13   O     O_3   0.013152 0.290743 0.258932 -0.629429
O14   O     O_3   0.712705 0.782174 0.173239 -0.576250
O15   O     O_2   0.845380 0.761330 0.544970 -0.449032
O16   O     O_3   0.088930 0.704860 0.376040 -0.493045
O17   O     O_2   0.000704 0.887217 0.431576 -0.499883
O18   O     O_2   0.619652 0.097883 0.084743 -0.323707
O19   O     O_2   0.500882 0.909928 0.059633 -0.290504
O20   O     O_3   0.391562 0.021998 0.197648 -0.544950
O21   O     O_3   0.506511 0.660783 0.012516 -0.633596
O22   O     O_3   0.091756 0.874615 0.257159 -0.598540
O23   O     O_2   0.302330 0.539400 0.727760 -0.493509
O24   O     O_3   0.060300 0.548700 0.611500 -0.489536
O25   O     O_3   0.519500 0.346920 0.670840 -0.467647
O26   O     O_3   0.172298 0.710525 0.736025 -0.636279
O27   O     O_3   0.614310 0.373510 0.452640 -0.485164
O28   O     O_3   0.100780 0.295230 0.623970 -0.485507
P1    P     P_3+3 0.054400 0.427280 0.286870 0.980498
P2    P     P_3+3 0.668300 0.742890 0.573060 0.968994
P3    P     P_3+3 0.132507 0.841298 0.371916 0.943872
P4    P     P_3+3 0.135310 0.572810 0.713130 0.974041
P5    P     P_3+3 0.063621 0.156735 0.624146 0.947540
P6    P     P_3+3 0.652936 0.653897 0.208271 0.989310
P7    P     P_3+3 0.526681 0.242224 0.420371 0.948618
P8    P     P_3+3 0.531866 0.343216 0.792106 0.962980
S1    S     S_3+6 0.552852 0.999027 0.132633 -0.096124

loop_
_geom_bond_atom_site_label_1
_geom_bond_atom_site_label_2
_ccdc_geom_bond_type
O11   P6    D    
C40   H25   S    
O18   S1    D    
C12   O14   S    
O25   P8    S    
C39   C40   S    
C32   H50   S    
Ba1   O4    S    
Ba2   O23   S    
C38   H19   S    
C5    C6    A    
C39   H24   S    
Ba2   O28   S    
C36   H46   S    
C9    C17   A    
C24   C25   A    
C38   H20   S    
C12   H1    S    
C17   H33   S    
C33   C35   S    
C31   H45   S    
Ba1   P2    S    
O26   P4    S    
C10   C41   A    
C23   O7    S    
C13   C14   A    
C36   O21   S    
C2    P1    S    
Ba1   Ba2   S    
Ba1   O24   S    
C14   P8    S    
Ba1   O27   S    
C30   H34   S    
C7    C17   A    
C6    C7    A    
O9    P8    S    
C10   C15   A    
C16   H41   S    
H44   O20   S    
C28   H43   S    
O22   P3    S    
C4    O22   S    
O17   P3    D    
O20   S1    S    
Ba2   P4    S    
O3    P5    S    
Ba2   O5    S    
C24   C29   A    
C4    H38   S    
C15   H30   S    
C31   O13   S    
O13   P1    S    
O2    P5    D    
C4    C16   S    
Ba1   O5    S    
C16   H40   S    
C18   C27   A    
Ba2   O27   S    
C41   H32   S    
C37   H18   S    
C5    P6    S    
O1    P1    D    
O5    P2    S    
O7    P7    S    
C34   H11   S    
C32   H52   S    
C20   H35   S    
C34   H14   S    
C31   H49   S    
C37   C38   S    
C3    C5    A    
C18   H37   S    
C14   C15   A    
C37   O3    S    
C39   H22   S    
C18   C26   A    
Ba2   O6    S    
C36   H48   S    
C40   H26   S    
C1    S1    S    
C35   H5    S    
C34   H13   S    
Ba1   O15   S    
C35   H6    S    
C12   H8    S    
C28   O26   S    
Ba2   O24   S    
O16   P3    S    
C31   C32   S    
C28   H42   S    
O12   P2    S    
C1    C12   S    
C21   P3    S    
Ba2   O4    S    
C20   C25   A    
C11   C13   A    
O14   P6    S    
C22   P2    S    
C27   P5    S    
O23   P4    D    
C2    C8    A    
C33   H2    S    
C30   H23   S    
O15   P2    D    
C7    C8    A    
C4    H27   S    
Ba2   O25   S    
C30   H12   S    
C8    C41   A    
O19   S1    D    
C32   H51   S    
C23   H10   S    
C2    C3    A    
O10   P6    S    
C9    C10   A    
C29   H36   S    
C3    H29   S    
C36   H47   S    
C38   H21   S    
C39   O9    S    
C19   C21   A    
Ba1   P1    S    
C27   C29   A    
O6    P7    D    
C28   C30   S    
C35   H7    S    
C9    C11   A    
C22   C24   A    
O28   P5    S    
Ba1   O1    S    
C37   H17   S    
C1    H4    S    
C40   H28   S    
C26   P7    S    
C23   H9    S    
C33   O12   S    
C6    O21   S    
C23   C34   S    
C11   P4    S    
C1    H15   S    
C16   H16   S    
C13   H31   S    
C19   H39   S    
C19   C22   A    
C25   C26   A    
C20   C21   A    
C33   H3    S    
O8    P8    D    
O27   P7    S    
Ba1   O16   S    
Ba1   O10   S    
O4    P1    S    
O24   P4    S    
