data_mof_unit_47577.cif
_audit_creation_date              2012-12-11T16:26:33-0500
_audit_creation_method            fapswitch 2.2
_symmetry_space_group_name_H-M    P1
_symmetry_Int_Tables_number       1
_space_group_crystal_system       triclinic
_cell_length_a                    6.936127
_cell_length_b                    17.596613
_cell_length_c                    19.405729
_cell_angle_alpha                 108.563339
_cell_angle_beta                  89.496024
_cell_angle_gamma                 90.669522
_cell_volume                      2245.10083828

loop_
_atom_site_label
_atom_site_type_symbol
_atom_type_description
_atom_site_fract_x
_atom_site_fract_y
_atom_site_fract_z
_atom_type_partial_charge
O1    O     O_R   0.494330 0.415720 0.413720 -0.537730
O2    O     O_R   0.819330 0.430070 0.560210 -0.541686
O3    O     O_R   0.994320 0.584280 0.586280 -0.536608
C1    C     C_R   0.650055 0.415403 0.582188 0.704907
O4    O     O_R   0.823730 0.406300 0.412670 -0.537771
O5    O     O_R   0.998760 0.560340 0.437690 -0.545075
C2    C     C_R   0.654924 0.383618 0.384958 0.692019
O6    O     O_R   0.489890 0.439660 0.562310 -0.545413
O7    O     O_3   0.662340 0.550560 0.508380 -0.368528
V1    V     V_3+5 0.935370 0.490620 0.498450 1.412782
O8    O     O_R   0.328750 0.569930 0.439790 -0.541098
C3    C     C_R   0.160975 0.584782 0.417991 0.702652
O9    O     O_R   0.324340 0.593700 0.587330 -0.537393
C4    C     C_R   0.155454 0.616498 0.615007 0.696542
V2    V     V_3+5 0.435940 0.509380 0.501550 1.412131
O10   O     O_3   0.159100 0.449440 0.491620 -0.368787
H1    H     H_    0.873163 0.850371 0.569381 0.115864
C5    C     C_R   0.291276 0.602585 0.751176 -0.147607
C6    C     C_R   0.356187 0.593658 0.815882 -0.122924
C7    C     C_R   0.343706 0.657052 0.880415 -0.105164
C8    C     C_R   0.266218 0.729860 0.880734 -0.124675
C9    C     C_R   0.200812 0.741081 0.815752 0.068605
C10   C     C_R   0.213588 0.676082 0.749570 0.067634
C11   C     C_R   0.120081 0.814968 0.816217 -0.178579
C12   C     C_R   0.052155 0.823819 0.750449 0.068464
C13   C     C_R   0.064918 0.758823 0.684271 0.069886
C14   C     C_R   0.145542 0.684914 0.683798 -0.184539
C15   C     C_R   0.974647 0.897350 0.748849 -0.147239
C16   C     C_R   0.909939 0.906323 0.684144 -0.122638
C17   C     C_R   0.922400 0.842934 0.619615 -0.117570
C18   C     C_R   0.999657 0.770085 0.619293 -0.131509
H2    H     H_    0.301644 0.550992 0.702742 0.109575
H3    H     H_    0.415353 0.537018 0.815978 0.121254
H4    H     H_    0.393137 0.649662 0.930651 0.129013
H5    H     H_    0.256860 0.776783 0.932602 0.097286
H6    H     H_    0.964327 0.948947 0.797280 0.107875
H7    H     H_    0.850966 0.962993 0.684044 0.119092
H8    H     H_    0.009024 0.723174 0.567419 0.102072
C19   C     C_R   0.305391 0.631250 0.319113 -0.208861
C20   C     C_R   0.153863 0.633733 0.368434 -0.087274
C21   C     C_R   0.993680 0.682201 0.369364 -0.219200
C22   C     C_R   0.985258 0.728642 0.322528 0.088633
C23   C     C_R   0.136343 0.725216 0.272487 0.056536
C24   C     C_R   0.296243 0.675698 0.270480 0.083382
C25   C     C_R   0.828105 0.778680 0.325374 -0.233355
C26   C     C_R   0.818939 0.825625 0.279271 -0.054245
C27   C     C_R   0.967789 0.821954 0.227884 0.060260
C28   C     C_R   0.127486 0.771275 0.224597 0.051711
C29   C     C_R   0.278465 0.766659 0.173694 0.063624
C30   C     C_R   0.435433 0.714883 0.170886 -0.047999
C31   C     C_R   0.443782 0.670753 0.219522 -0.226487
C32   C     C_R   0.961256 0.867485 0.179832 -0.177363
C33   C     C_R   0.111381 0.864468 0.130121 -0.058040
C34   C     C_R   0.269044 0.814288 0.127460 -0.152122
H9    H     H_    0.428603 0.593342 0.317530 0.123314
H10   H     H_    0.876712 0.684770 0.407477 0.125075
H11   H     H_    0.712056 0.781469 0.363966 0.133579
H12   H     H_    0.840663 0.906602 0.181497 0.151203
H13   H     H_    0.383510 0.812197 0.088590 0.126617
H14   H     H_    0.566079 0.632168 0.217477 0.135150
C35   C     C_R   0.784559 0.181657 0.866179 -0.233245
C36   C     C_R   0.623217 0.133045 0.867763 -0.076259
C37   C     C_R   0.466602 0.131135 0.821472 -0.215214
C38   C     C_R   0.470193 0.176818 0.773944 0.085814
C39   C     C_R   0.630899 0.226513 0.773543 0.051956
C40   C     C_R   0.788300 0.229177 0.820031 0.091852
C41   C     C_R   0.315682 0.173772 0.726845 -0.184223
C42   C     C_R   0.318878 0.220468 0.680383 -0.185702
C43   C     C_R   0.476679 0.271023 0.680138 0.092978
C44   C     C_R   0.634091 0.273683 0.726621 0.052038
C45   C     C_R   0.794794 0.323381 0.726222 0.086237
C46   C     C_R   0.949267 0.326450 0.773342 -0.182040
C47   C     C_R   0.946065 0.279754 0.819806 -0.185559
C48   C     C_R   0.480438 0.318528 0.633979 -0.231489
C49   C     C_R   0.641812 0.367121 0.632378 -0.083382
C50   C     C_R   0.798412 0.369047 0.678681 -0.213302
H15   H     H_    0.905242 0.183753 0.901902 0.123441
H16   H     H_    0.342305 0.093306 0.821879 0.122835
H17   H     H_    0.191477 0.135636 0.726289 0.133010
H18   H     H_    0.197220 0.217356 0.644895 0.133795
H19   H     H_    0.359752 0.316424 0.598252 0.124818
H20   H     H_    0.922719 0.406872 0.678267 0.124010
H21   H     H_    0.073443 0.364605 0.773916 0.133451
H22   H     H_    0.067690 0.282884 0.855311 0.133466
H23   H     H_    0.309443 0.160387 0.430158 0.145639
C51   C     C_R   0.814161 0.394245 0.250062 -0.152964
C52   C     C_R   0.890177 0.401815 0.185893 -0.121125
C53   C     C_R   0.876802 0.338321 0.121540 -0.111368
C54   C     C_R   0.787761 0.266746 0.120933 -0.142849
C55   C     C_R   0.711674 0.256620 0.185545 0.057119
C56   C     C_R   0.724713 0.321898 0.251412 0.078276
C57   C     C_R   0.619800 0.183733 0.184807 -0.193974
C58   C     C_R   0.538422 0.176437 0.250225 -0.055768
C59   C     C_R   0.549424 0.242699 0.315803 0.012483
C60   C     C_R   0.644123 0.314852 0.316504 -0.152299
C61   C     C_R   0.448105 0.104289 0.253090 0.595324
C62   C     C_R   0.362571 0.100171 0.317089 -0.141946
C63   C     C_R   0.372991 0.164818 0.380400 -0.232918
C64   C     C_R   0.467984 0.234726 0.380395 -0.140491
H24   H     H_    0.824808 0.446177 0.298189 0.111499
H25   H     H_    0.958130 0.457578 0.186021 0.121557
H26   H     H_    0.934271 0.344734 0.071609 0.114429
H27   H     H_    0.777789 0.220085 0.068963 0.095366
H28   H     H_    0.289875 0.045713 0.317904 0.168811
H29   H     H_    0.476711 0.282137 0.431919 0.125989
O11   O     O_R   0.775200 0.060470 0.937800 -0.551022
O12   O     O_R   0.441110 0.093720 0.087350 -0.514831
O13   O     O_R   0.266330 0.939630 0.062280 -0.506339
C65   C     C_R   0.609652 0.115910 0.115591 0.823977
O14   O     O_R   0.445750 0.069950 0.939820 -0.549581
O15   O     O_R   0.271000 0.915700 0.913700 -0.543218
C66   C     C_R   0.615022 0.084704 0.917907 0.679693
O16   O     O_R   0.770530 0.084400 0.086380 -0.544311
O17   O     O_3   0.602830 0.949510 0.991680 -0.362928
V3    V     V_3+5 0.329710 0.009370 0.001550 1.484251
O18   O     O_R   0.940990 0.906170 0.912570 -0.541277
C67   C     C_R   0.109965 0.883369 0.884991 0.677324
O19   O     O_R   0.936350 0.929940 0.060100 -0.542189
C68   C     C_R   0.104259 0.914518 0.081436 0.747763
V4    V     V_3+5 0.829160 0.990450 0.998310 1.460272
O20   O     O_3   0.105910 0.050480 0.008320 -0.378341
C69   C     C_1   0.654060 0.876873 0.286176 0.310024
N1    N     N_1   0.521503 0.917696 0.291818 -0.337525
C70   C     C_1   0.590762 0.705784 0.118788 0.283923
N2    N     N_1   0.715064 0.698433 0.077058 -0.365560
F1    F     F_    0.445153 0.036031 0.195534 -0.699438

loop_
_geom_bond_atom_site_label_1
_geom_bond_atom_site_label_2
_ccdc_geom_bond_type
C42   H18   S    
C52   C53   A    
C49   C50   A    
C58   C59   A    
V3    O20   S    
C21   C22   A    
C6    C7    A    
C1    O6    A    
O17   V3    S    
O11   C66   A    
C33   C34   A    
V4    O20   S    
C12   C15   A    
C25   H11   S    
C11   C67   S    
C36   C37   A    
O13   V3    S    
C15   C16   A    
C51   C56   A    
O5    C3    A    
C17   C18   A    
C57   C65   S    
C29   C34   A    
C63   C64   A    
O18   C67   A    
C5    C6    A    
O19   C68   A    
C1    C49   S    
H23   C63   S    
C52   H25   S    
O8    V2    S    
C35   C40   A    
C19   H9    S    
C35   H15   S    
C42   C43   A    
C44   C45   A    
O1    V2    S    
C10   C14   A    
C4    C14   S    
C51   H24   S    
C23   C28   A    
C47   H22   S    
C65   O16   A    
C7    H4    S    
C13   C18   A    
O9    C4    A    
C54   H27   S    
H1    C17   S    
O12   C65   A    
O13   C68   A    
C43   C44   A    
C62   C63   A    
O19   V4    S    
C34   H13   S    
C64   H29   S    
C48   C49   A    
C5    C10   A    
C46   H21   S    
C38   C41   A    
C30   C70   S    
C11   C12   A    
C6    H3    S    
C50   H20   S    
C19   C20   A    
O4    C2    A    
C51   C52   A    
C12   C13   A    
C25   C26   A    
C40   C47   A    
C41   C42   A    
C22   C25   A    
C3    C20   S    
O2    C1    A    
C23   C24   A    
C21   H10   S    
C16   C17   A    
O16   V4    S    
C55   C57   A    
C27   C28   A    
C61   C62   A    
C30   C31   A    
C13   C14   A    
C61   F1    S    
C43   C48   A    
C7    C8    A    
O12   V3    S    
C27   C32   A    
O3    C4    A    
C32   H12   S    
C24   C31   A    
C28   C29   A    
C39   C40   A    
O6    V2    S    
O9    V2    S    
C9    C11   A    
C5    H2    S    
C22   C23   A    
C48   H19   S    
O2    V1    S    
C32   C33   A    
O7    V1    S    
C26   C27   A    
C20   C21   A    
O11   V4    S    
O1    C2    A    
C46   C47   A    
O5    V1    S    
C53   H26   S    
O8    C3    A    
C33   C68   S    
C19   C24   A    
C8    H5    S    
C58   C61   A    
C2    C60   S    
C18   H8    S    
O15   C67   A    
C38   C39   A    
O7    V2    S    
O4    V1    S    
O3    V1    S    
V1    O10   S    
C55   C56   A    
C45   C50   A    
C59   C64   A    
V2    O10   S    
C57   C58   A    
C35   C36   A    
O14   C66   A    
C62   H28   S    
C56   C60   A    
C37   C38   A    
O18   V4    S    
C45   C46   A    
C36   C66   S    
C53   C54   A    
C15   H6    S    
C29   C30   A    
C16   H7    S    
C69   N1    T    
C9    C10   A    
C26   C69   S    
O15   V3    S    
C31   H14   S    
C54   C55   A    
C8    C9    A    
O14   V3    S    
C59   C60   A    
C41   H17   S    
O17   V4    S    
C39   C44   A    
C70   N2    T    
C37   H16   S    
