data_mof_unit_64888.cif
_audit_creation_date              2013-03-05T15:50:24-0500
_audit_creation_method            fapswitch 2.2
_symmetry_space_group_name_H-M    P1
_symmetry_Int_Tables_number       1
_space_group_crystal_system       triclinic
_cell_length_a                    36.989188
_cell_length_b                    30.164778
_cell_length_c                    21.41543
_cell_angle_alpha                 89.999454
_cell_angle_beta                  54.745208
_cell_angle_gamma                 89.999369
_cell_volume                      19512.2581364

loop_
_atom_site_label
_atom_site_type_symbol
_atom_site_description
_atom_site_fract_x
_atom_site_fract_y
_atom_site_fract_z
_atom_type_partial_charge
O1    O     O_R   0.064870 0.537550 0.435160 -0.596403
O2    O     O_R   0.935130 0.537550 0.564840 -0.596461
O3    O     O_R   0.564870 0.037550 0.435160 -0.596374
O4    O     O_R   0.435130 0.037550 0.564840 -0.596449
O5    O     O_R   0.064850 0.462440 0.435150 -0.563245
O6    O     O_R   0.935150 0.462440 0.564850 -0.563152
O7    O     O_R   0.564850 0.962440 0.435150 -0.563322
O8    O     O_R   0.435150 0.962440 0.564850 -0.563200
C1    C     C_R   0.085669 0.499978 0.414195 0.837932
C2    C     C_R   0.914331 0.499978 0.585803 0.837855
C3    C     C_R   0.585670 0.999978 0.414194 0.838001
C4    C     C_R   0.414330 0.999978 0.585804 0.837896
O9    O     O_R   0.999990 0.537540 0.591580 -0.592417
O10   O     O_R   0.000010 0.537540 0.408420 -0.592506
O11   O     O_R   0.499990 0.037540 0.591580 -0.592356
O12   O     O_R   0.500010 0.037540 0.408420 -0.592473
O13   O     O_R   0.999980 0.462440 0.591580 -0.567371
O14   O     O_R   0.000020 0.462440 0.408420 -0.567253
O15   O     O_R   0.499980 0.962440 0.591580 -0.567457
O16   O     O_R   0.500020 0.962440 0.408420 -0.567306
C5    C     C_R   0.999945 0.499994 0.620440 0.846310
C6    C     C_R   0.000053 0.499995 0.379562 0.846247
C7    C     C_R   0.499944 0.999994 0.620440 0.846360
C8    C     C_R   0.500054 0.999995 0.379562 0.846274
Cu1   Cu    Cu3+1 0.000000 0.544460 0.500000 0.991386
Cu2   Cu    Cu3+1 0.500000 0.044460 0.500000 0.991458
Cu3   Cu    Cu3+1 0.000000 0.455520 0.500000 1.081943
Cu4   Cu    Cu3+1 0.500000 0.955520 0.500000 1.081818
C9    C     C_3   0.040654 0.494423 0.689932 0.389454
C10   C     C_3   0.959359 0.494324 0.310055 0.389394
C11   C     C_3   0.540663 0.994498 0.689922 0.389500
C12   C     C_3   0.459353 0.994370 0.310061 0.389426
C13   C     C_3   0.015818 0.460895 0.755538 -0.179301
C14   C     C_3   0.984278 0.460859 0.244366 -0.179208
C15   C     C_3   0.515890 0.960924 0.755467 -0.179378
C16   C     C_3   0.484235 0.960876 0.244409 -0.179260
H1    H     H_    0.029231 0.429112 0.760210 0.175572
H2    H     H_    0.970946 0.429042 0.239615 0.175591
H3    H     H_    0.529362 0.929166 0.760079 0.175548
H4    H     H_    0.470867 0.929074 0.239694 0.175567
C17   C     C_3   0.999847 0.500092 0.811431 -0.043070
C18   C     C_3   0.000152 0.500095 0.188569 -0.043064
C19   C     C_3   0.499847 0.000091 0.811431 -0.043064
C20   C     C_3   0.500153 0.000094 0.188568 -0.043054
C21   C     C_3   0.025798 0.533487 0.745537 -0.212865
C22   C     C_3   0.974118 0.533425 0.254545 -0.212915
C23   C     C_3   0.525735 0.033534 0.745599 -0.212826
C24   C     C_3   0.474156 0.033453 0.254507 -0.212892
C25   C     C_3   0.984254 0.539064 0.745034 -0.215746
C26   C     C_3   0.015647 0.539105 0.255063 -0.215749
C27   C     C_3   0.484181 0.039033 0.745108 -0.215744
C28   C     C_3   0.515691 0.039087 0.255019 -0.215749
C29   C     C_3   0.958284 0.505813 0.812162 -0.123935
C30   C     C_3   0.041700 0.505919 0.187854 -0.123981
C31   C     C_3   0.458273 0.005734 0.812174 -0.123906
C32   C     C_3   0.541707 0.005871 0.187847 -0.123966
C33   C     C_3   0.974278 0.466776 0.754989 -0.184828
C34   C     C_3   0.025804 0.466843 0.244932 -0.184832
C35   C     C_3   0.474338 0.966727 0.754929 -0.184846
C36   C     C_3   0.525767 0.966813 0.244968 -0.184857
C37   C     C_3   0.000158 0.500017 0.688655 -0.091027
C38   C     C_3   0.999840 0.500019 0.311347 -0.091002
C39   C     C_3   0.500158 0.000016 0.688656 -0.091038
C40   C     C_3   0.499840 0.000019 0.311347 -0.091004
H5    H     H_    0.047340 0.560443 0.742029 0.159871
H6    H     H_    0.952509 0.560327 0.258119 0.159924
H7    H     H_    0.547227 0.060530 0.742141 0.159831
H8    H     H_    0.452578 0.060380 0.258049 0.159898
H9    H     H_    0.971147 0.570991 0.740131 0.173488
H10   H     H_    0.028674 0.571065 0.260045 0.173506
H11   H     H_    0.471014 0.070936 0.740262 0.173469
H12   H     H_    0.528754 0.071032 0.259966 0.173493
H13   H     H_    0.924072 0.510566 0.863985 0.172765
H14   H     H_    0.075900 0.510757 0.136043 0.172715
H15   H     H_    0.424052 0.010423 0.864006 0.172789
H16   H     H_    0.575913 0.010671 0.136031 0.172723
H17   H     H_    0.953048 0.439608 0.758088 0.190896
H18   H     H_    0.047101 0.439728 0.241769 0.190812
H19   H     H_    0.453159 0.939520 0.757979 0.190938
H20   H     H_    0.547033 0.939675 0.241837 0.190826
C41   C     C_R   0.343412 0.468824 0.123661 -0.200709
C42   C     C_R   0.656590 0.468835 0.876358 -0.200696
C43   C     C_R   0.843413 0.968797 0.123707 -0.200737
C44   C     C_R   0.156588 0.968816 0.876324 -0.200717
C45   C     C_R   0.366178 0.501738 0.133622 -0.173193
C46   C     C_R   0.633822 0.501740 0.866378 -0.173207
C47   C     C_R   0.866179 0.001736 0.133620 -0.173157
C48   C     C_R   0.133822 0.001738 0.866379 -0.173180
C49   C     C_R   0.343098 0.534649 0.189857 0.295475
C50   C     C_R   0.656902 0.534641 0.810123 0.295473
C51   C     C_R   0.843100 0.034669 0.189810 0.295485
C52   C     C_R   0.156901 0.034656 0.810157 0.295482
C53   C     C_R   0.296450 0.534511 0.235860 0.031797
C54   C     C_R   0.703550 0.534503 0.764119 0.031802
C55   C     C_R   0.796452 0.034532 0.235812 0.031800
C56   C     C_R   0.203548 0.034518 0.764154 0.031803
C57   C     C_R   0.273477 0.500469 0.226375 -0.017925
C58   C     C_R   0.726524 0.500470 0.773624 -0.017927
C59   C     C_R   0.773478 0.000466 0.226375 -0.017929
C60   C     C_R   0.226523 0.000469 0.773624 -0.017930
C61   C     C_R   0.297044 0.467450 0.169834 -0.053675
C62   C     C_R   0.702957 0.467461 0.830185 -0.053680
C63   C     C_R   0.797045 0.967422 0.169884 -0.053662
C64   C     C_R   0.202957 0.967442 0.830149 -0.053671
C65   C     C_R   0.272207 0.568133 0.290108 -0.121983
C66   C     C_R   0.727792 0.568116 0.709850 -0.121994
C67   C     C_R   0.772209 0.068176 0.290011 -0.121970
C68   C     C_R   0.227791 0.068147 0.709920 -0.121986
C69   C     C_R   0.226185 0.567844 0.335186 -0.193404
C70   C     C_R   0.773815 0.567826 0.664771 -0.193461
C71   C     C_R   0.726187 0.067887 0.335088 -0.193381
C72   C     C_R   0.273813 0.067858 0.664841 -0.193451
C73   C     C_R   0.203311 0.533917 0.327458 0.139586
C74   C     C_R   0.796689 0.533908 0.672519 0.139641
C75   C     C_R   0.703313 0.033938 0.327408 0.139557
C76   C     C_R   0.296687 0.033924 0.672555 0.139625
C77   C     C_R   0.226850 0.499708 0.273380 0.046637
C78   C     C_R   0.773151 0.499709 0.726618 0.046649
C79   C     C_R   0.726851 0.999706 0.273381 0.046635
C80   C     C_R   0.273150 0.999708 0.726617 0.046649
C81   C     C_R   0.203660 0.465104 0.266189 -0.061367
C82   C     C_R   0.796341 0.465113 0.733830 -0.061375
C83   C     C_R   0.703662 0.965079 0.266240 -0.061371
C84   C     C_R   0.296340 0.965096 0.733793 -0.061382
C85   C     C_R   0.227314 0.431549 0.210886 0.233572
C86   C     C_R   0.772688 0.431569 0.789154 0.233573
C87   C     C_R   0.727316 0.931500 0.210990 0.233567
C88   C     C_R   0.272687 0.931534 0.789079 0.233572
C89   C     C_R   0.273894 0.433209 0.161770 0.253218
C90   C     C_R   0.726107 0.433230 0.838270 0.253218
C91   C     C_R   0.773896 0.933157 0.161872 0.253227
C92   C     C_R   0.226106 0.933193 0.838197 0.253225
C93   C     C_R   0.157142 0.533954 0.372836 -0.162361
C94   C     C_R   0.842858 0.533945 0.627139 -0.162545
C95   C     C_R   0.657144 0.033974 0.372785 -0.162278
C96   C     C_R   0.342857 0.033960 0.627176 -0.162505
C97   C     C_R   0.134065 0.499873 0.366019 -0.065177
C98   C     C_R   0.865935 0.499873 0.633978 -0.065123
C99   C     C_R   0.634067 0.999873 0.366017 -0.065226
C100  C     C_R   0.365934 0.999873 0.633979 -0.065153
C101  C     C_R   0.157153 0.465635 0.313250 -0.147036
C102  C     C_R   0.842848 0.465644 0.686767 -0.146954
C103  C     C_R   0.657154 0.965613 0.313297 -0.147047
C104  C     C_R   0.342847 0.965629 0.686733 -0.146954
H21   H     H_    0.362509 0.443540 0.080914 0.200475
H22   H     H_    0.637493 0.443558 0.919119 0.200489
H23   H     H_    0.862511 0.943497 0.080995 0.200441
H24   H     H_    0.137491 0.943527 0.919061 0.200464
H25   H     H_    0.288510 0.595249 0.297590 0.202469
H26   H     H_    0.711489 0.595225 0.702352 0.202463
H27   H     H_    0.788512 0.095309 0.297454 0.202472
H28   H     H_    0.211488 0.095268 0.702450 0.202464
H29   H     H_    0.208418 0.594293 0.376265 0.158771
H30   H     H_    0.791582 0.594268 0.623675 0.158742
H31   H     H_    0.708419 0.094353 0.376128 0.158786
H32   H     H_    0.291580 0.094312 0.623774 0.158751
H33   H     H_    0.139083 0.560221 0.414256 0.160888
H34   H     H_    0.860917 0.560205 0.585703 0.160796
H35   H     H_    0.639086 0.060259 0.414167 0.160951
H36   H     H_    0.360915 0.060233 0.585767 0.160832
H37   H     H_    0.138412 0.440244 0.307948 0.195326
H38   H     H_    0.861590 0.440260 0.692084 0.195306
H39   H     H_    0.638414 0.940205 0.308030 0.195365
H40   H     H_    0.361588 0.940233 0.692025 0.195334
O17   O     O_R   0.962450 0.435150 0.037500 -0.573391
O18   O     O_R   0.037550 0.435150 0.962500 -0.573412
O19   O     O_R   0.462450 0.935150 0.037500 -0.573410
O20   O     O_R   0.537550 0.935150 0.962500 -0.573435
C105  C     C_R   0.000000 0.414424 1.000000 0.796657
C106  C     C_R   0.500000 0.914424 0.000000 0.796663
O21   O     O_R   0.962450 0.500030 0.945950 -0.584615
O22   O     O_R   0.037550 0.500030 0.054050 -0.584605
O23   O     O_R   0.462450 0.000030 0.945950 -0.584626
O24   O     O_R   0.537550 0.000030 0.054050 -0.584613
O25   O     O_R   0.037540 0.500060 0.870890 -0.571932
O26   O     O_R   0.962460 0.500060 0.129110 -0.571943
O27   O     O_R   0.537540 0.000060 0.870890 -0.571924
O28   O     O_R   0.462460 0.000060 0.129110 -0.571937
C107  C     C_R   0.999939 0.500091 0.879691 0.803167
C108  C     C_R   0.000060 0.500092 0.120309 0.803160
C109  C     C_R   0.499939 0.000090 0.879691 0.803177
C110  C     C_R   0.500061 0.000092 0.120309 0.803164
Cu5   Cu    Cu3+1 0.955530 0.500030 0.044440 1.021453
Cu6   Cu    Cu3+1 0.044470 0.500030 0.955560 1.021460
Cu7   Cu    Cu3+1 0.455530 0.000030 0.044440 1.021442
Cu8   Cu    Cu3+1 0.544470 0.000030 0.955560 1.021452
O29   O     O_R   0.962440 0.564920 0.037550 -0.581983
O30   O     O_R   0.037560 0.564920 0.962450 -0.581975
O31   O     O_R   0.462440 0.064920 0.037550 -0.581975
O32   O     O_R   0.537560 0.064920 0.962450 -0.581965
C111  C     C_R   1.000000 0.585684 0.000000 0.789333
C112  C     C_R   0.500000 0.085684 0.000000 0.789340
O33   O     O_R   0.499970 0.435080 0.053010 -0.585506
O34   O     O_R   0.500030 0.435080 0.946990 -0.585504
O35   O     O_R   0.999970 0.935080 0.053010 -0.585510
O36   O     O_R   0.000030 0.935080 0.946990 -0.585508
C113  C     C_R   0.500000 0.414321 0.000000 0.778172
C114  C     C_R   1.000000 0.914321 0.000000 0.778172
O37   O     O_R   0.435150 0.499980 0.117890 -0.550015
O38   O     O_R   0.564850 0.499980 0.882110 -0.549995
O39   O     O_R   0.935150 0.999980 0.117890 -0.550068
O40   O     O_R   0.064850 0.999980 0.882110 -0.550035
O41   O     O_R   0.435090 0.499970 0.011940 -0.581415
O42   O     O_R   0.564910 0.499970 0.988060 -0.581426
O43   O     O_R   0.935090 0.999970 0.011940 -0.581391
O44   O     O_R   0.064910 0.999970 0.988060 -0.581408
C115  C     C_R   0.414455 0.500526 0.085540 0.848652
C116  C     C_R   0.585545 0.500527 0.914459 0.848634
C117  C     C_R   0.914456 0.000525 0.085540 0.848697
C118  C     C_R   0.085545 0.000526 0.914460 0.848668
Cu9   Cu    Cu3+1 0.500020 0.499960 0.062730 1.065850
Cu10  Cu    Cu3+1 0.499980 0.499960 0.937270 1.065867
Cu11  Cu    Cu3+1 0.000020 0.999960 0.062730 1.065804
Cu12  Cu    Cu3+1 0.999980 0.999960 0.937270 1.065835
O45   O     O_R   0.500060 0.564850 0.052930 -0.567932
O46   O     O_R   0.499940 0.564850 0.947070 -0.567925
O47   O     O_R   0.000060 0.064850 0.052930 -0.567959
O48   O     O_R   0.999940 0.064850 0.947070 -0.567945
C119  C     C_R   0.500000 0.585631 0.999999 0.880738
C120  C     C_R   0.000000 0.085631 0.999999 0.880845
C121  C     C_R   0.524502 0.657142 0.020472 -0.140643
C122  C     C_R   0.475501 0.657143 0.979522 -0.140601
C123  C     C_R   0.024483 0.157143 0.020510 -0.140616
C124  C     C_R   0.975519 0.157144 0.979485 -0.140540
C125  C     C_R   0.500001 0.634017 0.999998 -0.023020
C126  C     C_R   0.000001 0.134018 0.999998 -0.023005
C127  C     C_R   0.474831 0.703477 0.980458 0.050378
C128  C     C_R   0.525173 0.703476 0.019533 0.050387
C129  C     C_R   0.974848 0.203478 0.980422 0.050365
C130  C     C_R   0.025154 0.203477 0.019574 0.050382
C131  C     C_R   0.500002 0.726867 0.999996 0.064487
C132  C     C_R   0.000001 0.226868 0.999998 0.064490
C133  C     C_R   0.449600 0.726585 0.961636 -0.228485
C134  C     C_R   0.550406 0.726583 0.038352 -0.228480
C135  C     C_R   0.949635 0.226586 0.961562 -0.228471
C136  C     C_R   0.050368 0.226584 0.038434 -0.228475
C137  C     C_R   0.949209 0.272989 0.961065 0.325268
C138  C     C_R   0.050793 0.272987 0.038932 0.325269
C139  C     C_R   0.449173 0.772988 0.961139 0.325255
C140  C     C_R   0.550832 0.772986 0.038848 0.325265
C141  C     C_R   0.974029 0.296796 0.981394 0.009343
C142  C     C_R   0.025973 0.296795 0.018602 0.009346
C143  C     C_R   0.474011 0.796795 0.981433 0.009333
C144  C     C_R   0.525992 0.796794 0.018560 0.009334
C145  C     C_R   0.000001 0.273503 0.999998 -0.012693
C146  C     C_R   0.500002 0.773502 0.999996 -0.012696
C147  C     C_R   0.972953 0.343220 0.985140 -0.157426
C148  C     C_R   0.027048 0.343219 0.014858 -0.157439
C149  C     C_R   0.472935 0.843219 0.985180 -0.157427
C150  C     C_R   0.527066 0.843218 0.014817 -0.157449
C151  C     C_R   0.000000 0.366138 0.999999 -0.090468
C152  C     C_R   0.500000 0.866137 0.999999 -0.090501
H41   H     H_    0.543652 0.638990 0.035764 0.160299
H42   H     H_    0.456351 0.638991 0.964229 0.160308
H43   H     H_    0.043620 0.138991 0.035832 0.160317
H44   H     H_    0.956382 0.138992 0.964164 0.160333
H45   H     H_    0.430741 0.708457 0.945742 0.192879
H46   H     H_    0.569266 0.708455 0.054243 0.192871
H47   H     H_    0.930790 0.208459 0.945640 0.192873
H48   H     H_    0.069212 0.208456 0.054356 0.192873
H49   H     H_    0.951789 0.362130 0.975395 0.193036
H50   H     H_    0.048212 0.362129 0.024603 0.193033
H51   H     H_    0.451757 0.862129 0.975469 0.193064
H52   H     H_    0.548243 0.862127 0.024531 0.193052
C153  C     C_R   0.527584 0.342911 0.931141 -0.210080
C154  C     C_R   0.472416 0.342911 0.068860 -0.210081
C155  C     C_R   0.027584 0.842911 0.931141 -0.210071
C156  C     C_R   0.972416 0.842911 0.068860 -0.210069
C157  C     C_R   0.500000 0.365984 0.000001 -0.047069
C158  C     C_R   0.000000 0.865984 0.000001 -0.047065
C159  C     C_R   0.471664 0.296588 0.069181 0.106679
C160  C     C_R   0.528336 0.296588 0.930820 0.106674
C161  C     C_R   0.971664 0.796588 0.069181 0.106683
C162  C     C_R   0.028336 0.796588 0.930820 0.106678
C163  C     C_R   0.500000 0.273307 0.000000 0.064656
C164  C     C_R   1.000000 0.773307 0.000000 0.064656
C165  C     C_R   0.443042 0.273149 0.137317 -0.174213
C166  C     C_R   0.556957 0.273150 0.862684 -0.174216
C167  C     C_R   0.943042 0.773149 0.137317 -0.174192
C168  C     C_R   0.056957 0.773150 0.862684 -0.174203
C169  C     C_R   0.942336 0.726865 0.137015 -0.184192
C170  C     C_R   0.057663 0.726865 0.862985 -0.184183
C171  C     C_R   0.442337 0.226865 0.137015 -0.184196
C172  C     C_R   0.557663 0.226865 0.862985 -0.184181
C173  C     C_R   0.970701 0.703426 0.068769 0.105917
C174  C     C_R   0.029298 0.703427 0.931232 0.105910
C175  C     C_R   0.470701 0.203426 0.068769 0.105916
C176  C     C_R   0.529298 0.203427 0.931232 0.105907
C177  C     C_R   1.000000 0.726707 0.000000 0.066399
C178  C     C_R   0.500000 0.226707 0.000000 0.066398
C179  C     C_R   0.970410 0.657103 0.068005 -0.223944
C180  C     C_R   0.029589 0.657103 0.931995 -0.223942
C181  C     C_R   0.470410 0.157103 0.068005 -0.223945
C182  C     C_R   0.529589 0.157103 0.931995 -0.223940
C183  C     C_R   1.000000 0.634026 0.000000 -0.054854
C184  C     C_R   0.500000 0.134026 0.000000 -0.054860
H53   H     H_    0.549060 0.361096 0.878236 0.152690
H54   H     H_    0.450940 0.361096 0.121765 0.152687
H55   H     H_    0.049060 0.861096 0.878236 0.152687
H56   H     H_    0.950940 0.861096 0.121765 0.152685
H57   H     H_    0.421041 0.290623 0.190740 0.160484
H58   H     H_    0.578959 0.290624 0.809261 0.160490
H59   H     H_    0.921041 0.790623 0.190740 0.160484
H60   H     H_    0.078959 0.790624 0.809261 0.160488
H61   H     H_    0.919791 0.709391 0.190206 0.157536
H62   H     H_    0.080208 0.709392 0.809795 0.157553
H63   H     H_    0.419792 0.209391 0.190206 0.157543
H64   H     H_    0.580208 0.209392 0.809795 0.157566
H65   H     H_    0.947876 0.638922 0.120465 0.149615
H66   H     H_    0.052123 0.638922 0.879536 0.149632
H67   H     H_    0.447877 0.138922 0.120465 0.149621
H68   H     H_    0.552123 0.138922 0.879535 0.149644
N1    N     N_R   0.204265 0.396199 0.202893 0.148294
O49   O     O_R   0.180501 0.368417 0.258778 -0.299113
O50   O     O_R   0.210193 0.389336 0.137590 -0.259064
N2    N     N_R   0.795737 0.396229 0.797170 0.148294
O51   O     O_R   0.819500 0.368436 0.741303 -0.299086
O52   O     O_R   0.789811 0.389386 0.862477 -0.259076
N3    N     N_R   0.704267 0.896124 0.203054 0.148294
O53   O     O_R   0.680500 0.868371 0.258988 -0.299144
O54   O     O_R   0.710200 0.889208 0.137759 -0.259030
N4    N     N_R   0.295736 0.896175 0.797053 0.148296
O55   O     O_R   0.319500 0.868403 0.741152 -0.299107
O56   O     O_R   0.289808 0.889296 0.862352 -0.259058
N5    N     N_R   0.297485 0.399337 0.104911 0.147037
O57   O     O_R   0.320831 0.409579 0.032658 -0.313315
O58   O     O_R   0.292287 0.357850 0.124998 -0.270822
N6    N     N_R   0.702518 0.399370 0.895153 0.147037
O59   O     O_R   0.679170 0.409628 0.967399 -0.313315
O60   O     O_R   0.707716 0.357877 0.875095 -0.270802
N7    N     N_R   0.797487 0.899258 0.105068 0.147037
O61   O     O_R   0.820832 0.909460 0.032799 -0.313323
O62   O     O_R   0.792292 0.857783 0.125224 -0.270850
N8    N     N_R   0.202517 0.899313 0.895039 0.147035
O63   O     O_R   0.179171 0.909542 0.967297 -0.313321
O64   O     O_R   0.207712 0.857829 0.874931 -0.270825
N9    N     N_R   0.924497 0.295110 0.937566 0.128032
O65   O     O_R   0.943755 0.324514 0.883159 -0.344058
O66   O     O_R   0.885842 0.280036 0.959707 -0.297787
N10   N     N_R   0.075505 0.295107 0.062430 0.128033
O67   O     O_R   0.056247 0.324511 0.116837 -0.344042
O68   O     O_R   0.114160 0.280033 0.040288 -0.297798
N11   N     N_R   0.424442 0.795108 0.937679 0.128032
O69   O     O_R   0.443683 0.824521 0.883284 -0.344067
O70   O     O_R   0.385787 0.780026 0.959834 -0.297810
N12   N     N_R   0.575567 0.795106 0.062301 0.128024
O71   O     O_R   0.556324 0.824508 0.116713 -0.344036
O72   O     O_R   0.614231 0.780034 0.040111 -0.297825
N13   N     N_R   0.086147 0.488170 0.623721 0.122915
O73   O     O_R   0.117631 0.483910 0.633303 -0.319948
O74   O     O_R   0.095640 0.486814 0.555085 -0.374573
N14   N     N_R   0.913881 0.487958 0.376249 0.122930
O75   O     O_R   0.882411 0.483612 0.366653 -0.319904
O76   O     O_R   0.904388 0.486595 0.444885 -0.374415
N15   N     N_R   0.586167 0.988329 0.623699 0.122909
O77   O     O_R   0.617660 0.984132 0.633272 -0.319976
O78   O     O_R   0.595661 0.986982 0.555063 -0.374665
N16   N     N_R   0.413868 0.988053 0.376260 0.122928
O79   O     O_R   0.382393 0.983744 0.366668 -0.319924
O80   O     O_R   0.404374 0.986696 0.444897 -0.374467
N17   N     N_R   0.367098 0.568442 0.198880 0.112140
O81   O     O_R   0.364092 0.571373 0.262338 -0.326352
O82   O     O_R   0.394166 0.594418 0.142002 -0.381126
N18   N     N_R   0.632902 0.568426 0.801083 0.112147
O83   O     O_R   0.635906 0.571340 0.737624 -0.326366
O84   O     O_R   0.605835 0.594410 0.857946 -0.381107
N19   N     N_R   0.867100 0.068484 0.198789 0.112115
O85   O     O_R   0.864091 0.071457 0.262245 -0.326352
O86   O     O_R   0.894169 0.094438 0.141876 -0.381190
N20   N     N_R   0.132900 0.068456 0.801148 0.112129
O87   O     O_R   0.135906 0.071399 0.737691 -0.326369
O88   O     O_R   0.105832 0.094425 0.858037 -0.381151

loop_
_geom_bond_atom_site_label_1
_geom_bond_atom_site_label_2
_geom_bond_distance
_ccdc_geom_bond_type
N4    O56   1.301048 A    
C93   C97   1.396674 A    
C31   C35   1.549031 S    
C154  H54   1.084704 S    
C59   C63   1.414052 A    
C14   C18   1.537335 S    
O46   C119  1.296427 A    
C96   C100  1.396681 A    
C86   N2    1.435855 S    
N9    O65   1.301377 A    
C123  C126  1.399613 A    
C95   C99   1.396682 A    
O30   C111  1.295918 A    
C141  C145  1.420268 A    
O21   Cu5   1.972565 S    
C47   C51   1.406338 A    
C55   C59   1.420273 A    
O33   Cu9   1.968248 S    
O34   C113  1.295919 A    
C150  C152  1.395590 A    
O19   Cu7   1.968217 S    
C121  C125  1.399609 A    
C60   C64   1.414050 A    
C161  C164  1.412098 A    
C30   H14   1.110104 S    
O42   C116  1.295528 A    
C18   C108  1.463788 S    
C10   N14   1.457140 S    
C130  C136  1.397727 A    
Cu10  O46   1.968520 S    
C176  C182  1.397541 A    
O4    C4    1.295842 A    
C19   C23   1.537447 S    
O35   C114  1.295922 A    
C56   C68   1.407031 A    
C50   N18   1.436165 S    
O38   C116  1.295526 A    
C57   C77   1.408614 A    
C73   C93   1.394610 A    
C104  H40   1.082097 S    
C27   H11   1.110122 S    
O45   C119  1.296426 A    
C103  H39   1.082099 S    
C148  H50   1.081812 S    
C122  H42   1.084749 S    
O17   C105  1.295092 A    
C127  C133  1.397719 A    
C138  N10   1.437014 S    
C142  C145  1.420267 A    
C95   H35   1.084804 S    
O17   Cu5   1.968217 S    
C62   C90   1.414425 A    
O18   Cu6   1.968219 S    
N10   O67   1.301376 A    
C46   C50   1.406352 A    
C49   N17   1.436163 S    
O16   Cu4   1.971878 S    
C58   C62   1.414049 A    
O13   C5    1.290089 A    
O7    Cu4   1.969896 S    
C9    C21   1.533979 S    
N2    O51   1.301098 A    
Cu8   O32   1.968491 S    
C179  C183  1.401190 A    
Cu5   Cu6   2.686450 S    
O6    C2    1.295230 A    
C28   H12   1.110114 S    
C91   N7    1.435768 S    
N20   O88   1.300838 A    
N15   O77   1.300294 A    
N14   O75   1.300258 A    
O9    C5    1.289758 A    
O40   Cu12  1.969968 S    
C130  C132  1.410488 A    
C150  H52   1.081815 S    
O28   C110  1.291230 A    
C85   N1    1.435854 S    
C156  C158  1.401110 A    
O43   Cu12  1.971620 S    
C79   C83   1.414784 A    
O8    Cu4   1.969896 S    
C16   C20   1.537332 S    
C113  C157  1.458066 S    
C124  H44   1.084742 S    
C134  H46   1.084233 S    
C160  C166  1.402315 A    
C174  C177  1.412097 A    
C141  C147  1.401916 A    
O3    Cu2   1.970461 S    
C44   C48   1.395633 A    
C133  H45   1.084237 S    
C33   C37   1.539460 S    
C11   N15   1.457136 S    
C35   C39   1.539464 S    
C36   C40   1.539455 S    
C105  C151  1.456558 S    
C133  C139  1.399929 A    
C124  C129  1.397813 A    
C122  C127  1.397813 A    
C160  C163  1.412099 A    
C25   C29   1.549579 S    
C27   C31   1.549577 S    
C167  C169  1.396482 A    
C26   H10   1.110119 S    
C169  H61   1.083601 S    
O3    C3    1.295848 A    
C59   C79   1.408611 A    
C175  C181  1.397542 A    
C159  C165  1.402317 A    
C14   C34   1.553553 S    
C86   C90   1.409030 A    
C139  C143  1.417607 A    
C2    C98   1.461802 S    
C71   H31   1.083930 S    
C128  C131  1.410487 A    
C20   C24   1.537442 S    
C127  C131  1.410487 A    
N3    O54   1.301054 A    
N13   O73   1.300284 A    
C66   H26   1.081623 S    
C9    C13   1.533217 S    
C140  C144  1.417592 A    
O24   C110  1.290288 A    
N20   O87   1.300994 A    
Cu7   Cu8   2.686450 S    
C41   C61   1.401165 A    
C81   C85   1.412940 A    
O23   Cu7   1.972565 S    
C43   C63   1.401163 A    
C12   C16   1.533219 S    
C15   C35   1.553543 S    
C153  C160  1.397540 A    
C129  C132  1.410490 A    
C154  C159  1.397541 A    
C155  C158  1.401110 A    
N1    O50   1.301055 A    
C173  C177  1.412095 A    
C52   C56   1.409050 A    
N18   O83   1.300999 A    
C78   C82   1.414781 A    
N5    O58   1.301034 A    
C3    C99   1.461836 S    
O5    Cu3   1.969896 S    
C83   C87   1.412942 A    
C136  C138  1.399923 A    
C155  H55   1.084705 S    
C15   C19   1.537336 S    
C70   C74   1.397231 A    
C123  C130  1.397810 A    
C31   H15   1.110108 S    
C111  C183  1.458232 S    
C140  N12   1.437016 S    
C9    N13   1.457138 S    
O21   C107  1.290294 A    
C137  N9    1.437014 S    
O39   C117  1.295517 A    
C58   C78   1.408614 A    
C87   C91   1.409031 A    
C74   C94   1.394613 A    
C9    C37   1.523214 S    
C136  H48   1.084225 S    
O20   Cu8   1.968219 S    
C10   C14   1.533216 S    
C106  C152  1.456573 S    
O13   Cu3   1.971878 S    
C11   C39   1.523213 S    
C12   C40   1.523206 S    
Cu12  O48   1.968520 S    
C34   H18   1.110171 S    
N8    O63   1.301097 A    
C122  C125  1.399605 A    
C52   N20   1.436164 S    
C19   C109  1.463791 S    
C142  C148  1.401914 A    
C76   C80   1.414227 A    
C176  C178  1.412096 A    
O5    C1    1.295235 A    
C85   C89   1.409030 A    
O36   Cu12  1.968244 S    
O44   C118  1.295523 A    
N12   O72   1.301260 A    
C24   C28   1.552046 S    
O8    C4    1.295237 A    
C143  C146  1.420263 A    
C42   C62   1.401164 A    
C120  C126  1.459565 S    
C134  C140  1.399920 A    
N16   O80   1.299871 A    
O15   Cu4   1.971878 S    
C17   C29   1.538108 S    
C147  H49   1.081810 S    
C73   C77   1.414226 A    
C164  C177  1.405676 A    
C19   C31   1.538107 S    
C94   H34   1.084802 S    
C75   C79   1.414225 A    
N11   O70   1.301268 A    
C21   H5    1.110237 S    
C44   C64   1.401168 A    
C90   N6    1.435771 S    
C53   C57   1.420270 A    
C72   C76   1.397237 A    
C45   C115  1.458677 S    
C51   N19   1.436162 S    
C65   C69   1.390247 A    
C36   H20   1.110170 S    
C149  C152  1.395598 A    
C17   C21   1.537448 S    
C167  H59   1.083596 S    
N15   O78   1.299850 A    
O14   C6    1.290094 A    
C67   C71   1.390244 A    
C10   C22   1.533989 S    
N6    O59   1.301097 A    
C154  C157  1.401110 A    
C29   C33   1.549029 S    
Cu7   O31   1.968494 S    
C147  C151  1.395594 A    
C173  C179  1.397542 A    
C137  C141  1.417595 A    
O10   C6    1.289752 A    
C156  H56   1.084702 S    
C172  H64   1.083599 S    
C75   C95   1.394608 A    
O27   C109  1.291227 A    
C56   C60   1.420270 A    
C7    C39   1.465428 S    
C144  C146  1.420268 A    
C93   H33   1.084801 S    
C49   C53   1.409050 A    
C114  C158  1.458066 S    
C51   C55   1.409047 A    
C96   H36   1.084800 S    
O26   C108  1.291224 A    
C112  C184  1.458229 S    
C72   H32   1.083930 S    
C48   C118  1.458671 S    
C63   C91   1.414422 A    
C41   C45   1.395640 A    
C162  C164  1.412100 A    
C61   C89   1.414422 A    
C34   C38   1.539454 S    
C43   C47   1.395635 A    
C143  C149  1.401921 A    
C179  H65   1.084732 S    
C12   C24   1.533985 S    
Cu11  Cu12  2.687634 S    
O47   C120  1.296430 A    
N17   O82   1.300838 A    
C26   C30   1.549586 S    
N10   O68   1.301260 A    
C22   H6    1.110233 S    
C181  C184  1.401191 A    
C170  H62   1.083600 S    
C66   C70   1.390243 A    
C12   N16   1.457135 S    
C54   C58   1.420271 A    
N2    O52   1.301052 A    
C18   C22   1.537447 S    
C153  C157  1.401111 A    
C42   H22   1.082682 S    
C68   H28   1.081623 S    
C1    C97   1.461811 S    
C87   N3    1.435858 S    
N14   O76   1.299868 A    
C4    C100  1.461817 S    
C69   H29   1.083929 S    
C5    C37   1.465426 S    
C84   C88   1.412940 A    
O22   C108  1.290294 A    
O20   C106  1.295097 A    
N4    O55   1.301096 A    
O23   C109  1.290293 A    
C8    C40   1.465426 S    
C11   C23   1.533974 S    
C169  C173  1.402324 A    
C47   C117  1.458652 S    
N9    O66   1.301259 A    
C17   C107  1.463786 S    
C50   C54   1.409053 A    
C165  H57   1.083594 S    
C44   H24   1.082682 S    
O12   Cu2   1.972092 S    
C25   C37   1.539874 S    
C171  C175  1.402324 A    
C33   H17   1.110177 S    
C172  C176  1.402324 A    
O1    C1    1.295842 A    
O36   C114  1.295919 A    
C98   C102  1.399596 A    
C35   H19   1.110174 S    
C45   C49   1.406349 A    
C23   C27   1.552057 S    
C42   C46   1.395639 A    
C163  C178  1.405673 A    
C13   H1    1.110228 S    
C68   C72   1.390243 A    
C129  C135  1.397722 A    
C15   H3    1.110225 S    
N7    O61   1.301095 A    
C81   C101  1.404929 A    
C20   C32   1.538104 S    
Cu9   Cu10  2.687634 S    
C21   C25   1.552051 S    
C175  C178  1.412096 A    
C27   C39   1.539871 S    
N19   O86   1.300836 A    
O38   Cu10  1.969968 S    
C24   H8    1.110228 S    
O39   Cu11  1.969971 S    
C55   C67   1.407029 A    
O44   Cu11  1.971620 S    
C139  N11   1.437013 S    
C10   C38   1.523206 S    
C28   C40   1.539881 S    
C11   C15   1.533220 S    
C46   C116  1.458687 S    
C20   C110  1.463786 S    
C97   C101  1.399596 A    
O32   C112  1.295918 A    
C89   N5    1.435770 S    
C100  C104  1.399598 A    
C102  H38   1.082097 S    
O4    Cu2   1.970467 S    
C76   C96   1.394610 A    
C174  C180  1.397541 A    
C153  H53   1.084705 S    
O48   C120  1.296431 A    
C13   C17   1.537338 S    
C18   C30   1.538102 S    
N1    O49   1.301098 A    
O42   Cu9   1.971620 S    
N18   O84   1.300839 A    
O2    Cu1   1.970467 S    
O10   Cu1   1.972092 S    
N5    O57   1.301098 A    
O35   Cu11  1.968248 S    
O27   Cu8   1.972348 S    
N3    O53   1.301099 A    
C181  H67   1.084732 S    
C32   C36   1.549033 S    
C182  H68   1.084733 S    
C135  H47   1.084227 S    
C64   C92   1.414423 A    
O25   Cu6   1.972348 S    
O26   Cu5   1.972348 S    
Cu9   O45   1.968516 S    
N11   O69   1.301382 A    
C155  C162  1.397537 A    
C101  H37   1.082097 S    
C32   H16   1.110101 S    
O15   C7    1.290086 A    
N19   O85   1.300997 A    
O7    C3    1.295241 A    
C121  C128  1.397811 A    
C161  C167  1.402318 A    
C144  C150  1.401917 A    
C162  C168  1.402316 A    
C168  C170  1.396484 A    
C159  C163  1.412098 A    
Cu5   O29   1.968494 S    
N8    O64   1.301039 A    
C132  C145  1.406728 A    
C77   C81   1.414782 A    
C53   C65   1.407032 A    
O28   Cu7   1.972348 S    
C80   C84   1.414779 A    
C48   C52   1.406347 A    
C156  C161  1.397541 A    
C60   C80   1.408614 A    
O29   C111  1.295917 A    
C148  C151  1.395591 A    
C69   C73   1.397232 A    
C25   H9    1.110118 S    
O11   C7    1.289761 A    
C165  C171  1.396482 A    
O12   C8    1.289756 A    
C166  C172  1.396484 A    
O1    Cu1   1.970461 S    
C135  C137  1.399922 A    
O9    Cu1   1.972084 S    
C99   C103  1.399606 A    
O40   C118  1.295522 A    
C88   C92   1.409033 A    
C23   H7    1.110236 S    
C171  H63   1.083600 S    
C22   C26   1.552038 S    
O19   C106  1.295095 A    
C168  H60   1.083595 S    
O16   C8    1.290093 A    
C16   H4    1.110224 S    
N6    O60   1.301035 A    
Cu11  O47   1.968516 S    
O11   Cu2   1.972084 S    
O25   C107  1.291228 A    
O41   C115  1.295525 A    
C149  H51   1.081808 S    
Cu6   O30   1.968491 S    
C82   C86   1.412940 A    
O31   C112  1.295917 A    
C70   H30   1.083930 S    
C6    C38   1.465426 S    
O22   Cu6   1.972563 S    
O6    Cu3   1.969896 S    
O43   C117  1.295518 A    
O37   C115  1.295520 A    
C121  H41   1.084745 S    
C119  C125  1.459553 S    
N7    O62   1.301038 A    
C74   C78   1.414230 A    
C43   H23   1.082681 S    
C166  H58   1.083595 S    
C170  C174  1.402323 A    
C41   H21   1.082680 S    
C26   C38   1.539880 S    
O41   Cu10  1.971620 S    
C131  C146  1.406731 A    
C82   C102  1.404929 A    
O2    C2    1.295841 A    
C30   C34   1.549033 S    
C54   C66   1.407033 A    
C13   C33   1.553547 S    
C14   H2    1.110226 S    
C128  C134  1.397726 A    
C180  C183  1.401189 A    
C29   H13   1.110108 S    
O14   Cu3   1.971878 S    
C16   C36   1.553549 S    
C124  C126  1.399615 A    
C94   C98   1.396669 A    
C92   N8    1.435767 S    
Cu1   Cu3   2.682858 S    
C65   H25   1.081623 S    
N17   O81   1.300995 A    
C138  C142  1.417599 A    
Cu2   Cu4   2.682858 S    
C67   H27   1.081626 S    
O24   Cu8   1.972563 S    
C182  C184  1.401192 A    
N12   O71   1.301380 A    
O33   C113  1.295922 A    
C88   N4    1.435854 S    
O37   Cu9   1.969971 S    
N16   O79   1.300240 A    
O34   Cu10  1.968244 S    
C180  H66   1.084732 S    
C123  H43   1.084743 S    
O18   C105  1.295094 A    
N13   O74   1.299855 A    
C83   C103  1.404926 A    
C84   C104  1.404926 A    
C71   C75   1.397231 A    
C57   C61   1.414052 A    
C28   C32   1.549585 S    
