data_mof_unit_12094.cif
_audit_creation_date              2013-03-05T16:01:30-0500
_audit_creation_method            fapswitch 2.2
_symmetry_space_group_name_H-M    P1
_symmetry_Int_Tables_number       1
_space_group_crystal_system       triclinic
_cell_length_a                    19.960106
_cell_length_b                    7.207255
_cell_length_c                    19.793451
_cell_angle_alpha                 89.999785
_cell_angle_beta                  98.672941
_cell_angle_gamma                 89.999924
_cell_volume                      2814.87799023

loop_
_atom_site_label
_atom_site_type_symbol
_atom_site_description
_atom_site_fract_x
_atom_site_fract_y
_atom_site_fract_z
_atom_type_partial_charge
O1    O     O_R   0.188410 0.619490 0.310050 -0.554292
O2    O     O_R   0.811590 0.380510 0.689950 -0.558805
O3    O     O_R   0.311590 0.119490 0.189950 -0.554293
O4    O     O_R   0.688410 0.880510 0.810050 -0.558810
O5    O     O_R   0.327280 0.288800 0.321740 -0.550025
O6    O     O_R   0.672720 0.711200 0.678260 -0.550930
O7    O     O_R   0.172720 0.788800 0.178260 -0.550023
O8    O     O_R   0.827280 0.211200 0.821740 -0.550931
C1    C     C_R   0.351879 0.456806 0.338587 1.027664
C2    C     C_R   0.648050 0.543168 0.661548 1.004046
C3    C     C_R   0.148121 0.956807 0.161412 1.027666
C4    C     C_R   0.851950 0.043167 0.838452 1.004042
O9    O     O_R   0.189900 0.289710 0.318190 -0.582895
O10   O     O_R   0.810100 0.710290 0.681810 -0.591866
O11   O     O_R   0.310100 0.789710 0.181810 -0.582889
O12   O     O_R   0.689900 0.210290 0.818190 -0.591852
O13   O     O_R   0.173230 0.120350 0.186370 -0.587129
O14   O     O_R   0.826770 0.879650 0.813630 -0.582834
O15   O     O_R   0.326770 0.620350 0.313630 -0.587127
O16   O     O_R   0.673230 0.379650 0.686370 -0.582831
C5    C     C_R   0.168947 0.458703 0.333281 0.986253
C6    C     C_R   0.829633 0.541195 0.665153 1.028032
C7    C     C_R   0.331052 0.958703 0.166718 0.986251
C8    C     C_R   0.670367 0.041195 0.834847 1.028026
O17   O     O_3   0.244690 0.453290 0.206760 -0.277066
O18   O     O_3   0.755310 0.546710 0.793240 -0.263182
O19   O     O_3   0.255310 0.953290 0.293240 -0.277070
O20   O     O_3   0.744690 0.046710 0.706760 -0.263188
V1    V     V_3+5 0.250980 0.178070 0.258020 1.292309
V2    V     V_3+5 0.749020 0.821930 0.741980 1.306871
V3    V     V_3+5 0.249020 0.678070 0.241980 1.292312
V4    V     V_3+5 0.750980 0.321930 0.758020 1.306878
C9    C     C_R   0.480315 0.096125 0.077429 -0.228396
C10   C     C_R   0.565797 0.864906 0.968631 -0.171969
C11   C     C_R   0.019677 0.596115 0.422559 -0.228337
C12   C     C_R   0.934202 0.364933 0.531365 -0.172052
H1    H     H_    0.524733 0.184442 0.086547 0.175707
H2    H     H_    0.564212 0.747914 0.002764 0.183960
H3    H     H_    0.975256 0.684418 0.413436 0.175699
H4    H     H_    0.935789 0.247943 0.497231 0.183938
C13   C     C_R   0.436506 0.088740 0.126467 0.389088
C14   C     C_R   0.618078 0.876106 0.928419 0.372947
C15   C     C_R   0.063486 0.588722 0.373523 0.389076
C16   C     C_R   0.881922 0.376119 0.571578 0.372972
C17   C     C_R   0.379234 0.970625 0.116298 -0.314684
C18   C     C_R   0.620983 0.030536 0.884418 -0.332749
C19   C     C_R   0.120763 0.470626 0.383698 -0.314683
C20   C     C_R   0.879017 0.530541 0.615583 -0.332738
C21   C     C_R   0.366972 0.865045 0.056039 -0.274655
C22   C     C_R   0.572861 0.172845 0.884660 -0.192082
C23   C     C_R   0.133028 0.365068 0.443963 -0.274642
C24   C     C_R   0.927139 0.672851 0.615343 -0.192107
H5    H     H_    0.322362 0.777563 0.047559 0.186202
H6    H     H_    0.574185 0.290257 0.850718 0.199859
H7    H     H_    0.177641 0.277598 0.452448 0.186198
H8    H     H_    0.925813 0.790251 0.649290 0.199866
C25   C     C_R   0.409281 0.877956 0.005098 0.412529
C26   C     C_R   0.521234 0.163332 0.925842 0.385512
C27   C     C_R   0.090719 0.377987 0.494903 0.412496
C28   C     C_R   0.978765 0.663360 0.574158 0.385521
C29   C     C_R   0.467546 0.993260 0.016775 -0.029553
C30   C     C_R   0.517475 0.006256 0.968112 -0.038195
C31   C     C_R   0.032450 0.493279 0.483220 -0.029500
C32   C     C_R   0.982522 0.506288 0.531883 -0.038184
C33   C     C_R   0.086882 0.954444 0.107558 -0.362868
C34   C     C_R   0.913258 0.045291 0.892145 -0.359459
C35   C     C_R   0.413118 0.454444 0.392441 -0.362867
C36   C     C_R   0.586742 0.545292 0.607854 -0.359463
C37   C     C_R   0.011098 0.215026 0.951788 -0.299233
C38   C     C_R   0.989205 0.784424 0.047674 -0.307463
C39   C     C_R   0.488902 0.715025 0.548212 -0.299234
C40   C     C_R   0.510796 0.284425 0.452326 -0.307462
C41   C     C_R   0.957903 0.199027 0.897288 0.792637
C42   C     C_R   0.042650 0.799706 0.101912 0.828293
C43   C     C_R   0.542096 0.699028 0.602711 0.792628
C44   C     C_R   0.457351 0.299707 0.398088 0.828283
C45   C     C_R   0.924826 0.905358 0.942086 -0.198691
C46   C     C_R   0.075080 0.094953 0.057826 -0.238793
C47   C     C_R   0.575174 0.405359 0.557914 -0.198690
C48   C     C_R   0.424919 0.594952 0.442173 -0.238793
C49   C     C_R   0.978413 0.921683 0.997254 0.093540
C50   C     C_R   0.021600 0.078459 0.002524 0.114898
C51   C     C_R   0.521587 0.421684 0.502745 0.093540
C52   C     C_R   0.478400 0.578458 0.497475 0.114899
H9    H     H_    0.108808 0.213547 0.060795 0.176181
H10   H     H_    0.890955 0.787090 0.939267 0.197920
H11   H     H_    0.391191 0.713545 0.439205 0.176180
H12   H     H_    0.609046 0.287091 0.560733 0.197922
H13   H     H_    0.043974 0.335315 0.954380 0.173484
H14   H     H_    0.956563 0.663612 0.044844 0.180272
H15   H     H_    0.456025 0.835314 0.545619 0.173483
H16   H     H_    0.543439 0.163614 0.455156 0.180272
N1    N     N_R   0.452642 0.197304 0.187310 0.247522
O21   O     O_R   0.418764 0.348597 0.194112 -0.368354
O22   O     O_R   0.510906 0.173565 0.225674 -0.324124
N2    N     N_R   0.669475 0.734715 0.935821 0.245329
O23   O     O_R   0.733174 0.780614 0.942019 -0.408687
O24   O     O_R   0.653718 0.563814 0.947667 -0.380169
N3    N     N_R   0.047347 0.697261 0.312674 0.247525
O25   O     O_R   0.081223 0.848553 0.305863 -0.368346
O26   O     O_R   0.989083 0.673505 0.274313 -0.324125
N4    N     N_R   0.830526 0.234724 0.564174 0.245325
O27   O     O_R   0.766826 0.280623 0.557994 -0.408685
O28   O     O_R   0.846279 0.063840 0.552289 -0.380202
N5    N     N_R   0.390760 0.779086 0.941649 0.268275
O29   O     O_R   0.411101 0.835658 0.885703 -0.300012
O30   O     O_R   0.346375 0.645711 0.937536 -0.300638
N6    N     N_R   0.472829 0.312422 0.922949 0.248783
O31   O     O_R   0.488138 0.476105 0.902108 -0.342326
O32   O     O_R   0.411225 0.282073 0.934278 -0.316645
N7    N     N_R   0.109241 0.279138 0.558357 0.268261
O33   O     O_R   0.088895 0.335718 0.614299 -0.300035
O34   O     O_R   0.153631 0.145777 0.562477 -0.300617
N8    N     N_R   0.027170 0.812461 0.577057 0.248797
O35   O     O_R   0.011901 0.976064 0.598015 -0.342219
O36   O     O_R   0.088740 0.782187 0.565618 -0.316771
F1    F     F_    0.051089 0.661113 0.148866 -0.650573
F2    F     F_    0.950318 0.335199 0.849314 -0.678739
F3    F     F_    0.448913 0.161116 0.351133 -0.650578
F4    F     F_    0.549681 0.835199 0.650684 -0.678744

loop_
_geom_bond_atom_site_label_1
_geom_bond_atom_site_label_2
_geom_bond_distance
_ccdc_geom_bond_type
O17   V3    1.760637 S    
C6    C20   1.493939 S    
C26   C30   1.416396 A    
N1    O21   1.300709 A    
C7    C17   1.489191 S    
O19   V1    1.760633 S    
O13   V1    1.982164 S    
O1    C5    1.326318 A    
O3    C7    1.326320 A    
N7    O33   1.301124 A    
C10   C14   1.406934 A    
O1    V3    1.987142 S    
C40   C44   1.399018 A    
O15   V3    1.982164 S    
C49   C50   1.415465 A    
C36   C43   1.415912 A    
O18   V4    1.760637 S    
N5    O30   1.301450 A    
C22   H6    1.083282 S    
C14   N2    1.437713 S    
O9    V1    1.997521 S    
C15   N3    1.431539 S    
C48   H11   1.084114 S    
C11   H3    1.084208 S    
O4    C8    1.328578 A    
C21   H5    1.083282 S    
C10   C30   1.401871 A    
C21   C25   1.412533 A    
N6    O31   1.301250 A    
O2    V4    1.987142 S    
C14   C18   1.419840 A    
C25   C29   1.419686 A    
C42   F1    1.357452 S    
C38   C49   1.398630 A    
C38   C42   1.399018 A    
C37   C50   1.399205 A    
C24   C28   1.408689 A    
C28   N8    1.440432 S    
C1    O15   1.345318 A    
C13   N1    1.431543 S    
C51   C52   1.415465 A    
C2    O16   1.344770 A    
N2    O24   1.301257 A    
O2    C6    1.328577 A    
C27   N7    1.442798 S    
C37   C41   1.399603 A    
O14   V2    1.982164 S    
C45   C49   1.413522 A    
C11   C15   1.401973 A    
C26   N6    1.440383 S    
C29   C30   1.489707 S    
C48   C52   1.414009 A    
C36   C47   1.406673 A    
O11   C7    1.336139 A    
O12   C8    1.335944 A    
C38   H14   1.083879 S    
O10   V2    1.997520 S    
C37   H13   1.083838 S    
C47   H12   1.084158 S    
N8    O35   1.301322 A    
O5    V1    1.991917 S    
C39   C43   1.399603 A    
C44   F3    1.357453 S    
O7    V3    1.991912 S    
C25   N5    1.442796 S    
C43   F4    1.358094 S    
C22   C26   1.408668 A    
C12   H4    1.083913 S    
C16   N4    1.437725 S    
C19   C23   1.404818 A    
C34   C41   1.415912 A    
C4    C34   1.494991 S    
C9    H1    1.084210 S    
C33   C42   1.416317 A    
O8    V4    1.991912 S    
O7    C3    1.330074 A    
C1    C35   1.495893 S    
O5    C1    1.330075 A    
C46   C50   1.414009 A    
N3    O25   1.300705 A    
C17   C21   1.404824 A    
O8    C4    1.330194 A    
N2    O23   1.301543 A    
O9    C5    1.336138 A    
N7    O34   1.301450 A    
N4    O28   1.301289 A    
C46   H9    1.084115 S    
C9    C29   1.401299 A    
O6    V2    1.991917 S    
C45   H10   1.084158 S    
C12   C16   1.406929 A    
C23   C27   1.412535 A    
C39   C52   1.399204 A    
O16   V4    1.982165 S    
C34   C45   1.406672 A    
C3    O13   1.345321 A    
C41   F2    1.358094 S    
N3    O26   1.300777 A    
C10   H2    1.083912 S    
C35   C48   1.407149 A    
O6    C2    1.330196 A    
N8    O36   1.301184 A    
O11   V3    1.997519 S    
C2    C36   1.494991 S    
O12   V4    1.997519 S    
N5    O29   1.301128 A    
C18   C22   1.405703 A    
C27   C31   1.419686 A    
C28   C32   1.416430 A    
C33   C46   1.407149 A    
C9    C13   1.401976 A    
O10   C6    1.335944 A    
O20   V2    1.760633 S    
C8    C18   1.493939 S    
C16   C20   1.419836 A    
C47   C51   1.413523 A    
O3    V1    1.987144 S    
C40   H16   1.083879 S    
N6    O32   1.301247 A    
C23   H7    1.083280 S    
N4    O27   1.301576 A    
C40   C51   1.398632 A    
C31   C32   1.489701 S    
C24   H8    1.083277 S    
C20   C24   1.405704 A    
C39   H15   1.083837 S    
N1    O22   1.300778 A    
C4    O14   1.344771 A    
C13   C17   1.415146 A    
C11   C31   1.401292 A    
C35   C44   1.416317 A    
C12   C32   1.401875 A    
C15   C19   1.415141 A    
O4    V2    1.987142 S    
C3    C33   1.495892 S    
C5    C19   1.489187 S    
