data_mof_unit_50499.cif
_audit_creation_date              2012-10-26T20:21:48-0400
_audit_creation_method            fapswitch 2.2
_symmetry_space_group_name_H-M    P1
_symmetry_Int_Tables_number       1
_space_group_crystal_system       monoclinic
_cell_length_a                    16.974397
_cell_length_b                    13.663581
_cell_length_c                    9.681386
_cell_angle_alpha                 90.000011
_cell_angle_beta                  90.0
_cell_angle_gamma                 90.0
_cell_volume                      2245.41400432

loop_
_atom_site_label
_atom_site_type_symbol
_atom_type_description
_atom_site_fract_x
_atom_site_fract_y
_atom_site_fract_z
_atom_type_partial_charge
C1    C     C_R   0.120414 0.383644 0.500304 0.599233
C2    C     C_R   0.000474 0.588533 0.924407 0.310559
C3    C     C_R   0.999526 0.588533 0.075593 0.310559
C4    C     C_R   0.999526 0.411467 0.924407 0.310559
C5    C     C_R   0.500474 0.911467 0.075593 0.310559
C6    C     C_R   0.500474 0.088532 0.924407 0.310559
C7    C     C_R   0.499526 0.088532 0.075593 0.310559
C8    C     C_R   0.499526 0.911467 0.924407 0.310559
C9    C     C_R   0.780870 0.283183 0.372507 0.375093
C10   C     C_R   0.221936 0.713387 0.623021 0.369644
C11   C     C_R   0.219130 0.716817 0.372507 0.375090
C12   C     C_R   0.879586 0.616356 0.500304 0.599236
C13   C     C_R   0.778065 0.286612 0.623021 0.369642
C14   C     C_R   0.219130 0.283183 0.627493 0.375093
C15   C     C_R   0.778065 0.713388 0.376979 0.369647
C16   C     C_R   0.780870 0.716817 0.627493 0.375092
C17   C     C_R   0.221935 0.286612 0.376979 0.369644
C18   C     C_R   0.280869 0.783184 0.372507 0.375088
C19   C     C_R   0.721935 0.213389 0.623021 0.369646
C20   C     C_R   0.719131 0.216816 0.372507 0.375089
C21   C     C_R   0.278066 0.786611 0.623021 0.369648
C22   C     C_R   0.719131 0.783184 0.627493 0.375088
C23   C     C_R   0.879586 0.383644 0.499696 0.599229
C24   C     C_R   0.278066 0.213389 0.376979 0.369648
C25   C     C_R   0.280869 0.216816 0.627493 0.375090
C26   C     C_R   0.721934 0.786611 0.376979 0.369650
C27   C     C_R   0.188512 0.681843 0.498285 -0.120501
C28   C     C_R   0.811488 0.318157 0.498285 -0.120500
C29   C     C_R   0.811488 0.681843 0.501714 -0.120497
C30   C     C_R   0.188512 0.318157 0.501715 -0.120499
C31   C     C_R   0.688512 0.181842 0.498285 -0.120500
C32   C     C_R   0.311488 0.818157 0.498285 -0.120499
C33   C     C_R   0.311488 0.181843 0.501714 -0.120498
C34   C     C_R   0.120414 0.616356 0.499696 0.599229
C35   C     C_R   0.688512 0.818157 0.501714 -0.120497
C36   C     C_R   0.620414 0.883644 0.500304 0.599236
C37   C     C_R   0.379586 0.116356 0.500304 0.599235
C38   C     C_R   0.379586 0.883644 0.499696 0.599233
C39   C     C_R   0.620414 0.116356 0.499696 0.599231
C40   C     C_R   0.000474 0.411467 0.075593 0.310559
Cu1   Cu    Cu3+1 1.000000 0.500000 0.640660 1.277047
Cu2   Cu    Cu3+1 0.000000 0.500000 0.359340 1.277048
Cu3   Cu    Cu3+1 0.500000 0.000000 0.640660 1.277049
Cu4   Cu    Cu3+1 0.500000 0.000000 0.359340 1.277049
F1    F     F_    0.809071 0.314114 0.248732 -0.474645
F2    F     F_    0.702553 0.171710 0.745339 -0.477143
F3    F     F_    0.690932 0.185883 0.248733 -0.474647
F4    F     F_    0.297447 0.828289 0.745340 -0.477143
F5    F     F_    0.690932 0.814118 0.751267 -0.474647
F6    F     F_    0.297447 0.171710 0.254660 -0.477143
F7    F     F_    0.309068 0.185883 0.751267 -0.474646
F8    F     F_    0.702552 0.828289 0.254660 -0.477143
F9    F     F_    0.202555 0.671707 0.745339 -0.477144
F10   F     F_    0.190929 0.685886 0.248732 -0.474646
F11   F     F_    0.797445 0.328293 0.745339 -0.477144
F12   F     F_    0.190929 0.314114 0.751267 -0.474645
F13   F     F_    0.797446 0.671707 0.254661 -0.477144
F14   F     F_    0.809071 0.685886 0.751267 -0.474645
F15   F     F_    0.202555 0.328293 0.254661 -0.477144
F16   F     F_    0.309068 0.814118 0.248733 -0.474647
H1    H     H_    0.011128 0.209691 0.355737 0.348608
H2    H     H_    0.011130 0.790309 0.644262 0.348607
H3    H     H_    0.988880 0.790312 0.355735 0.348609
H4    H     H_    0.988866 0.209693 0.644262 0.348609
H5    H     H_    0.511111 0.709686 0.355734 0.348609
H6    H     H_    0.511123 0.290310 0.644263 0.348608
H7    H     H_    0.488882 0.290312 0.355736 0.348609
H8    H     H_    0.488885 0.709688 0.644265 0.348609
N1    N     N_R   0.000000 0.500000 0.852070 -0.310157
N2    N     N_R   1.000000 0.500000 0.147930 -0.310157
N3    N     N_R   0.500000 0.000000 0.852070 -0.310158
N4    N     N_R   0.500000 0.000000 0.147930 -0.310157
O1    O     O_R   0.090170 0.409820 0.618740 -0.412079
O2    O     O_R   0.409830 0.090180 0.381260 -0.418316
O3    O     O_R   0.409830 0.090180 0.618740 -0.412081
O4    O     O_R   0.590170 0.909820 0.381260 -0.418313
O5    O     O_R   0.409830 0.909820 0.381260 -0.412083
O6    O     O_R   0.590170 0.090180 0.618740 -0.418317
O7    O     O_R   0.590170 0.090180 0.381260 -0.412082
O8    O     O_R   0.409830 0.909820 0.618740 -0.418315
O9    O     O_2   0.945135 0.224154 0.112408 -0.139461
O10   O     O_2   0.086503 0.249875 0.131947 -0.131241
O11   O     O_3   0.999180 0.279381 0.336597 -0.504596
O12   O     O_R   0.909830 0.590180 0.381260 -0.418317
O13   O     O_2   0.945135 0.775846 0.887592 -0.139461
O14   O     O_2   0.086503 0.750124 0.868052 -0.131242
O15   O     O_3   0.999180 0.720619 0.663403 -0.504594
O16   O     O_2   0.054866 0.775846 0.112408 -0.139467
O17   O     O_2   0.913498 0.750125 0.131947 -0.131236
O18   O     O_3   0.000820 0.720619 0.336597 -0.504597
O19   O     O_2   0.054865 0.224153 0.887592 -0.139458
O20   O     O_2   0.913497 0.249876 0.868052 -0.131243
O21   O     O_3   0.000820 0.279381 0.663403 -0.504596
O22   O     O_2   0.445131 0.724156 0.112409 -0.139474
O23   O     O_R   0.909830 0.590180 0.618740 -0.412080
O24   O     O_2   0.586500 0.749872 0.131947 -0.131230
O25   O     O_3   0.499180 0.779381 0.336598 -0.504598
O26   O     O_2   0.445132 0.275845 0.887591 -0.139466
O27   O     O_2   0.586501 0.250127 0.868053 -0.131237
O28   O     O_3   0.499180 0.220619 0.663402 -0.504595
O29   O     O_2   0.554868 0.275845 0.112409 -0.139470
O30   O     O_2   0.413499 0.250127 0.131947 -0.131234
O31   O     O_3   0.500820 0.220619 0.336598 -0.504597
O32   O     O_2   0.554868 0.724155 0.887590 -0.139471
O33   O     O_2   0.413500 0.749872 0.868053 -0.131232
O34   O     O_R   0.090170 0.409820 0.381260 -0.418319
O35   O     O_3   0.500820 0.779381 0.663402 -0.504597
O36   O     O_R   0.909830 0.409820 0.381260 -0.412079
O37   O     O_R   0.090170 0.590180 0.618740 -0.418320
O38   O     O_R   0.090170 0.590180 0.381260 -0.412080
O39   O     O_R   0.909830 0.409820 0.618740 -0.418321
O40   O     O_R   0.590170 0.909820 0.618740 -0.412082
S1    S     S_3+6 0.007289 0.292319 0.165339 0.191403
S2    S     S_3+6 0.007289 0.707681 0.834661 0.191404
S3    S     S_3+6 0.992711 0.707681 0.165339 0.191403
S4    S     S_3+6 0.992711 0.292319 0.834661 0.191404
S5    S     S_3+6 0.507288 0.792319 0.165339 0.191402
S6    S     S_3+6 0.507288 0.207681 0.834661 0.191403
S7    S     S_3+6 0.492712 0.207681 0.165339 0.191402
S8    S     S_3+6 0.492712 0.792319 0.834661 0.191402

loop_
_geom_bond_atom_site_label_1
_geom_bond_atom_site_label_2
_ccdc_geom_bond_type
C10   C27   A    
C14   F12   S    
C37   O2    A    
O17   S3    D    
C11   C18   A    
C9    F1    S    
C12   C29   S    
Cu1   Cu2   S    
O11   S1    S    
C35   C36   S    
C19   C31   A    
C19   F2    S    
H7    O31   S    
Cu3   O6    S    
C22   C35   A    
C40   N2    A    
O13   S2    D    
H4    O21   S    
C5    N4    A    
O22   S5    D    
Cu2   N2    S    
O19   S4    D    
C12   O12   A    
H6    O28   S    
Cu4   O4    S    
C10   F9    S    
O15   S2    S    
C36   O4    A    
C4    C40   A    
C36   O40   A    
C16   C22   A    
C13   C28   A    
C15   C29   A    
H8    O35   S    
C32   C38   S    
C2    N1    A    
C1    O34   A    
C21   F4    S    
C37   O3    A    
C10   C21   A    
Cu1   O37   S    
Cu3   O3    S    
C17   C30   A    
C15   F13   S    
C14   C30   A    
C4    N1    A    
O26   S6    D    
C27   C34   S    
C24   F6    S    
C6    N3    A    
C21   C32   A    
C17   C24   A    
C13   C19   A    
O29   S7    D    
C39   O6    A    
C7    S7    S    
O24   S5    D    
C3    N2    A    
Cu2   O12   S    
H1    O11   S    
C7    N4    A    
C15   C26   A    
Cu3   O8    S    
C23   C28   S    
C33   C37   S    
C5    S5    S    
O21   S4    S    
C39   O7    A    
Cu3   Cu4   S    
C25   F7    S    
C26   F8    S    
Cu2   O34   S    
C9    C20   A    
C40   S1    S    
C11   C27   A    
O33   S8    D    
C16   F14   S    
O18   S3    S    
Cu4   O2    S    
O20   S4    D    
C11   F10   S    
C17   F15   S    
C22   F5    S    
C18   F16   S    
C34   O38   A    
C12   O23   A    
C18   C32   A    
Cu3   O40   S    
O35   S8    S    
C8    S8    S    
Cu1   N1    S    
Cu4   O5    S    
C8    N3    A    
Cu3   N3    S    
C4    S4    S    
Cu4   O7    S    
O31   S7    S    
O10   S1    D    
C5    C8    A    
C6    C7    A    
C38   O5    A    
C23   O39   A    
H2    O15   S    
C24   C33   A    
O14   S2    D    
C1    O1    A    
O16   S3    D    
C2    C3    A    
Cu2   O38   S    
H5    O25   S    
C3    S3    S    
O27   S6    D    
C2    S2    S    
Cu1   O23   S    
C38   O8    A    
C23   O36   A    
H3    O18   S    
C1    C30   S    
C31   C39   S    
Cu4   N4    S    
C14   C25   A    
O25   S5    S    
C20   F3    S    
Cu1   O1    S    
C26   C35   A    
O28   S6    S    
C16   C29   A    
Cu1   O39   S    
O9    S1    D    
C34   O37   A    
C13   F11   S    
Cu2   O36   S    
C6    S6    S    
O30   S7    D    
C9    C28   A    
C25   C33   A    
O32   S8    D    
C20   C31   A    
