data_mof_unit_46379.cif
_audit_creation_date              2012-12-10T19:46:52-0500
_audit_creation_method            fapswitch 2.2
_symmetry_space_group_name_H-M    P1
_symmetry_Int_Tables_number       1
_space_group_crystal_system       triclinic
_cell_length_a                    10.896742
_cell_length_b                    10.910224
_cell_length_c                    13.124793
_cell_angle_alpha                 90.616073
_cell_angle_beta                  90.200983
_cell_angle_gamma                 88.430726
_cell_volume                      1559.66933271

loop_
_atom_site_label
_atom_site_type_symbol
_atom_type_description
_atom_site_fract_x
_atom_site_fract_y
_atom_site_fract_z
_atom_type_partial_charge
C1    C     C_R   0.495399 0.259644 0.499278 0.885528
C2    C     C_R   0.504606 0.740356 0.500722 0.885498
C3    C     C_R   0.872672 0.500968 0.501770 -0.163780
C4    C     C_R   0.127329 0.499025 0.498229 -0.163773
C5    C     C_R   0.939299 0.419278 0.565203 -0.035220
C6    C     C_R   0.060701 0.580716 0.434800 -0.035221
C7    C     C_R   0.277164 0.232301 0.215372 -0.183196
C8    C     C_R   0.722860 0.767680 0.784610 -0.183177
C9    C     C_R   0.319713 0.180812 0.305891 -0.136773
C10   C     C_R   0.680304 0.819175 0.694096 -0.136760
C11   C     C_R   0.434198 0.118492 0.309877 -0.030406
C12   C     C_R   0.565824 0.881506 0.690120 -0.030421
C13   C     C_R   0.507506 0.108580 0.220583 -0.061849
C14   C     C_R   0.492530 0.891421 0.779421 -0.061838
C15   C     C_R   0.463034 0.162178 0.129352 0.318648
C16   C     C_R   0.537007 0.837817 0.870648 0.318630
C17   C     C_R   0.348227 0.222670 0.127543 -0.156544
C18   C     C_R   0.651808 0.777314 0.872446 -0.156555
C19   C     C_R   0.480144 0.933226 0.410606 -0.188139
C20   C     C_R   0.519868 0.066774 0.589395 -0.188134
C21   C     C_R   0.506122 0.872853 0.501961 -0.036880
C22   C     C_R   0.493887 0.127146 0.498039 -0.036874
C23   C     C_R   0.259725 0.502190 0.499619 0.874753
C24   C     C_R   0.740274 0.497808 0.500381 0.874704
C25   C     C_R   0.527998 0.939921 0.592502 0.051891
C26   C     C_R   0.472015 0.060078 0.407498 0.051879
C27   C     C_1   0.500022 0.500120 0.173586 0.170589
C28   C     C_1   0.499979 0.499880 0.826414 0.170574
C29   C     C_1   0.500009 0.500084 0.050688 -0.016430
C30   C     C_1   0.499992 0.499915 0.949312 -0.016442
C31   C     C_R   0.187188 0.881584 0.345749 -0.140533
C32   C     C_R   0.812800 0.118434 0.654310 -0.140559
C33   C     C_R   0.135493 0.794247 0.408509 0.288280
C34   C     C_R   0.864503 0.205752 0.591533 0.288268
C35   C     C_R   0.124262 0.672766 0.372899 0.036263
C36   C     C_R   0.875733 0.327244 0.627119 0.036326
C37   C     C_R   0.166883 0.640351 0.275119 -0.087743
C38   C     C_R   0.833105 0.359689 0.724892 -0.087722
C39   C     C_R   0.220041 0.727940 0.213564 -0.103721
C40   C     C_R   0.779937 0.272119 0.786463 -0.103704
C41   C     C_R   0.229439 0.848680 0.248558 -0.160708
C42   C     C_R   0.770540 0.151367 0.751493 -0.160663
C43   C     C_R   0.932369 0.582403 0.437034 -0.037948
C44   C     C_R   0.067632 0.417586 0.562964 -0.037974
Cu1   Cu    Cu3+1 0.499990 0.499990 0.592680 1.023921
Cu2   Cu    Cu3+1 0.500010 0.500010 0.407320 1.023921
H1    H     H_    0.269845 0.916718 0.200556 0.193330
H2    H     H_    0.730126 0.083344 0.799507 0.193354
H3    H     H_    0.463174 0.881299 0.341349 0.160961
H4    H     H_    0.536839 0.118701 0.658651 0.160952
H5    H     H_    0.194544 0.975024 0.372620 0.187872
H6    H     H_    0.805445 0.024985 0.627457 0.187867
H7    H     H_    0.157995 0.547492 0.246516 0.143255
H8    H     H_    0.841992 0.452557 0.753478 0.143230
H9    H     H_    0.252834 0.702373 0.138364 0.176732
H10   H     H_    0.747137 0.297710 0.861657 0.176718
H11   H     H_    0.314689 0.264308 0.057928 0.176250
H12   H     H_    0.685350 0.735671 0.942057 0.176247
H13   H     H_    0.188904 0.280243 0.213408 0.169025
H14   H     H_    0.811114 0.719728 0.786565 0.169022
H15   H     H_    0.262971 0.189156 0.373358 0.181161
H16   H     H_    0.737037 0.810828 0.626624 0.181179
N1    N     N_1   0.500030 0.500030 0.268070 -0.134897
N2    N     N_1   0.499970 0.499970 0.731930 -0.134896
O1    O     O_R   0.499980 0.319630 0.578260 -0.576620
O2    O     O_R   0.500020 0.680370 0.421740 -0.576630
O3    O     O_R   0.500000 0.319650 0.421740 -0.574806
O4    O     O_R   0.500000 0.680350 0.578260 -0.574801
O5    O     O_R   0.319630 0.500000 0.578260 -0.561925
O6    O     O_R   0.680370 0.500000 0.421740 -0.561933
O7    O     O_R   0.319650 0.500020 0.421740 -0.594602
O8    O     O_R   0.680350 0.499980 0.578260 -0.594610
C45   C     C_2   0.630288 0.045919 0.222993 0.898523
O9    O     O_2   0.698734 0.060918 0.295810 -0.539802
O10   O     O_R   0.667587 0.968949 0.142437 -0.697694
H17   H     H_    0.753696 0.933488 0.152213 0.336280
C46   C     C_2   0.369754 0.954094 0.777025 0.898502
O11   O     O_2   0.301287 0.939089 0.704221 -0.539804
O12   O     O_R   0.332485 0.031083 0.857581 -0.697696
H18   H     H_    0.246376 0.066548 0.847817 0.336266
Br1   Br    Br    0.558096 0.164236 0.006390 -0.497171
Br2   Br    Br    0.441957 0.835762 0.993616 -0.497164
Br3   Br    Br    0.079800 0.844430 0.541426 -0.438027
Br4   Br    Br    0.920204 0.155528 0.458627 -0.438027
C47   C     C_2   0.861335 0.673031 0.374540 0.891464
O13   O     O_2   0.785469 0.742198 0.415014 -0.596727
O14   O     O_R   0.882189 0.679366 0.269756 -0.751906
H19   H     H_    0.828195 0.744072 0.235709 0.339366
C48   C     C_2   0.138668 0.326950 0.625451 0.891487
O15   O     O_2   0.214569 0.257824 0.584979 -0.596755
O16   O     O_R   0.117777 0.320561 0.730224 -0.751906
H20   H     H_    0.171775 0.255854 0.764264 0.339368

loop_
_geom_bond_atom_site_label_1
_geom_bond_atom_site_label_2
_ccdc_geom_bond_type
O14   H19   S    
C27   C29   S    
C40   H10   S    
C45   O9    D    
C23   O5    A    
C24   O6    A    
C39   C41   A    
C47   O13   D    
C3    C43   A    
C9    H15   S    
C19   C21   A    
Cu2   O2    S    
C2    O4    A    
C20   C25   A    
C5    C36   S    
C6    C35   S    
C7    C9    A    
C14   C46   S    
C19   C26   A    
C32   H6    S    
C20   H4    S    
C33   C35   A    
C18   H12   S    
C39   H9    S    
C7    C17   A    
C1    O1    A    
C31   C33   A    
C48   O16   S    
C46   O11   D    
C37   H7    S    
C40   C42   A    
C1    C22   S    
Cu1   O8    S    
C45   O10   S    
C3    C24   S    
C10   H16   S    
C34   Br4   S    
C2    C21   S    
C10   C12   A    
C7    H13   S    
C46   O12   S    
C15   Br1   S    
C47   O14   S    
Cu1   O5    S    
C43   C47   S    
C23   O7    A    
C4    C6    A    
C31   H5    S    
O16   H20   S    
C4    C23   S    
C4    C44   A    
C11   C26   S    
C2    O2    A    
Cu1   Cu2   S    
C8    C18   A    
C32   C34   A    
O10   H17   S    
C29   C30   T    
C33   Br3   S    
C19   H3    S    
C38   H8    S    
Cu1   O4    S    
C16   Br2   S    
C41   H1    S    
C42   H2    S    
C9    C11   A    
Cu2   O7    S    
C27   N1    T    
C28   N2    T    
C16   C18   A    
C5    C44   A    
C20   C22   A    
C6    C43   A    
C13   C15   A    
Cu1   O1    S    
C14   C16   A    
C24   O8    A    
C15   C17   A    
C21   C25   A    
C31   C41   A    
C35   C37   A    
C13   C45   S    
C3    C5    A    
Cu2   N1    S    
Cu1   N2    S    
C12   C25   S    
C36   C38   A    
C12   C14   A    
Cu2   O3    S    
C37   C39   A    
C8    H14   S    
C38   C40   A    
C11   C13   A    
C28   C30   S    
C1    O3    A    
C34   C36   A    
Cu2   O6    S    
O12   H18   S    
C8    C10   A    
C22   C26   A    
C32   C42   A    
C48   O15   D    
C44   C48   S    
C17   H11   S    
