data_mof_unit_38582.cif
_audit_creation_date              2012-12-11T14:17:29-0500
_audit_creation_method            fapswitch 2.2
_symmetry_space_group_name_H-M    P1
_symmetry_Int_Tables_number       1
_space_group_crystal_system       triclinic
_cell_length_a                    6.940451
_cell_length_b                    13.648148
_cell_length_c                    20.379256
_cell_angle_alpha                 101.907105
_cell_angle_beta                  90.191206
_cell_angle_gamma                 90.483588
_cell_volume                      1888.78222369

loop_
_atom_site_label
_atom_site_type_symbol
_atom_type_description
_atom_site_fract_x
_atom_site_fract_y
_atom_site_fract_z
_atom_type_partial_charge
O1    O     O_R   0.506860 0.599390 0.449240 -0.543194
O2    O     O_R   0.180220 0.594600 0.586780 -0.549701
O3    O     O_R   0.004500 0.400610 0.550760 -0.539882
C1    C     C_R   0.349153 0.615564 0.613653 0.752079
O4    O     O_R   0.177490 0.611290 0.451970 -0.544309
O5    O     O_R   0.001750 0.417420 0.414990 -0.538022
C2    C     C_R   0.346295 0.638662 0.435697 0.736086
O6    O     O_R   0.509610 0.582580 0.585010 -0.537197
O7    O     O_3   0.337420 0.436370 0.488020 -0.360868
V1    V     V_3+5 0.064680 0.511800 0.502220 1.491862
O8    O     O_R   0.671710 0.405400 0.413220 -0.530721
C3    C     C_R   0.840218 0.385313 0.386086 0.745418
O9    O     O_R   0.674440 0.388710 0.548030 -0.524529
C4    C     C_R   0.842664 0.361893 0.564804 0.733919
V2    V     V_3+5 0.564010 0.488200 0.497780 1.546406
O10   O     O_3   0.841140 0.563630 0.511980 -0.385732
C5    C     C_R   0.785943 0.112331 0.612686 -0.074319
H1    H     H_    0.783274 0.163460 0.519937 0.160351
H2    H     H_    0.776403 0.987325 0.696544 0.120519
H3    H     H_    0.760775 0.035022 0.587937 0.143486
C6    C     C_R   0.845697 0.283806 0.604303 -0.091896
C7    C     C_R   0.874092 0.314821 0.927412 -0.231881
C8    C     C_R   0.840374 0.391009 0.893121 -0.157155
C9    C     C_R   0.799940 0.369814 0.824207 0.389287
C10   C     C_R   0.820724 0.269226 0.786820 -0.028214
C11   C     C_R   0.833681 0.190994 0.823730 0.030647
C12   C     C_R   0.825088 0.241760 0.715093 0.092853
C13   C     C_R   0.799691 0.139664 0.682879 0.108977
C14   C     C_R   0.792865 0.065514 0.720738 -0.176584
C15   C     C_R   0.817412 0.090283 0.789780 -0.163476
C16   C     C_R   0.865956 0.310790 0.674056 -0.094052
C17   C     C_R   0.802226 0.184759 0.573811 -0.089184
C18   C     C_R   0.860603 0.214976 0.894162 -0.070955
H4    H     H_    0.913001 0.385923 0.695338 0.181722
H5    H     H_    0.897513 0.333743 0.981171 0.127611
H6    H     H_    0.833124 0.467163 0.921696 0.159050
H7    H     H_    0.821127 0.029453 0.816459 0.109233
C19   C     C_2   0.005324 0.304426 0.279351 -0.061158
C20   C     C_2   0.849125 0.314433 0.320203 -0.329252
H8    H     H_    0.724706 0.265719 0.306451 0.164164
C21   C     C_2   0.019873 0.223569 0.217794 -0.058507
C22   C     C_2   0.864748 0.189513 0.178565 -0.351761
H9    H     H_    0.724486 0.220601 0.193143 0.170942
C23   C     C_2   0.203922 0.787786 0.783133 -0.127804
C24   C     C_2   0.363587 0.815201 0.820149 -0.267702
H10   H     H_    0.065354 0.815984 0.802885 0.135069
H11   H     H_    0.502927 0.787164 0.801699 0.148611
C25   C     C_2   0.202786 0.719510 0.715619 -0.101837
C26   C     C_2   0.361224 0.682980 0.680667 -0.240916
H12   H     H_    0.061388 0.699507 0.693690 0.152045
H13   H     H_    0.504473 0.702026 0.700699 0.144516
C27   C     C_R   0.309491 0.890724 0.389389 0.489363
H14   H     H_    0.304539 0.835329 0.481241 0.157110
H15   H     H_    0.288123 0.014144 0.300287 0.205010
C28   C     C_R   0.352572 0.716943 0.396390 -0.114912
C29   C     C_R   0.382662 0.684978 0.072741 -0.160919
C30   C     C_R   0.390046 0.609876 0.109382 -0.115157
C31   C     C_R   0.379244 0.633303 0.179141 -0.160662
C32   C     C_R   0.359708 0.733817 0.214466 0.110414
C33   C     C_R   0.346024 0.809804 0.176258 0.067982
C34   C     C_R   0.352267 0.761255 0.286169 0.018464
C35   C     C_R   0.323843 0.863531 0.318284 -0.003661
C36   C     C_R   0.309013 0.935859 0.278616 -0.093986
C37   C     C_R   0.320529 0.909529 0.209355 -0.221028
C38   C     C_R   0.371343 0.689985 0.327020 -0.210262
C39   C     C_R   0.320929 0.816340 0.427282 -0.248480
C40   C     C_R   0.359972 0.784680 0.105380 -0.087196
H16   H     H_    0.397336 0.612188 0.306576 0.141985
H17   H     H_    0.395292 0.665357 0.018626 0.134076
H18   H     H_    0.385481 0.570569 0.203522 0.123521
H19   H     H_    0.405990 0.532696 0.083538 0.131234
H20   H     H_    0.307087 0.968437 0.181601 0.149291
O11   O     O_R   0.203230 0.917310 0.915020 -0.542402
O12   O     O_R   0.535500 0.888690 0.048040 -0.536648
O13   O     O_R   0.711080 0.082610 0.085000 -0.526616
C41   C     C_R   0.366787 0.861894 0.064848 0.700836
O14   O     O_R   0.532630 0.905370 0.913230 -0.547732
O15   O     O_R   0.708190 0.099410 0.949230 -0.541740
C42   C     C_R   0.364205 0.883950 0.886599 0.735904
O16   O     O_R   0.206120 0.900510 0.050790 -0.541224
O17   O     O_3   0.375360 0.063570 0.011990 -0.364448
V3    V     V_3+5 0.648170 0.988200 0.997780 1.466696
O18   O     O_R   0.038240 0.111390 0.951940 -0.542959
C43   C     C_R   0.869745 0.137295 0.934420 0.692125
O19   O     O_R   0.041120 0.094710 0.086750 -0.539636
C44   C     C_R   0.873422 0.116246 0.113489 0.758036
V4    V     V_3+5 0.148810 0.011930 0.002180 1.460788
O20   O     O_3   0.871750 0.936430 0.988010 -0.376106
C45   C     C_1   0.211859 0.186069 0.200195 0.341490
N1    N     N_1   0.365600 0.157138 0.186366 -0.386101
S1    S     S_3+6 0.273514 0.016163 0.432814 -0.032240
O21   O     O_2   0.259336 0.022093 0.507142 -0.339559
O22   O     O_2   0.440240 0.079964 0.419094 -0.350100
O23   O     O_3   0.068475 0.059422 0.405392 -0.512508
H21   H     H_    0.068470 0.131979 0.425604 0.354014
S2    S     S_3+6 0.678158 0.466569 0.794220 -0.027995
O24   O     O_2   0.547377 0.423584 0.736297 -0.318591
O25   O     O_2   0.557428 0.525687 0.849421 -0.337751
O26   O     O_3   0.838819 0.545154 0.770278 -0.517942
H22   H     H_    0.917959 0.571094 0.810778 0.334280
C46   C     C_1   0.171614 0.370682 0.295049 0.345463
N2    N     N_1   0.305072 0.422694 0.307311 -0.393568

loop_
_geom_bond_atom_site_label_1
_geom_bond_atom_site_label_2
_ccdc_geom_bond_type
O18   V4    S    
V4    O20   S    
C46   N2    T    
C21   C22   D    
C21   C45   S    
C2    C28   S    
C1    O6    A    
O17   V3    S    
O19   C44   A    
C7    H5    S    
C6    C16   A    
C14   C15   A    
O12   C41   A    
C4    C6    S    
C13   C14   A    
O16   V4    S    
C9    S2    S    
O5    C3    A    
C19   C20   D    
H15   C36   S    
V2    O10   S    
C8    H6    S    
S2    O26   S    
C5    H3    S    
C29   C30   A    
O11   V4    S    
O13   C44   A    
O8    V2    S    
O26   H22   S    
C33   C40   A    
C26   H13   S    
S2    O25   D    
C8    C9    A    
C22   C44   S    
O7    V1    S    
O14   C42   A    
C32   C33   A    
O9    C4    A    
C34   C35   A    
O12   V3    S    
C28   C38   A    
C23   H10   S    
C24   H11   S    
C6    C17   A    
C32   C34   A    
O19   V4    S    
C12   C16   A    
C9    C10   A    
C19   C21   S    
S1    O21   D    
O4    C2    A    
C31   H18   S    
C31   C32   A    
C15   H7    S    
O2    C1    A    
C35   C36   A    
O15   C43   A    
S1    O22   D    
O15   V3    S    
C11   C18   A    
O18   C43   A    
C38   H16   S    
S2    O24   D    
O11   C42   A    
C16   H4    S    
C24   C42   S    
C30   H19   S    
H14   C39   S    
O17   V4    S    
O3    C4    A    
O1    V2    S    
C25   C26   D    
C11   C15   A    
O6    V2    S    
O9    V2    S    
C10   C12   A    
H1    C17   S    
C22   H9    S    
O2    V1    S    
C20   H8    S    
C28   C39   A    
C27   C39   A    
C23   C24   D    
C7    C18   A    
O1    C2    A    
C5    C13   A    
C41   O16   A    
O5    V1    S    
O8    C3    A    
O13   V3    S    
C19   C46   S    
C29   C40   A    
C1    C26   S    
C33   C37   A    
C3    C20   S    
C10   C11   A    
O4    V1    S    
O3    V1    S    
V1    O10   S    
S1    O23   S    
C30   C31   A    
O14   V3    S    
V3    O20   S    
C25   H12   S    
C37   H20   S    
O7    V2    S    
O23   H21   S    
C18   C43   S    
C36   C37   A    
C34   C38   A    
C29   H17   S    
C12   C13   A    
C5    C17   A    
C7    C8    A    
C27   S1    S    
C27   C35   A    
C40   C41   S    
C45   N1    T    
C23   C25   S    
H2    C14   S    
