data_mof_unit_54149.cif
_audit_creation_date              2012-12-10T21:00:44-0500
_audit_creation_method            fapswitch 2.2
_symmetry_space_group_name_H-M    P1
_symmetry_Int_Tables_number       1
_space_group_crystal_system       triclinic
_cell_length_a                    18.144014
_cell_length_b                    18.189565
_cell_length_c                    18.308084
_cell_angle_alpha                 119.971864
_cell_angle_beta                  89.888002
_cell_angle_gamma                 119.973994
_cell_volume                      4280.15618398

loop_
_atom_site_label
_atom_site_type_symbol
_atom_type_description
_atom_site_fract_x
_atom_site_fract_y
_atom_site_fract_z
_atom_type_partial_charge
C1    C     C_R   0.111475 0.220024 0.609757 0.845575
C2    C     C_R   0.888461 0.779965 0.390230 0.846093
C3    C     C_3   0.922283 0.405045 0.448611 -0.165747
C4    C     C_3   0.077707 0.594949 0.551393 -0.164555
C5    C     C_3   0.415888 0.964311 0.960289 -0.244753
C6    C     C_3   0.584052 0.035697 0.039668 -0.245334
C7    C     C_3   0.503478 0.036386 0.952197 0.514530
C8    C     C_3   0.496462 0.963634 0.047769 0.514100
C9    C     C_3   0.549998 0.102907 0.053220 -0.161546
C10   C     C_3   0.449951 0.897102 0.946741 -0.162282
C11   C     C_3   0.463105 0.031660 0.062906 -0.260800
C12   C     C_3   0.536837 0.968358 0.937048 -0.260469
C13   C     C_3   0.413814 0.441735 0.448970 -0.090365
C14   C     C_3   0.586193 0.558334 0.551037 -0.093437
C15   C     C_3   0.473746 0.402108 0.439916 -0.118773
C16   C     C_3   0.526263 0.597965 0.560095 -0.119399
C17   C     C_3   0.550710 0.499762 0.449303 -0.006242
C18   C     C_3   0.449294 0.500308 0.550701 -0.003471
C19   C     C_3   0.491683 0.539355 0.457492 -0.192529
C20   C     C_3   0.508323 0.460718 0.542516 -0.190107
C21   C     C_R   0.212754 0.180674 0.809526 -0.113042
C22   C     C_R   0.788025 0.820532 0.190126 -0.113736
C23   C     C_R   0.392751 0.781020 0.887888 0.892189
C24   C     C_R   0.607242 0.218983 0.112098 0.890956
C25   C     C_R   0.173924 0.132504 0.718392 -0.065181
C26   C     C_R   0.826407 0.868390 0.281303 -0.058900
C27   C     C_R   0.083896 0.099204 0.686831 -0.105944
C28   C     C_R   0.916053 0.900694 0.313016 -0.107229
C29   C     C_R   0.035481 0.114646 0.747623 0.494481
C30   C     C_R   0.964476 0.884591 0.252336 0.493400
C31   C     C_R   0.076620 0.162217 0.837769 -0.201715
C32   C     C_R   0.923708 0.837211 0.162151 -0.200772
C33   C     C_R   0.164505 0.194952 0.868348 -0.209259
C34   C     C_R   0.836237 0.805459 0.131424 -0.212076
C35   C     C_R   0.985638 0.943603 0.535638 -0.115512
C36   C     C_R   0.014068 0.056370 0.464321 -0.116759
C37   C     C_R   0.944522 0.892281 0.444834 -0.007908
C38   C     C_R   0.055272 0.107692 0.555119 -0.008871
C39   C     C_R   0.959008 0.949251 0.408392 0.114069
C40   C     C_R   0.040734 0.050702 0.591543 0.112871
C41   C     C_R   0.648741 0.635038 0.812371 -0.276885
C42   C     C_R   0.353469 0.365468 0.188959 -0.282555
C43   C     C_R   0.602943 0.571863 0.841856 0.496447
C44   C     C_R   0.398932 0.428929 0.159619 0.494334
C45   C     C_R   0.111442 0.501340 0.890237 0.822458
C46   C     C_R   0.888546 0.498650 0.109752 0.823054
C47   C     C_R   0.594088 0.616400 0.927267 -0.051011
C48   C     C_R   0.406097 0.384224 0.073393 -0.046256
C49   C     C_R   0.630210 0.722361 0.980722 -0.257536
C50   C     C_R   0.368991 0.277991 0.019240 -0.261923
C51   C     C_R   0.674385 0.785369 0.950843 -0.019005
C52   C     C_R   0.325278 0.214790 0.049032 -0.018992
C53   C     C_R   0.686116 0.741829 0.866357 -0.120125
C54   C     C_R   0.314971 0.258427 0.134210 -0.113805
C55   C     C_R   0.592890 0.553216 0.017855 -0.203651
C56   C     C_R   0.407190 0.447498 0.982831 -0.208784
C57   C     C_R   0.550357 0.499778 0.055940 -0.018726
C58   C     C_R   0.449703 0.500739 0.944566 -0.018592
C59   C     C_R   0.456412 0.446475 0.038775 0.084267
C60   C     C_R   0.543681 0.554178 0.961873 0.083886
C61   C     C_R   0.188848 0.826581 0.002358 -0.048863
C62   C     C_R   0.810725 0.173211 0.997240 -0.047952
C63   C     C_R   0.157284 0.748947 0.016784 -0.045652
C64   C     C_R   0.842417 0.251019 0.983026 -0.046115
C65   C     C_R   0.068213 0.660025 0.969618 0.121139
C66   C     C_R   0.931566 0.339780 0.030156 0.121697
C67   C     C_R   0.392345 0.500168 0.607726 0.817713
C68   C     C_R   0.607656 0.499863 0.392275 0.817226
C69   C     C_R   0.010739 0.650480 0.909279 -0.140817
C70   C     C_R   0.988984 0.348986 0.090248 -0.140870
C71   C     C_R   0.042554 0.728227 0.895053 -0.144032
C72   C     C_R   0.957042 0.271062 0.104262 -0.144445
C73   C     C_R   0.131549 0.816011 0.941333 -0.086240
C74   C     C_R   0.867973 0.183437 0.058015 -0.085771
C75   C     C_R   0.978640 0.572115 0.035221 -0.192041
C76   C     C_R   0.021319 0.427853 0.964741 -0.193228
C77   C     C_R   0.944172 0.496521 0.052412 -0.065644
C78   C     C_R   0.055789 0.503449 0.947553 -0.065667
C79   C     C_R   0.965460 0.422939 0.016263 -0.011227
C80   C     C_R   0.034466 0.577001 0.983667 -0.011215
C81   C     C_R   0.393936 0.499855 0.888496 0.877405
C82   C     C_R   0.606078 0.500257 0.111621 0.891407
C83   C     C_R   0.108929 0.500117 0.607630 0.786910
C84   C     C_R   0.891068 0.499880 0.392371 0.786814
C85   C     C_3   0.017231 0.430320 0.447820 -0.132484
C86   C     C_3   0.982759 0.569674 0.552184 -0.132606
C87   C     C_3   0.042941 0.525331 0.447954 -0.165836
C88   C     C_3   0.957050 0.474663 0.552049 -0.167174
C89   C     C_3   0.948808 0.499982 0.449474 0.038125
C90   C     C_3   0.051183 0.500012 0.550528 0.038340
H1    H     H_    0.077320 0.545985 0.404313 0.152032
H2    H     H_    0.922670 0.454010 0.595691 0.150925
H3    H     H_    0.195498 0.231808 0.938232 0.167120
H4    H     H_    0.805528 0.768783 0.061516 0.168141
H5    H     H_    0.280970 0.207193 0.835614 0.192289
H6    H     H_    0.720142 0.794741 0.163820 0.194953
H7    H     H_    0.040812 0.174564 0.885064 0.181150
H8    H     H_    0.959511 0.824322 0.114943 0.181291
H9    H     H_    0.975921 0.900377 0.563660 0.169405
H10   H     H_    0.023820 0.099607 0.436303 0.168727
H11   H     H_    0.656296 0.601080 0.747154 0.203700
H12   H     H_    0.347276 0.399529 0.254831 0.192117
H13   H     H_    0.620054 0.754765 0.044758 0.207149
H14   H     H_    0.378274 0.245522 0.954754 0.205340
H15   H     H_    0.032020 0.372963 0.405449 0.157527
H16   H     H_    0.967970 0.627031 0.594555 0.157822
H17   H     H_    0.664974 0.593609 0.030458 0.170344
H18   H     H_    0.335115 0.407163 0.970260 0.169751
H19   H     H_    0.155802 0.875658 0.929767 0.173191
H20   H     H_    0.843624 0.123642 0.069403 0.173105
H21   H     H_    0.257668 0.894738 0.038364 0.176150
H22   H     H_    0.741849 0.105178 0.961256 0.176156
H23   H     H_    0.202083 0.757541 0.063982 0.167711
H24   H     H_    0.797662 0.242677 0.936005 0.167223
H25   H     H_    0.941734 0.582542 0.872862 0.146331
H26   H     H_    0.058050 0.416789 0.126627 0.146086
H27   H     H_    0.998282 0.720337 0.848012 0.147788
H28   H     H_    0.001275 0.278685 0.151107 0.147310
H29   H     H_    0.963184 0.629185 0.063047 0.189832
H30   H     H_    0.036764 0.370775 0.936904 0.189783
H31   H     H_    0.857698 0.327051 0.405534 0.156492
H32   H     H_    0.142292 0.672943 0.594470 0.157115
H33   H     H_    0.346935 0.933840 0.925875 0.195996
H34   H     H_    0.653026 0.066221 0.074063 0.194745
H35   H     H_    0.433569 0.057902 0.115333 0.208774
H36   H     H_    0.566353 0.942119 0.884599 0.209341
H37   H     H_    0.453224 0.321884 0.389534 0.183363
H38   H     H_    0.546808 0.678196 0.610491 0.183037
H39   H     H_    0.342062 0.394981 0.408893 0.198681
H40   H     H_    0.657943 0.605057 0.591084 0.201017
H41   H     H_    0.486011 0.571471 0.421498 0.198033
H42   H     H_    0.513915 0.428608 0.578547 0.203021
O1    O     O_3   0.251620 0.500000 0.748430 -0.504531
O2    O     O_3   0.748380 0.500000 0.251570 -0.504263
O3    O     O_R   0.134680 0.560740 0.864590 -0.641938
O4    O     O_R   0.865320 0.439260 0.135410 -0.642009
O5    O     O_R   0.306670 0.439270 0.571150 -0.637467
O6    O     O_R   0.693330 0.560730 0.428850 -0.638651
O7    O     O_R   0.135450 0.268370 0.694460 -0.633301
O8    O     O_R   0.864550 0.731630 0.305540 -0.632202
O9    O     O_R   0.429670 0.731610 0.863510 -0.605849
O10   O     O_R   0.570330 0.268390 0.136490 -0.606701
O11   O     O_R   0.134680 0.268390 0.572240 -0.639205
O12   O     O_R   0.865320 0.731610 0.427760 -0.639908
O13   O     O_R   0.306670 0.731630 0.863510 -0.652442
O14   O     O_R   0.693330 0.268370 0.136490 -0.652644
O15   O     O_R   0.135450 0.439270 0.865360 -0.636090
O16   O     O_R   0.864550 0.560730 0.134640 -0.635863
O17   O     O_R   0.429670 0.560710 0.692610 -0.632351
O18   O     O_R   0.570330 0.439290 0.307390 -0.626916
O19   O     O_R   0.308540 0.439240 0.865360 -0.655073
O20   O     O_R   0.691460 0.560760 0.134640 -0.656340
O21   O     O_R   0.133580 0.439310 0.571150 -0.644551
O22   O     O_R   0.866420 0.560690 0.428850 -0.644289
O23   O     O_R   0.430770 0.560690 0.864590 -0.626754
O24   O     O_R   0.569230 0.439310 0.135410 -0.620319
O25   O     O_R   0.133580 0.560760 0.692610 -0.642649
O26   O     O_R   0.866420 0.439240 0.307390 -0.642684
Zn1   Zn    Zn3+2 0.207400 0.586780 0.791530 0.990443
Zn2   Zn    Zn3+2 0.792600 0.413220 0.208470 0.990306
Zn3   Zn    Zn3+2 0.208510 0.413230 0.792630 1.022909
Zn4   Zn    Zn3+2 0.791490 0.586770 0.207370 1.024537
Zn5   Zn    Zn3+2 0.383150 0.586740 0.791530 1.039433
Zn6   Zn    Zn3+2 0.616850 0.413260 0.208470 1.043011
Zn7   Zn    Zn3+2 0.207400 0.413250 0.618010 1.008886
Zn8   Zn    Zn3+2 0.792600 0.586750 0.381990 1.007910
C91   C     C_2   0.229937 0.119272 0.659512 0.923650
O27   O     O_2   0.196278 0.063120 0.578183 -0.617707
O28   O     O_R   0.322308 0.170665 0.697791 -0.746620
H43   H     H_    0.353280 0.155652 0.651525 0.381472
C92   C     C_2   0.770382 0.882588 0.340007 0.914367
O29   O     O_2   0.802892 0.934764 0.421228 -0.622400
O30   O     O_R   0.679327 0.836643 0.301716 -0.757048
H44   H     H_    0.648403 0.852393 0.347878 0.372120
S1    S     S_3+6 0.923896 0.076577 0.713154 0.021378
O31   O     O_2   0.861738 0.960109 0.653022 -0.285911
O32   O     O_2   0.894050 0.115748 0.792541 -0.313399
O33   O     O_3   0.919096 0.124950 0.656849 -0.558670
H45   H     H_    0.853988 0.090089 0.630114 0.406587
S2    S     S_3+6 0.075690 0.921791 0.287035 0.022658
O34   O     O_2   0.105917 0.883086 0.207852 -0.313026
O35   O     O_2   0.138220 0.038191 0.347927 -0.283671
O36   O     O_3   0.079304 0.872128 0.342496 -0.558824
H46   H     H_    0.144300 0.907379 0.370269 0.407385
C93   C     C_2   0.739983 0.806078 0.834331 0.978139
O37   O     O_2   0.718695 0.769769 0.754751 -0.636059
O38   O     O_R   0.816757 0.907095 0.894611 -0.786983
H47   H     H_    0.847656 0.942679 0.864546 0.367459
C94   C     C_2   0.261692 0.194112 0.166368 0.976247
O39   O     O_2   0.284243 0.229876 0.245734 -0.636082
O40   O     O_R   0.184092 0.093656 0.106496 -0.787331
H48   H     H_    0.153721 0.057941 0.136601 0.367378
S3    S     S_3+6 0.554875 0.437515 0.769125 0.001701
O41   O     O_2   0.567464 0.398387 0.820145 -0.283345
O42   O     O_2   0.455869 0.380983 0.725826 -0.324883
O43   O     O_3   0.603531 0.414830 0.689581 -0.588947
H49   H     H_    0.566870 0.338295 0.646808 0.392994
S4    S     S_3+6 0.449834 0.563900 0.234164 0.007030
O44   O     O_2   0.402415 0.583650 0.301773 -0.333399
O45   O     O_2   0.445756 0.608250 0.184864 -0.268221
O46   O     O_3   0.558286 0.622187 0.286973 -0.581330
H50   H     H_    0.574987 0.685435 0.345266 0.382656
C95   C     C_2   0.700808 0.893508 0.006888 1.005072
O47   O     O_2   0.695634 0.933804 0.971941 -0.660125
O48   O     O_R   0.727533 0.947710 0.099927 -0.783985
H51   H     H_    0.741934 0.019891 0.130929 0.339323
C96   C     C_2   0.298116 0.106366 0.992206 1.005678
O49   O     O_2   0.303430 0.065481 0.026447 -0.660221
O50   O     O_R   0.270607 0.052569 0.899208 -0.785864
H52   H     H_    0.255929 0.980212 0.867667 0.339696
S5    S     S_3+6 0.509221 0.086036 0.888082 0.027026
O51   O     O_2   0.602811 0.136835 0.883271 -0.326834
O52   O     O_2   0.442585 0.998496 0.795513 -0.274291
O53   O     O_3   0.484856 0.173830 0.937055 -0.560929
H53   H     H_    0.494591 0.202471 0.901253 0.389723
S6    S     S_3+6 0.490619 0.914060 0.111972 0.027671
O54   O     O_2   0.558012 0.001428 0.204213 -0.274333
O55   O     O_2   0.397316 0.864487 0.117682 -0.326129
O56   O     O_3   0.513687 0.825149 0.062463 -0.560629
H54   H     H_    0.503271 0.796106 0.097996 0.390226

loop_
_geom_bond_atom_site_label_1
_geom_bond_atom_site_label_2
_ccdc_geom_bond_type
O2    Zn2   S    
C92   O29   D    
C63   C65   A    
C50   H14   S    
C54   C94   S    
C87   H1    S    
C67   O17   A    
C52   C96   S    
C2    O12   A    
O46   H50   S    
C68   O6    A    
C91   O28   S    
C76   C79   A    
C6    H34   S    
C95   O47   D    
O14   Zn2   S    
C6    C9    S    
O5    Zn7   S    
O33   H45   S    
S1    O32   D    
C4    C87   S    
O30   H44   S    
C25   C91   S    
C44   S4    S    
C66   C79   S    
C23   O13   A    
C76   H30   S    
C21   C25   A    
C13   C18   S    
C11   H35   S    
C76   C78   A    
C5    C11   S    
C16   C19   S    
C6    C12   S    
O13   Zn1   S    
C86   C88   S    
C93   O38   S    
C12   H36   S    
C58   C60   A    
C42   H12   S    
C27   C29   A    
C94   O40   S    
C61   C73   A    
O28   H43   S    
C49   C51   A    
C69   C71   A    
C53   C93   S    
C56   H18   S    
C62   C64   A    
C47   C60   S    
C84   O22   A    
O11   Zn7   S    
C88   H2    S    
C51   C95   S    
S3    O42   D    
C50   C52   A    
O2    Zn8   S    
S4    O44   D    
O17   Zn5   S    
C56   C58   A    
C30   C32   A    
C75   C80   A    
C18   C20   S    
C1    O7    A    
S2    O36   S    
C82   O24   A    
C48   C50   A    
O25   Zn1   S    
C65   C80   S    
C15   H37   S    
C55   C60   A    
O26   Zn2   S    
C41   C43   A    
C14   C17   S    
C86   H16   S    
C42   C44   A    
C29   S1    S    
C85   H15   S    
O1    Zn5   S    
C47   C49   A    
C52   C54   A    
S1    O33   S    
C4    C90   S    
C85   C87   S    
C19   H41   S    
C7    C12   S    
C22   C34   A    
C63   H23   S    
C46   O16   A    
C45   O3    A    
C64   H24   S    
C71   H27   S    
C4    H32   S    
C96   O49   D    
C14   C20   S    
O7    Zn3   S    
O3    Zn1   S    
S6    O54   D    
C72   C74   A    
O15   Zn3   S    
C58   C81   S    
C24   O10   A    
O56   H54   S    
C5    C7    S    
C84   O26   A    
O53   H53   S    
C13   C19   S    
C6    C8    S    
C21   H5    S    
C28   C39   S    
C70   H26   S    
C18   C67   S    
C81   O19   A    
C36   C39   A    
O40   H48   S    
C75   H29   S    
C55   H17   S    
C15   C20   S    
O1    Zn1   S    
C64   C66   A    
C20   H42   S    
O36   H46   S    
C49   H13   S    
C1    O11   A    
O1    Zn7   S    
C70   C72   A    
C95   O48   S    
O8    Zn4   S    
C33   H3    S    
S5    O51   D    
C83   O25   A    
C27   C40   S    
C29   C31   A    
S3    O43   S    
S4    O46   S    
C31   C33   A    
O50   H52   S    
C77   C79   A    
C62   H22   S    
C36   H10   S    
C44   C48   A    
C9    C11   S    
C41   C53   A    
C45   C78   S    
C10   C12   S    
C1    C38   S    
C16   C18   S    
S5    O52   D    
C88   C90   S    
C26   C92   S    
O9    Zn5   S    
C13   C15   S    
C14   C16   S    
C3    C85   S    
C25   C27   A    
C84   C89   S    
C72   H28   S    
C36   C38   A    
C61   H21   S    
O21   Zn7   S    
C91   O27   D    
C4    C86   S    
S2    O34   D    
C48   C59   S    
C71   C73   A    
C14   H40   S    
C41   H11   S    
C7    C9    S    
C83   C90   S    
O48   H51   S    
C69   H25   S    
C17   C68   S    
C30   S2    S    
S2    O35   D    
C35   C37   A    
C3    C88   S    
C45   O15   A    
C22   H6    S    
C61   C63   A    
O22   Zn8   S    
C34   H4    S    
S6    O55   D    
O43   H49   S    
C8    S6    S    
C86   C89   S    
O1    Zn3   S    
C74   H20   S    
C46   C77   S    
C7    S5    S    
C85   C90   S    
C9    C24   S    
C73   H19   S    
C83   O21   A    
C31   H7    S    
C23   O9    A    
C10   C23   S    
C92   O30   S    
C35   H9    S    
O18   Zn6   S    
C5    H33   S    
C26   C28   A    
C81   O23   A    
C56   C59   A    
C3    C89   S    
C43   S3    S    
S6    O56   S    
O23   Zn5   S    
C55   C57   A    
C35   C40   A    
O16   Zn4   S    
C5    C10   S    
C37   C39   A    
S1    O31   D    
C24   O14   A    
C42   C54   A    
O10   Zn6   S    
C2    C37   S    
O19   Zn3   S    
C93   O37   D    
C66   C70   A    
C38   C40   A    
C32   H8    S    
C8    C11   S    
C65   C69   A    
C28   C30   A    
C68   O18   A    
C17   C19   S    
O2    Zn6   S    
C78   C80   A    
C16   H38   S    
C94   O39   D    
C67   O5    A    
C82   O20   A    
C57   C59   A    
O6    Zn8   S    
C46   O4    A    
O4    Zn2   S    
O2    Zn4   S    
O38   H47   S    
S5    O53   S    
C21   C33   A    
O24   Zn6   S    
C8    C10   S    
S3    O41   D    
C22   C26   A    
C75   C77   A    
O12   Zn8   S    
C96   O50   S    
C87   C89   S    
C13   H39   S    
C57   C82   S    
C62   C74   A    
S4    O45   D    
C2    O8    A    
C51   C53   A    
C15   C17   S    
C43   C47   A    
O20   Zn4   S    
C3    H31   S    
C32   C34   A    
