data_mof_unit_52447.cif
_audit_creation_date              2012-12-10T17:05:17-0500
_audit_creation_method            fapswitch 2.2
_symmetry_space_group_name_H-M    P1
_symmetry_Int_Tables_number       1
_space_group_crystal_system       triclinic
_cell_length_a                    10.039029
_cell_length_b                    10.697643
_cell_length_c                    15.44853
_cell_angle_alpha                 89.880645
_cell_angle_beta                  67.485742
_cell_angle_gamma                 88.869175
_cell_volume                      1532.30534161

loop_
_atom_site_label
_atom_site_type_symbol
_atom_type_description
_atom_site_fract_x
_atom_site_fract_y
_atom_site_fract_z
_atom_type_partial_charge
C1    C     C_R   0.495789 0.737379 0.504849 0.976103
C2    C     C_R   0.708575 0.388353 0.042474 0.127481
C3    C     C_R   0.574405 0.450079 0.091573 0.014667
C4    C     C_R   0.409548 0.497414 0.676266 0.865726
C5    C     C_R   0.808726 0.372459 0.084842 -0.217482
C6    C     C_R   0.774754 0.414760 0.176157 -0.236381
C7    C     C_R   0.555350 0.512886 0.175396 0.294517
C8    C     C_2   0.569193 0.065294 0.550659 0.445334
C9    C     C_2   0.505709 0.130068 0.501760 -0.393612
C10   C     C_2   0.579538 0.930555 0.541856 -0.181195
C11   C     C_2   0.480242 0.868356 0.522663 -0.398140
C12   C     C_R   0.404684 0.443107 0.916777 0.089457
C13   C     C_2   0.111955 0.438160 0.439533 -0.142105
C14   C     C_2   0.959643 0.429953 0.444401 0.423697
C15   C     C_R   0.500392 0.262562 0.502048 0.975594
C16   C     C_R   0.590411 0.500340 0.323743 0.930772
C17   C     C_R   0.352516 0.484510 0.778134 -0.052318
C18   C     C_R   0.646295 0.482835 0.222325 -0.128826
C19   C     C_R   0.160604 0.503291 0.931362 -0.194408
C20   C     C_R   0.207037 0.508061 0.833971 -0.188546
C21   C     C_R   0.448577 0.448810 0.819638 -0.211290
C22   C     C_R   0.259391 0.474880 0.973196 0.157303
C23   C     C_R   0.504999 0.417267 0.958842 0.059484
C24   C     C_R   0.465931 0.448520 0.054201 0.082616
C25   C     C_R   0.318492 0.469220 0.110373 -0.114595
C26   C     C_R   0.216189 0.480851 0.070305 -0.213337
C27   C     C_R   0.642267 0.361323 0.909313 -0.204081
C28   C     C_R   0.740460 0.343306 0.951998 -0.193744
Cl1   Cl    Cl    0.644355 0.134966 0.624945 -0.593086
Cl2   Cl    Cl    0.929661 0.322214 0.368616 -0.593290
Cl3   Cl    Cl    0.439754 0.646909 0.213086 -0.604879
H1    H     H_    0.909924 0.322338 0.049099 0.163993
H2    H     H_    0.846858 0.391806 0.211205 0.219762
H3    H     H_    0.049100 0.526610 0.973853 0.155906
H4    H     H_    0.130756 0.534077 0.802649 0.162405
H5    H     H_    0.560292 0.433100 0.775039 0.171578
H6    H     H_    0.280475 0.473356 0.185941 0.195006
H7    H     H_    0.673284 0.324520 0.839147 0.174219
H8    H     H_    0.670541 0.882846 0.550062 0.203800
H9    H     H_    0.381452 0.913072 0.523915 0.170638
H10   H     H_    0.195679 0.387047 0.383746 0.193276
H11   H     H_    0.068337 0.540122 0.555482 0.151245
H12   H     H_    0.842846 0.296449 0.913342 0.158066
H13   H     H_    0.104465 0.499859 0.115011 0.165271
H14   H     H_    0.460771 0.085718 0.456222 0.134445
H15   H     H_    0.873609 0.566648 0.538566 0.122791
N1    N     N_2   0.148330 0.498670 0.499030 -0.200208
N2    N     N_2   0.852680 0.498640 0.499000 -0.202352
O1    O     O_R   0.386950 0.680940 0.500010 -0.593102
O2    O     O_R   0.613110 0.680900 0.499990 -0.617607
O3    O     O_R   0.322330 0.500030 0.632270 -0.623617
O4    O     O_R   0.548480 0.499990 0.632240 -0.608526
O5    O     O_R   0.386890 0.319100 0.500010 -0.621987
O6    O     O_R   0.613050 0.319060 0.499990 -0.511026
O7    O     O_R   0.451520 0.500010 0.367760 -0.577538
O8    O     O_R   0.677670 0.499970 0.367730 -0.584127
Zn1   Zn    Zn3+2 0.349000 0.500030 0.500020 0.986826
Zn2   Zn    Zn3+2 0.651000 0.499970 0.499980 1.029428

loop_
_geom_bond_atom_site_label_1
_geom_bond_atom_site_label_2
_ccdc_geom_bond_type
C14   N2    D    
C23   C24   A    
C16   O8    A    
C9    H14   S    
O3    Zn1   S    
C23   C27   A    
N1    Zn1   S    
C1    O2    A    
C28   H12   S    
C19   C20   A    
C1    C11   S    
C6    H2    S    
C7    C18   A    
C17   C20   A    
C13   H10   S    
C2    C3    A    
C9    C15   S    
C16   O7    A    
C26   H13   S    
C21   H5    S    
C13   C14   S    
N2    Zn2   S    
C12   C23   A    
C3    C24   A    
C5    C6    A    
O4    Zn2   S    
C4    O4    A    
C4    C17   S    
C15   O5    A    
C8    C10   S    
C14   Cl2   S    
C3    C7    A    
H11   N1    S    
O7    Zn1   S    
C22   C26   A    
C11   H9    S    
C6    C18   A    
H15   N2    S    
C2    C5    A    
C7    Cl3   S    
C10   C11   D    
C8    Cl1   S    
C27   H7    S    
O2    Zn2   S    
C15   O6    A    
C12   C22   A    
C19   C22   A    
O1    Zn1   S    
C24   C25   A    
C16   C18   S    
O6    Zn2   S    
C27   C28   A    
C13   N1    D    
O5    Zn1   S    
C8    C9    D    
C2    C28   A    
C4    O3    A    
C25   H6    S    
C25   C26   A    
C20   H4    S    
C1    O1    A    
C12   C21   A    
C5    H1    S    
C17   C21   A    
O8    Zn2   S    
C10   H8    S    
C19   H3    S    
