data_mof_unit_50784.cif
_audit_creation_date              2012-12-11T15:35:28-0500
_audit_creation_method            fapswitch 2.2
_symmetry_space_group_name_H-M    P1
_symmetry_Int_Tables_number       1
_space_group_crystal_system       triclinic
_cell_length_a                    17.404577
_cell_length_b                    24.274872
_cell_length_c                    14.870726
_cell_angle_alpha                 90.403253
_cell_angle_beta                  124.599865
_cell_angle_gamma                 89.568381
_cell_volume                      5171.42611351

loop_
_atom_site_label
_atom_site_type_symbol
_atom_type_description
_atom_site_fract_x
_atom_site_fract_y
_atom_site_fract_z
_atom_type_partial_charge
C1    C     C_R   0.309089 0.123236 0.909764 -0.125929
C2    C     C_R   0.587934 0.137127 0.909729 -0.130343
C3    C     C_R   0.268735 0.545685 0.268778 -0.142650
C4    C     C_3   0.987041 0.997762 0.252404 -0.449821
C5    C     C_3   0.891788 0.988111 0.144650 -0.892610
C6    C     C_3   0.959420 0.091257 0.305658 -0.308035
C7    C     C_3   0.972102 0.136462 0.386549 -1.016683
C8    C     C_3   0.475642 0.494237 0.251264 -0.433872
C9    C     C_3   0.520021 0.518732 0.195975 -0.935026
C10   C     C_3   0.458851 0.590242 0.308569 -0.293426
C11   C     C_3   0.471162 0.635576 0.388872 -1.029416
C12   C     C_R   0.058750 0.347053 0.910920 -0.140063
C13   C     C_R   0.088447 0.636720 0.909749 -0.131039
C14   C     C_R   0.544915 0.998554 0.719042 0.040331
C15   C     C_R   0.044555 0.498546 0.718638 0.040123
C16   C     C_R   0.824998 0.999277 0.295660 0.036485
C17   C     C_R   0.324725 0.499341 0.299612 -0.012515
C18   C     C_R   0.672905 0.153447 0.000531 0.041617
C19   C     C_R   0.619932 0.815900 0.002357 0.048811
C20   C     C_R   0.173801 0.652623 0.000507 0.043954
C21   C     C_R   0.351282 0.848461 0.907729 -0.128067
C22   C     C_R   0.119954 0.315907 0.002371 0.048751
C23   C     C_3   0.064615 0.937316 0.505624 -0.432636
C24   C     C_3   0.039828 0.024825 0.578412 -0.387263
C25   C     C_3   0.562701 0.437101 0.511691 -0.427012
C26   C     C_3   0.540579 0.526696 0.581260 -0.388603
C27   C     C_3   0.961548 0.938347 0.412996 -0.467187
C28   C     C_3   0.938376 0.025659 0.482929 -0.436105
C29   C     C_3   0.459531 0.438399 0.420380 -0.468457
C30   C     C_3   0.438397 0.526939 0.487446 -0.392015
C31   C     C_3   0.091945 0.028359 0.449065 -0.519786
C32   C     C_R   0.809091 0.623241 0.909767 -0.125760
C33   C     C_3   0.590894 0.525888 0.449229 -0.457066
C34   C     C_3   0.099782 0.997005 0.544341 0.366808
C35   C     C_3   0.599108 0.496849 0.546848 0.343530
C36   C     C_3   0.926221 0.999119 0.379874 0.343879
C37   C     C_3   0.425382 0.499327 0.384918 0.289698
C38   C     C_R   0.444181 0.847416 0.090578 -0.123891
C39   C     C_R   0.402174 0.124468 0.093555 -0.126415
C40   C     C_R   0.944344 0.347406 0.090617 -0.123515
C41   C     C_R   0.902169 0.624462 0.093555 -0.126144
C42   C     C_3   0.987959 0.029732 0.346071 0.431066
C43   C     C_R   0.851432 0.348419 0.907776 -0.127872
C44   C     C_3   0.486528 0.528550 0.348729 0.416602
C45   C     C_R   0.290593 0.734034 0.900834 -0.172897
C46   C     C_R   0.158637 0.183461 0.906955 -0.170075
C47   C     C_R   0.790659 0.234088 0.901074 -0.172613
C48   C     C_R   0.658621 0.683450 0.906952 -0.169732
C49   C     C_R   0.733165 0.195393 0.901457 -0.167684
C50   C     C_R   0.611366 0.729715 0.906482 -0.171790
C51   C     C_R   0.233659 0.694924 0.901262 -0.168983
C52   C     C_R   0.111384 0.229725 0.906490 -0.171793
C53   C     C_R   0.745225 0.182310 0.000367 0.150531
C54   C     C_R   0.678108 0.135335 0.091562 -0.141402
C55   C     C_R   0.644620 0.758007 0.004481 0.142588
C56   C     C_R   0.246128 0.681473 0.000243 0.152115
C57   C     C_R   0.144641 0.258016 0.004493 0.142795
C58   C     C_R   0.826200 0.198708 0.099321 -0.198010
C59   C     C_R   0.712597 0.733155 0.104029 -0.174432
C60   C     C_R   0.327140 0.697905 0.099135 -0.200955
C61   C     C_R   0.212614 0.233161 0.104037 -0.174907
C62   C     C_R   0.384991 0.735954 0.098739 -0.165203
C63   C     C_R   0.259908 0.187003 0.104390 -0.170546
C64   C     C_R   0.884666 0.236261 0.098967 -0.163442
C65   C     C_R   0.648784 0.848879 0.092131 -0.137964
C66   C     C_R   0.759894 0.686996 0.104386 -0.168691
C67   C     C_R   0.359131 0.759286 0.999430 0.144997
C68   C     C_R   0.239936 0.166057 0.005243 0.143685
C69   C     C_R   0.859283 0.259316 0.999636 0.143714
C70   C     C_R   0.739925 0.666049 0.005242 0.143762
C71   C     C_R   0.600487 0.947968 0.621747 -0.171301
C72   C     C_R   0.606289 0.047663 0.627725 -0.170290
C73   C     C_R   0.100314 0.447967 0.621541 -0.170375
C74   C     C_R   0.106080 0.547666 0.627513 -0.169817
C75   C     C_R   0.604328 0.948263 0.531556 -0.176140
C76   C     C_R   0.178898 0.634656 0.091580 -0.139204
C77   C     C_R   0.609357 0.048031 0.536869 -0.177386
C78   C     C_R   0.104418 0.448263 0.531544 -0.175851
C79   C     C_R   0.109399 0.548035 0.536839 -0.177427
C80   C     C_R   0.597734 0.998506 0.481604 0.142050
C81   C     C_R   0.097883 0.498507 0.481631 0.141695
C82   C     C_R   0.547952 0.045197 0.303857 -0.143202
C83   C     C_R   0.545680 0.953986 0.301566 -0.124027
C84   C     C_R   0.048024 0.545197 0.303880 -0.142584
C85   C     C_R   0.045755 0.453987 0.301594 -0.123147
C86   C     C_R   0.589908 0.997907 0.661260 0.147039
C87   C     C_R   0.148832 0.348894 0.092149 -0.136445
C88   C     C_R   0.089595 0.497905 0.660927 0.147254
C89   C     C_R   0.244203 0.952407 0.701421 -0.145777
C90   C     C_R   0.243078 0.044839 0.697580 -0.162881
C91   C     C_R   0.744065 0.452317 0.701974 -0.142959
C92   C     C_R   0.742963 0.544791 0.697782 -0.162657
C93   C     C_R   0.312475 0.136494 0.003168 0.039909
C94   C     C_R   0.384319 0.815973 0.998988 0.044796
C95   C     C_R   0.812470 0.636491 0.003169 0.039979
C96   C     C_R   0.884592 0.315936 0.999067 0.045028
C97   C     C_R   0.563113 0.999331 0.366587 0.043553
C98   C     C_R   0.558748 0.847053 0.910914 -0.139486
C99   C     C_R   0.063251 0.499332 0.366627 0.044067
C100  C     C_R   0.195125 0.997734 0.641073 0.029661
C101  C     C_R   0.694769 0.497626 0.642055 0.027872
C102  C     C_R   0.511039 0.044672 0.741294 -0.123938
C103  C     C_R   0.517379 0.953212 0.749670 -0.130223
C104  C     C_R   0.010689 0.544660 0.740903 -0.123823
C105  C     C_R   0.017198 0.453203 0.749464 -0.130697
C106  C     C_R   0.768126 0.953028 0.258259 -0.157269
C107  C     C_R   0.768973 0.045625 0.266102 -0.154549
C108  C     C_R   0.268131 0.453022 0.260022 -0.140007
H1    H     H_    0.251049 0.127922 0.825776 0.090928
H2    H     H_    0.896971 0.002355 0.505866 0.166610
H3    H     H_    0.421106 0.418906 0.451452 0.174547
H4    H     H_    0.398278 0.503855 0.512434 0.161928
H5    H     H_    0.949250 0.913478 0.343041 0.167945
H6    H     H_    0.911843 0.068364 0.469659 0.176814
H7    H     H_    0.445908 0.411867 0.351732 0.152741
H8    H     H_    0.410966 0.569351 0.473577 0.170992
H9    H     H_    0.139133 0.007713 0.430955 0.141785
H10   H     H_    0.122560 0.069998 0.475732 0.170497
H11   H     H_    0.634819 0.502672 0.429302 0.156893
H12   H     H_    0.311784 0.835411 0.823320 0.081834
H13   H     H_    0.623399 0.567226 0.473696 0.157147
H14   H     H_    0.273673 0.748349 0.822868 0.103719
H15   H     H_    0.136847 0.165532 0.829196 0.104762
H16   H     H_    0.774116 0.248178 0.823139 0.103666
H17   H     H_    0.636830 0.665516 0.829195 0.104772
H18   H     H_    0.675573 0.179567 0.823917 0.101800
H19   H     H_    0.555057 0.745734 0.828438 0.104904
H20   H     H_    0.176059 0.679105 0.823720 0.101988
H21   H     H_    0.055078 0.245746 0.828447 0.104923
H22   H     H_    0.840822 0.186933 0.177303 0.129855
H23   H     H_    0.751056 0.627943 0.825782 0.090927
H24   H     H_    0.736373 0.751877 0.181777 0.104148
H25   H     H_    0.342118 0.685814 0.177125 0.129798
H26   H     H_    0.236385 0.251880 0.181787 0.104123
H27   H     H_    0.441920 0.751666 0.176716 0.105282
H28   H     H_    0.318157 0.172067 0.182272 0.106506
H29   H     H_    0.941646 0.251932 0.176952 0.104995
H30   H     H_    0.818144 0.672063 0.182268 0.106514
H31   H     H_    0.595170 0.908645 0.651397 0.107806
H32   H     H_    0.606539 0.086752 0.663219 0.104103
H33   H     H_    0.094926 0.408643 0.651130 0.107717
H34   H     H_    0.811909 0.335351 0.823377 0.081754
H35   H     H_    0.106237 0.586753 0.662952 0.103963
H36   H     H_    0.490389 0.833677 0.174008 0.081666
H37   H     H_    0.429449 0.129850 0.178726 0.093017
H38   H     H_    0.990602 0.333699 0.174062 0.081468
H39   H     H_    0.929440 0.629835 0.178729 0.093098
H40   H     H_    0.602078 0.909050 0.495379 0.105891
H41   H     H_    0.611078 0.087426 0.504683 0.105227
H42   H     H_    0.102272 0.409051 0.495427 0.105830
H43   H     H_    0.111180 0.587429 0.504696 0.105170
H44   H     H_    0.566608 0.087236 0.331997 0.084599
H45   H     H_    0.072948 0.912365 0.573231 0.164621
H46   H     H_    0.561490 0.911393 0.326292 0.082657
H47   H     H_    0.066688 0.587237 0.332010 0.084319
H48   H     H_    0.061576 0.411393 0.326313 0.082404
H49   H     H_    0.232420 0.909410 0.678228 0.088207
H50   H     H_    0.227319 0.086867 0.668602 0.088349
H51   H     H_    0.732071 0.409283 0.679065 0.088017
H52   H     H_    0.727027 0.586785 0.668592 0.087950
H53   H     H_    0.509713 0.086112 0.715920 0.083315
H54   H     H_    0.528834 0.910248 0.741940 0.093640
H55   H     H_    0.009078 0.586076 0.715230 0.083341
H56   H     H_    0.046842 0.001810 0.647342 0.165710
H57   H     H_    0.028663 0.410237 0.741753 0.093849
H58   H     H_    0.787582 0.910052 0.270894 0.096000
H59   H     H_    0.790188 0.086718 0.295779 0.097747
H60   H     H_    0.287434 0.410028 0.273355 0.095843
H61   H     H_    0.289296 0.586780 0.298857 0.098869
H62   H     H_    0.727827 0.147422 0.174849 0.088708
H63   H     H_    0.685460 0.835849 0.176149 0.080631
H64   H     H_    0.229304 0.646265 0.174962 0.089299
H65   H     H_    0.185567 0.335883 0.176182 0.079863
H66   H     H_    0.513214 0.832446 0.827830 0.082226
H67   H     H_    0.571542 0.413604 0.581094 0.165955
H68   H     H_    0.555415 0.151155 0.827237 0.082662
H69   H     H_    0.013209 0.332442 0.827841 0.082545
H70   H     H_    0.056063 0.650770 0.827305 0.082743
H71   H     H_    0.105097 0.916821 0.477738 0.156336
H72   H     H_    0.063184 0.067645 0.607963 0.149496
H73   H     H_    0.601809 0.415024 0.483569 0.156135
H74   H     H_    0.564321 0.569725 0.607935 0.148272
H75   H     H_    0.854494 0.953866 0.152780 0.260717
H76   H     H_    0.847461 0.025573 0.115294 0.260344
H77   H     H_    0.902779 0.975540 0.080781 0.254799
H78   H     H_    0.548883 0.505316 0.652407 0.164888
H79   H     H_    0.030521 0.020660 0.232213 0.193996
H80   H     H_    0.022327 0.957130 0.281466 0.198737
H81   H     H_    0.906530 0.144647 0.379995 0.245867
H82   H     H_    0.027812 0.127850 0.472655 0.267994
H83   H     H_    0.990357 0.175834 0.365482 0.254614
H84   H     H_    0.002278 0.104844 0.276020 0.188724
H85   H     H_    0.886715 0.093410 0.232903 0.183317
H86   H     H_    0.476472 0.552902 0.140495 0.261498
H87   H     H_    0.591829 0.533633 0.257093 0.260491
H88   H     H_    0.523842 0.486583 0.145104 0.263320
H89   H     H_    0.923098 0.917321 0.442499 0.168599
H90   H     H_    0.508186 0.452999 0.280212 0.202715
H91   H     H_    0.400499 0.487546 0.186507 0.200772
H92   H     H_    0.406975 0.642624 0.385783 0.249449
H93   H     H_    0.530424 0.628094 0.473897 0.269540
H94   H     H_    0.485295 0.675415 0.364627 0.252862
H95   H     H_    0.504222 0.604436 0.283174 0.211425
H96   H     H_    0.386947 0.591985 0.233447 0.177917
N1    N     N_R   0.392140 0.102630 0.941800 -0.041359
N2    N     N_R   0.525160 0.972040 0.206160 -0.038711
N3    N     N_R   0.025160 0.527960 0.206160 -0.038344
N4    N     N_R   0.025160 0.472040 0.206160 -0.038767
N5    N     N_R   0.317870 0.971120 0.792790 -0.034397
N6    N     N_R   0.317870 0.028880 0.792790 -0.033904
N7    N     N_R   0.817870 0.471120 0.792790 -0.034516
N8    N     N_R   0.817870 0.528880 0.792790 -0.033751
N9    N     N_R   0.473480 0.027920 0.793480 -0.038072
N10   N     N_R   0.473480 0.972080 0.793480 -0.039687
N11   N     N_R   0.973480 0.527920 0.793480 -0.038149
N12   N     N_R   0.392140 0.897370 0.941800 -0.038876
N13   N     N_R   0.973480 0.472080 0.793480 -0.039749
N14   N     N_R   0.681610 0.971120 0.207570 -0.033496
N15   N     N_R   0.681610 0.028880 0.207570 -0.033453
N16   N     N_R   0.181610 0.471120 0.207570 -0.034460
N17   N     N_R   0.181610 0.528880 0.207570 -0.034173
N18   N     N_R   0.605410 0.102620 0.056870 -0.036153
N19   N     N_R   0.605410 0.897380 0.056870 -0.035215
N20   N     N_R   0.105410 0.602620 0.056870 -0.037216
N21   N     N_R   0.105410 0.397380 0.056870 -0.036178
N22   N     N_R   0.549680 0.896430 0.944180 -0.036735
N23   N     N_R   0.892140 0.602630 0.941800 -0.041339
N24   N     N_R   0.549680 0.103570 0.944180 -0.037623
N25   N     N_R   0.049680 0.396430 0.944180 -0.037175
N26   N     N_R   0.049680 0.603570 0.944180 -0.037853
N27   N     N_R   0.892140 0.397370 0.941800 -0.038849
N28   N     N_R   0.450890 0.896450 0.057150 -0.039053
N29   N     N_R   0.450890 0.103550 0.057150 -0.041991
N30   N     N_R   0.950890 0.396450 0.057150 -0.039027
N31   N     N_R   0.950890 0.603550 0.057150 -0.042117
N32   N     N_R   0.525160 0.027960 0.206160 -0.038337
Ni1   Ni    Ni4+2 0.433410 0.064680 0.868830 0.213278
Ni2   Ni    Ni4+2 0.433410 0.935320 0.868830 0.207122
Ni3   Ni    Ni4+2 0.933410 0.564680 0.868830 0.213013
Ni4   Ni    Ni4+2 0.933410 0.435320 0.868830 0.206874
Ni5   Ni    Ni4+2 0.565650 0.934380 0.131170 0.204402
Ni6   Ni    Ni4+2 0.565650 0.065620 0.131170 0.208435
Ni7   Ni    Ni4+2 0.065650 0.434380 0.131170 0.203905
Ni8   Ni    Ni4+2 0.065650 0.565620 0.131170 0.207807

loop_
_geom_bond_atom_site_label_1
_geom_bond_atom_site_label_2
_ccdc_geom_bond_type
C103  N10   A    
C74   H35   S    
N22   Ni2   S    
C31   C42   S    
C55   C59   A    
C80   C97   S    
C2    C18   A    
C26   H78   S    
C54   H62   S    
C36   C42   S    
C27   H89   S    
N4    Ni7   S    
C5    H77   S    
C20   C56   S    
C69   C96   S    
C22   C57   S    
N18   Ni6   S    
N19   N22   A    
C2    N24   A    
C12   N25   A    
C73   C88   A    
C83   H46   S    
C73   H33   S    
N9    N10   A    
C76   N20   A    
C49   H18   S    
C62   C67   A    
C65   H63   S    
C52   H21   S    
C106  H58   S    
C4    H79   S    
N2    N32   A    
N10   Ni2   S    
C91   C101  A    
C83   N2    A    
C82   N32   A    
N11   N13   A    
C59   C66   A    
C98   H66   S    
C84   H47   S    
C43   N27   A    
C54   N18   A    
C21   C94   A    
C45   C51   A    
C13   H70   S    
C13   N26   A    
C12   C22   A    
C20   C76   A    
C60   C62   A    
C51   C56   A    
C11   H93   S    
N14   Ni5   S    
N32   Ni6   S    
C76   H64   S    
C11   H92   S    
C39   C93   A    
C16   C107  A    
C1    H1    S    
C48   H17   S    
C8    H90   S    
C33   C35   S    
C47   C69   A    
C8    C9    S    
C87   N21   A    
C66   H30   S    
C50   C55   A    
C24   H72   S    
C67   C94   S    
C34   C100  S    
C73   C78   A    
C7    H82   S    
C3    C17   A    
C23   C27   S    
C15   C104  A    
N27   N30   A    
C1    N1    A    
C10   H95   S    
C5    H76   S    
C91   H51   S    
C18   C53   S    
C16   C106  A    
N30   Ni7   S    
C2    H68   S    
C48   C50   A    
C12   H69   S    
C29   H7    S    
C3    N17   A    
C84   N3    A    
C26   C30   S    
C33   H13   S    
C84   C99   A    
C7    H83   S    
N26   Ni3   S    
C24   H56   S    
C38   H36   S    
C40   C96   A    
C90   C100  A    
N16   N17   A    
C19   C98   A    
C25   H73   S    
C61   H26   S    
N5    N6    A    
C64   H29   S    
C25   C29   S    
C87   H65   S    
N16   Ni7   S    
C107  H59   S    
C59   H24   S    
C9    H88   S    
C89   C100  A    
C10   C44   S    
N3    N4    A    
N6    Ni1   S    
C8    C44   S    
N5    Ni2   S    
C14   C86   S    
C91   N7    A    
C10   C11   S    
C17   C108  A    
C77   H41   S    
C38   C94   A    
C90   N6    A    
C9    H86   S    
C3    H61   S    
C30   H8    S    
C81   C99   S    
C58   C64   A    
C28   H2    S    
C22   C87   A    
N29   Ni6   S    
N21   N25   A    
N28   Ni5   S    
C30   C37   S    
C30   H4    S    
N27   Ni4   S    
C85   H48   S    
C62   H27   S    
C90   H50   S    
C31   H10   S    
C46   C68   A    
C72   C77   A    
C85   C99   A    
N20   N26   A    
C71   C86   A    
C25   H67   S    
C102  N9    A    
C72   C86   A    
N7    N8    A    
C41   H39   S    
C32   N23   A    
N18   N24   A    
C23   C34   S    
N23   Ni3   S    
C39   H37   S    
C61   C63   A    
C43   C96   A    
C108  H60   S    
C21   N12   A    
C89   H49   S    
C17   C37   S    
C64   C69   A    
N25   Ni4   S    
N1    Ni1   S    
N13   Ni4   S    
C6    C7    S    
C28   H6    S    
C92   C101  A    
C25   C35   S    
C107  N15   A    
C31   H9    S    
C40   N30   A    
C106  N14   A    
C104  H55   S    
C47   C49   A    
C33   H11   S    
C105  N13   A    
C74   C79   A    
C23   H45   S    
C83   C97   A    
C45   H14   S    
C82   C97   A    
C58   H22   S    
C46   H15   S    
C92   N8    A    
N2    Ni5   S    
N11   Ni3   S    
C51   H20   S    
C6    H84   S    
C27   H5    S    
C65   N19   A    
C26   H74   S    
C31   C34   S    
C78   H42   S    
C39   N29   A    
C75   C80   A    
C79   H43   S    
C19   C55   S    
C63   C68   A    
C103  H54   S    
C13   C20   A    
C8    H91   S    
C33   C44   S    
C23   H71   S    
C29   H3    S    
N20   Ni8   S    
N21   Ni7   S    
C24   C28   S    
C104  N11   A    
C48   C70   A    
C4    C5    S    
C35   C101  S    
C71   H31   S    
C53   C58   A    
C9    H87   S    
C57   C61   A    
C45   C67   A    
C75   H40   S    
C21   H12   S    
N23   N31   A    
C66   C70   A    
N9    Ni1   S    
C68   C93   S    
N15   Ni6   S    
C40   H38   S    
C92   H52   S    
C27   C36   S    
N12   Ni2   S    
C63   H28   S    
C15   C105  A    
C37   C44   S    
N1    N29   A    
C70   C95   S    
N24   Ni1   S    
C74   C88   A    
N3    Ni8   S    
C16   C36   S    
C46   C52   A    
C71   C75   A    
C77   C80   A    
C78   C81   A    
C4    H80   S    
N14   N15   A    
C41   C95   A    
C4    C42   S    
C41   N31   A    
N19   Ni5   S    
C102  H53   S    
C49   C53   A    
C11   H94   S    
N12   N28   A    
C105  H57   S    
C19   C65   A    
C47   H16   S    
C32   H23   S    
C79   C81   A    
C24   C34   S    
N31   Ni8   S    
N8    Ni3   S    
C14   C102  A    
C52   C57   A    
C18   C54   A    
C108  N16   A    
C56   C60   A    
C26   C35   S    
C72   H32   S    
C32   C95   A    
C28   C36   S    
C1    C93   A    
C6    C42   S    
C29   C37   S    
C14   C103  A    
C89   N5    A    
N7    Ni4   S    
C7    H81   S    
C43   H34   S    
C50   H19   S    
C38   N28   A    
C10   H96   S    
C60   H25   S    
C5    H75   S    
C6    H85   S    
C82   H44   S    
C85   N4    A    
C15   C88   S    
C98   N22   A    
N17   Ni8   S    
