data_mof_unit_34641.cif
_audit_creation_date              2012-12-10T16:50:16-0500
_audit_creation_method            fapswitch 2.2
_symmetry_space_group_name_H-M    P1
_symmetry_Int_Tables_number       1
_space_group_crystal_system       triclinic
_cell_length_a                    23.488277
_cell_length_b                    8.679141
_cell_length_c                    7.443671
_cell_angle_alpha                 103.238813
_cell_angle_beta                  93.709501
_cell_angle_gamma                 92.482124
_cell_volume                      1471.38867213

loop_
_atom_site_label
_atom_site_type_symbol
_atom_type_description
_atom_site_fract_x
_atom_site_fract_y
_atom_site_fract_z
_atom_type_partial_charge
C1    C     C_R   0.498684 0.199636 0.452982 0.863591
C2    C     C_R   0.502495 0.800467 0.546901 0.859085
C3    C     C_R   0.238742 0.589864 0.389379 0.393324
C4    C     C_R   0.756401 0.419960 0.330901 0.408256
C5    C     C_R   0.298978 0.602591 0.404059 0.319866
C6    C     C_R   0.696693 0.410121 0.334682 0.336196
C7    C     C_R   0.329475 0.514238 0.511625 -0.181067
C8    C     C_R   0.671107 0.497075 0.490442 -0.195609
C9    C     C_R   0.300447 0.437923 0.627610 -0.305830
C10   C     C_R   0.705613 0.582696 0.644564 -0.282966
C11   C     C_R   0.241228 0.436152 0.625012 -0.221442
C12   C     C_R   0.764661 0.585028 0.644282 -0.205635
C13   C     C_R   0.210002 0.510680 0.505750 0.200471
C14   C     C_R   0.790624 0.503126 0.489414 0.181718
C15   C     C_2   0.498847 0.031675 0.426646 -0.399496
C16   C     C_2   0.503673 0.968635 0.573168 -0.375736
C17   C     C_R   0.391271 0.501883 0.503422 0.827859
C18   C     C_R   0.608835 0.498965 0.496642 0.830330
C19   C     C_R   0.883315 0.645846 0.528030 0.506565
C20   C     C_R   0.117393 0.367378 0.465799 0.530299
C21   C     C_R   0.878135 0.362813 0.469891 0.569744
C22   C     C_R   0.122852 0.650700 0.553193 0.586075
C23   C     C_R   0.937760 0.360898 0.469753 -0.038826
C24   C     C_R   0.063209 0.652337 0.550003 -0.032562
C25   C     C_R   0.970412 0.505981 0.505652 -0.018626
C26   C     C_R   0.030501 0.507133 0.508244 -0.018733
C27   C     C_R   0.943138 0.649972 0.538425 -0.012455
C28   C     C_R   0.057712 0.363134 0.468560 -0.016404
C29   C     C_R   0.965348 0.217816 0.433648 -0.193602
C30   C     C_R   0.035642 0.795443 0.587096 -0.184359
C31   C     C_R   0.024698 0.218871 0.431295 -0.175353
C32   C     C_R   0.976170 0.794261 0.579617 -0.175821
Cu1   Cu    Cu3+1 0.506340 0.517380 0.684380 0.948474
Cu2   Cu    Cu3+1 0.493660 0.482620 0.315620 0.966535
H1    H     H_    0.941131 0.104681 0.404316 0.191302
H2    H     H_    0.059864 0.908709 0.620074 0.187154
H3    H     H_    0.044578 0.106468 0.400594 0.184108
H4    H     H_    0.956229 0.906616 0.607384 0.180884
H5    H     H_    0.323803 0.380422 0.720709 0.186786
H6    H     H_    0.686843 0.648971 0.765684 0.189543
H7    H     H_    0.219441 0.377378 0.716906 0.173077
H8    H     H_    0.790440 0.650654 0.765787 0.173467
H9    H     H_    0.494591 0.959530 0.285687 0.180325
H10   H     H_    0.507926 0.040759 0.714135 0.183776
N1    N     N_R   0.851989 0.503727 0.494778 -0.451184
N2    N     N_R   0.148773 0.509729 0.507720 -0.439559
N3    N     N_2   0.484110 0.456420 0.038520 -0.208672
N4    N     N_2   0.515890 0.543580 0.961480 -0.208220
O1    O     O_R   0.504120 0.286130 0.619770 -0.579984
O2    O     O_R   0.495880 0.713870 0.380230 -0.581109
O3    O     O_R   0.493410 0.256770 0.308360 -0.595742
O4    O     O_R   0.506590 0.743230 0.691640 -0.591341
O5    O     O_R   0.423230 0.514630 0.655730 -0.595387
O6    O     O_R   0.576770 0.485370 0.344270 -0.557125
O7    O     O_R   0.412530 0.485280 0.344320 -0.551474
O8    O     O_R   0.587470 0.514720 0.655680 -0.578946
O9    O     O_2   0.856609 0.782747 0.548829 -0.534293
O10   O     O_2   0.143826 0.230376 0.419917 -0.555275
O11   O     O_2   0.846570 0.225098 0.447285 -0.528576
O12   O     O_2   0.154685 0.789077 0.601847 -0.542824
O13   O     O_3   0.207611 0.676564 0.286881 -0.557990
C33   C     C_3   0.215666 0.628972 0.095663 0.111565
H11   H     H_    0.176261 0.561212 0.023383 0.131017
H12   H     H_    0.251686 0.550323 0.061406 0.112080
C34   C     C_3   0.226029 0.776254 0.018854 -0.335467
H13   H     H_    0.265480 0.844519 0.089688 0.237688
H14   H     H_    0.232661 0.738924 0.869274 0.196037
C35   C     C_3   0.175933 0.883805 0.044310 -0.649861
H15   H     H_    0.135707 0.817370 0.977352 0.236105
H16   H     H_    0.184150 0.985316 0.979988 0.237631
H17   H     H_    0.170781 0.931097 0.193759 0.297968
O14   O     O_3   0.781049 0.335369 0.177826 -0.558261
C36   C     C_3   0.799663 0.440902 0.071976 0.061057
H18   H     H_    0.827815 0.541689 0.156128 0.139241
H19   H     H_    0.762059 0.489700 0.010211 0.127824
C37   C     C_3   0.833129 0.352332 0.914846 -0.310810
H20   H     H_    0.804839 0.257240 0.821506 0.251124
H21   H     H_    0.847636 0.437461 0.834618 0.170760
C38   C     C_3   0.885861 0.280503 0.985341 -0.703843
H22   H     H_    0.914707 0.374612 0.077714 0.224696
H23   H     H_    0.909489 0.222411 0.866043 0.233165
H24   H     H_    0.873286 0.189857 0.061432 0.288633
O15   O     O_3   0.326644 0.707659 0.318561 -0.608359
C39   C     C_3   0.352865 0.838969 0.453020 0.069593
H25   H     H_    0.379317 0.910275 0.379696 0.164584
H26   H     H_    0.382847 0.801173 0.553696 0.134717
C40   C     C_3   0.309512 0.947582 0.556460 -0.324020
H27   H     H_    0.288333 0.013425 0.461684 0.241381
H28   H     H_    0.276055 0.877863 0.607367 0.248990
C41   C     C_3   0.339211 0.064271 0.724764 -0.943479
H29   H     H_    0.359787 0.999414 0.821632 0.259239
H30   H     H_    0.307121 0.139216 0.799516 0.260719
H31   H     H_    0.372365 0.140343 0.681117 0.252529
O16   O     O_3   0.664032 0.321468 0.181041 -0.583336
C42   C     C_3   0.643654 0.175712 0.215975 0.094293
H32   H     H_    0.602504 0.139403 0.131264 0.173829
H33   H     H_    0.634096 0.184500 0.362790 0.105238
C43   C     C_3   0.685765 0.046600 0.157781 -0.315570
H34   H     H_    0.696284 0.041380 0.013104 0.243305
H35   H     H_    0.725827 0.075608 0.249675 0.261191
C44   C     C_3   0.660787 0.884265 0.170164 -0.921480
H36   H     H_    0.649803 0.886600 0.313699 0.262058
H37   H     H_    0.692669 0.794027 0.130976 0.259049
H38   H     H_    0.621780 0.849513 0.074145 0.248690
H39   H     H_    0.454841 0.379448 0.949083 0.224047
H40   H     H_    0.545158 0.620438 0.050967 0.227857

loop_
_geom_bond_atom_site_label_1
_geom_bond_atom_site_label_2
_ccdc_geom_bond_type
C40   H27   S    
C44   H36   S    
C36   H18   S    
C42   H32   S    
C37   C38   S    
C42   C43   S    
C19   O9    S    
Cu1   O4    S    
Cu2   O3    S    
C23   C29   A    
C24   C26   A    
C21   O11   S    
C22   O12   S    
C13   N2    S    
C5    O15   S    
Cu1   O1    S    
C15   C16   D    
C9    H5    S    
C10   H6    S    
C33   H12   S    
C2    O2    A    
N4    H40   S    
N3    N4    D    
C35   H15   S    
C34   H14   S    
C12   H8    S    
C39   C40   S    
C1    C15   S    
C32   H4    S    
C2    C16   S    
C16   H10   S    
C3    C13   A    
C18   O8    A    
Cu1   O8    S    
Cu2   O7    S    
C44   H37   S    
C36   H19   S    
O13   C33   S    
C10   C12   A    
C14   N1    S    
C21   N1    A    
C3    O13   S    
Cu1   O5    S    
Cu2   O2    S    
C37   H20   S    
C4    C6    A    
C38   H23   S    
C6    C8    A    
C20   C28   A    
C6    O16   S    
C25   C26   A    
C8    C18   S    
C31   H3    S    
C33   H11   S    
C1    O3    A    
C41   H30   S    
O15   C39   S    
C34   C35   S    
C19   N1    A    
Cu1   Cu2   S    
C39   H25   S    
C9    C11   A    
C2    O4    A    
C8    C10   A    
C22   N2    A    
C12   C14   A    
Cu2   O6    S    
C44   H38   S    
C43   H35   S    
C40   H28   S    
C36   C37   S    
C22   C24   A    
C34   H13   S    
C20   O10   S    
C17   O5    A    
C4    O14   S    
C19   C27   A    
C41   H31   S    
C5    C7    A    
C7    C9    A    
C17   O7    A    
C33   C34   S    
C27   C32   A    
C28   C31   A    
C37   H21   S    
O14   C36   S    
C3    C5    A    
C7    C17   S    
C38   H24   S    
C42   H33   S    
C25   C27   A    
C43   C44   S    
C29   H1    S    
C26   C28   A    
C30   H2    S    
C21   C23   A    
C15   H9    S    
C29   C31   A    
C30   C32   A    
C11   C13   A    
C41   H29   S    
C35   H17   S    
C11   H7    S    
C23   C25   A    
C4    C14   A    
O16   C42   S    
C24   C30   A    
C18   O6    A    
C38   H22   S    
C35   H16   S    
C43   H34   S    
C40   C41   S    
Cu1   N4    S    
C39   H26   S    
Cu2   N3    S    
N3    H39   S    
C1    O1    A    
C20   N2    A    
