data_mof_unit_53623.cif
_audit_creation_date              2012-12-11T14:03:57-0500
_audit_creation_method            fapswitch 2.2
_symmetry_space_group_name_H-M    P1
_symmetry_Int_Tables_number       1
_space_group_crystal_system       triclinic
_cell_length_a                    19.009393
_cell_length_b                    10.99215
_cell_length_c                    18.958368
_cell_angle_alpha                 89.875174
_cell_angle_beta                  89.035315
_cell_angle_gamma                 89.711679
_cell_volume                      3960.80838984

loop_
_atom_site_label
_atom_site_type_symbol
_atom_type_description
_atom_site_fract_x
_atom_site_fract_y
_atom_site_fract_z
_atom_type_partial_charge
C1    C     C_R   0.240574 0.467176 0.646886 0.536998
C2    C     C_R   0.759505 0.466797 0.353096 0.550233
C3    C     C_R   0.740573 0.967177 0.646888 0.537026
C4    C     C_R   0.259504 0.966793 0.353096 0.550214
C5    C     C_2   0.276199 0.819879 0.531954 -0.149858
C6    C     C_2   0.724672 0.819574 0.468385 -0.150528
C7    C     C_2   0.776218 0.319902 0.531956 -0.149874
C8    C     C_2   0.224691 0.319556 0.468386 -0.150516
C9    C     C_R   0.984347 0.660299 0.429256 -0.018261
C10   C     C_R   0.015908 0.660558 0.570586 -0.016117
C11   C     C_R   0.484325 0.160303 0.429263 -0.018266
C12   C     C_R   0.515889 0.160556 0.570593 -0.016114
C13   C     C_R   0.010413 0.883719 0.426655 -0.076649
C14   C     C_R   0.989804 0.884294 0.572229 -0.077802
C15   C     C_R   0.510386 0.383727 0.426669 -0.076653
C16   C     C_R   0.489779 0.384289 0.572243 -0.077795
C17   C     C_R   0.007505 0.993445 0.463144 -0.131427
C18   C     C_R   0.992522 0.993750 0.535243 -0.131717
C19   C     C_R   0.507478 0.493449 0.463161 -0.131435
C20   C     C_R   0.492495 0.493748 0.535261 -0.131709
C21   C     C_R   0.000755 0.772603 0.536652 -0.000896
C22   C     C_R   0.999501 0.772369 0.462708 -0.000797
C23   C     C_R   0.500730 0.272602 0.536663 -0.000898
C24   C     C_R   0.499476 0.272373 0.462718 -0.000794
C25   C     C_R   0.018322 0.551357 0.530707 0.008908
C26   C     C_R   0.981948 0.551460 0.469551 0.006807
C27   C     C_R   0.518298 0.051356 0.530713 0.008922
C28   C     C_R   0.481923 0.051464 0.469558 0.006792
C29   C     C_R   0.051576 0.440390 0.549502 -0.069304
C30   C     C_R   0.948818 0.440942 0.451094 -0.070711
C31   C     C_R   0.551553 0.940386 0.549504 -0.069300
C32   C     C_R   0.448792 0.940949 0.451098 -0.070714
C33   C     C_R   0.028511 0.329988 0.523035 -0.123427
C34   C     C_R   0.972112 0.330292 0.477859 -0.123207
C35   C     C_R   0.528486 0.829987 0.523036 -0.123438
C36   C     C_R   0.472085 0.830296 0.477859 -0.123188
C37   C     C_2   0.254880 0.933512 0.914524 -0.115264
C38   C     C_2   0.761493 0.900575 0.072546 -0.089567
C39   C     C_2   0.754880 0.433511 0.914524 -0.115322
C40   C     C_2   0.261492 0.400577 0.072546 -0.089578
C41   C     C_2   0.269025 0.987455 0.066423 -0.094908
C42   C     C_2   0.750950 0.899954 0.916519 -0.120384
C43   C     C_2   0.769024 0.487454 0.066423 -0.094909
C44   C     C_2   0.250947 0.399956 0.916520 -0.120363
C45   C     C_R   0.226923 0.872368 0.646723 0.550768
C46   C     C_R   0.773070 0.872135 0.353234 0.556441
C47   C     C_R   0.726922 0.372366 0.646722 0.550767
C48   C     C_R   0.273069 0.372136 0.353232 0.556436
C49   C     C_2   0.225044 0.049087 0.023170 -0.068769
C50   C     C_2   0.812009 0.906731 0.951289 -0.048426
C51   C     C_2   0.725043 0.549086 0.023170 -0.068769
C52   C     C_2   0.312008 0.406721 0.951286 -0.048414
C53   C     C_2   0.214064 0.012672 0.949917 -0.168925
C54   C     C_2   0.814967 0.879913 0.026653 -0.162616
C55   C     C_2   0.714063 0.512671 0.949917 -0.168927
C56   C     C_2   0.314967 0.379920 0.026653 -0.162616
C57   C     C_2   0.985830 0.661518 0.914679 -0.128528
C58   C     C_2   0.956762 0.655369 0.067518 -0.136466
C59   C     C_2   0.485851 0.161545 0.914686 -0.128422
C60   C     C_2   0.456750 0.155376 0.067518 -0.136461
C61   C     C_2   0.946142 0.560150 0.024843 0.345927
C62   C     C_2   0.964171 0.561066 0.949397 0.372898
C63   C     C_2   0.446133 0.060165 0.024834 0.345937
C64   C     C_2   0.464122 0.061121 0.949377 0.372886
C65   C     C_R   0.034893 0.654347 0.643539 0.540509
C66   C     C_R   0.965122 0.654073 0.356425 0.550384
C67   C     C_R   0.534886 0.154347 0.643542 0.540517
C68   C     C_R   0.465112 0.154073 0.356430 0.550392
C69   C     C_R   0.239055 0.464052 0.850101 0.549706
C70   C     C_R   0.775006 0.516645 0.141257 0.552295
C71   C     C_R   0.739056 0.964052 0.850101 0.549695
C72   C     C_R   0.275006 0.016646 0.141257 0.552285
C73   C     C_R   0.228086 0.875814 0.851544 0.562333
C74   C     C_R   0.773970 0.871542 0.146047 0.547234
C75   C     C_R   0.728086 0.375814 0.851544 0.562318
C76   C     C_R   0.273969 0.371543 0.146047 0.547232
C77   C     C_R   0.027171 0.652289 0.849570 0.582811
C78   C     C_R   0.938879 0.647944 0.142061 0.571971
C79   C     C_R   0.527170 0.152293 0.849567 0.582854
C80   C     C_R   0.438876 0.147943 0.142062 0.571979
C81   C     C_2   0.246951 0.905228 0.574690 -0.097377
C82   C     C_2   0.752942 0.905030 0.425216 -0.097327
C83   C     C_2   0.746945 0.405229 0.574688 -0.097395
C84   C     C_2   0.252937 0.405028 0.425212 -0.097314
C85   C     C_2   0.241031 0.910426 0.420499 -0.116369
C86   C     C_2   0.759245 0.911173 0.579446 -0.116564
C87   C     C_2   0.741033 0.410412 0.420492 -0.116354
C88   C     C_2   0.259243 0.411196 0.579438 -0.116576
C89   C     C_2   0.284448 0.837340 0.455384 -0.180168
C90   C     C_2   0.716458 0.837379 0.544926 -0.179712
C91   C     C_2   0.784461 0.337355 0.455384 -0.180155
C92   C     C_2   0.216474 0.337365 0.544926 -0.179739
Cr1   Cr    Cr6+3 0.113970 0.508630 0.747920 1.061917
Cr2   Cr    Cr6+3 0.886030 0.508630 0.252080 1.067338
Cr3   Cr    Cr6+3 0.613970 0.008630 0.747920 1.061897
Cr4   Cr    Cr6+3 0.386030 0.008630 0.252080 1.067326
Cr5   Cr    Cr6+3 0.269200 0.666740 0.749850 1.064215
Cr6   Cr    Cr6+3 0.730800 0.666740 0.250150 1.045551
Cr7   Cr    Cr6+3 0.769200 0.166740 0.749850 1.064183
Cr8   Cr    Cr6+3 0.230800 0.166740 0.250150 1.045550
Cr9   Cr    Cr6+3 0.112300 0.820070 0.749800 1.042734
Cr10  Cr    Cr6+3 0.887700 0.820070 0.250200 1.029895
Cr11  Cr    Cr6+3 0.612300 0.320070 0.749800 1.042738
Cr12  Cr    Cr6+3 0.387700 0.320070 0.250200 1.029889
H1    H     H_    0.327132 0.790920 0.427860 0.129192
H2    H     H_    0.674325 0.790480 0.572735 0.128214
H3    H     H_    0.827154 0.290958 0.427865 0.129191
H4    H     H_    0.174361 0.290433 0.572742 0.128225
H5    H     H_    0.166045 0.046154 0.925965 0.177484
H6    H     H_    0.865630 0.850499 0.046249 0.134841
H7    H     H_    0.666044 0.546153 0.925965 0.177476
H8    H     H_    0.365631 0.350517 0.046250 0.134851
H9    H     H_    0.300054 0.911357 0.047325 0.176661
H10   H     H_    0.705156 0.859234 0.942005 0.120782
H11   H     H_    0.800053 0.411353 0.047326 0.176657
H12   H     H_    0.205150 0.359253 0.942009 0.120810
H13   H     H_    0.304892 0.902012 0.934438 0.168103
H14   H     H_    0.709881 0.930659 0.055997 0.126181
H15   H     H_    0.804892 0.402011 0.934438 0.167991
H16   H     H_    0.209878 0.430650 0.055997 0.126193
H17   H     H_    0.976715 0.741501 0.048324 0.044868
H18   H     H_    0.981454 0.751129 0.937684 0.051639
H19   H     H_    0.476676 0.241528 0.048329 0.044831
H20   H     H_    0.481568 0.251135 0.937719 0.051662
H21   H     H_    0.294325 0.733607 0.553252 0.154724
H22   H     H_    0.707332 0.732997 0.447465 0.153661
H23   H     H_    0.794378 0.233659 0.553261 0.154738
H24   H     H_    0.207383 0.232956 0.447472 0.153653
H25   H     H_    0.193078 0.943309 0.446253 0.118329
H26   H     H_    0.806787 0.944583 0.553435 0.118900
H27   H     H_    0.693069 0.443264 0.446236 0.118321
H28   H     H_    0.306767 0.444649 0.553418 0.118909
H29   H     H_    0.229079 0.992239 0.554335 0.097785
H30   H     H_    0.770076 0.992299 0.445194 0.099224
H31   H     H_    0.729042 0.492215 0.554327 0.097809
H32   H     H_    0.270043 0.492317 0.445182 0.099202
H33   H     H_    0.015102 0.077856 0.434812 0.112431
H34   H     H_    0.984752 0.078396 0.563194 0.112076
H35   H     H_    0.515076 0.577862 0.434832 0.112423
H36   H     H_    0.484728 0.578392 0.563215 0.112085
H37   H     H_    0.022339 0.888048 0.370854 0.146311
H38   H     H_    0.977930 0.889109 0.628019 0.144575
H39   H     H_    0.522314 0.388063 0.370869 0.146319
H40   H     H_    0.477908 0.389098 0.628034 0.144574
H41   H     H_    0.905597 0.438970 0.416155 0.169293
H42   H     H_    0.094727 0.437808 0.584483 0.171197
H43   H     H_    0.405575 0.938983 0.416156 0.169301
H44   H     H_    0.594707 0.937801 0.584481 0.171181
H45   H     H_    0.052488 0.245729 0.539811 0.099395
H46   H     H_    0.948316 0.246279 0.461340 0.099294
H47   H     H_    0.552462 0.745725 0.539807 0.099388
H48   H     H_    0.448289 0.746286 0.461338 0.099297
O1    O     O_R   0.043230 0.549300 0.667990 -0.529818
O2    O     O_R   0.956770 0.549300 0.332010 -0.527640
O3    O     O_R   0.543230 0.049300 0.667990 -0.529809
O4    O     O_R   0.456770 0.049300 0.332010 -0.527630
O5    O     O_R   0.262920 0.788600 0.824420 -0.477312
O6    O     O_R   0.737080 0.788600 0.175580 -0.495203
O7    O     O_R   0.762920 0.288600 0.824420 -0.477337
O8    O     O_R   0.237080 0.288600 0.175580 -0.495204
O9    O     O_R   0.167530 0.905110 0.830340 -0.509173
O10   O     O_R   0.832470 0.905110 0.169660 -0.506341
O11   O     O_R   0.667530 0.405110 0.830340 -0.509170
O12   O     O_R   0.332470 0.405110 0.169660 -0.506346
O13   O     O_R   0.054010 0.748440 0.822860 -0.497400
O14   O     O_R   0.945990 0.748440 0.177140 -0.504544
O15   O     O_R   0.554010 0.248440 0.822860 -0.497412
O16   O     O_R   0.445990 0.248440 0.177140 -0.504537
O17   O     O_3   0.165160 0.665150 0.749190 -0.270061
O18   O     O_3   0.834840 0.665150 0.250810 -0.311935
O19   O     O_3   0.665160 0.165150 0.749190 -0.270052
O20   O     O_3   0.334840 0.165150 0.250810 -0.311940
O21   O     O_R   0.178620 0.457600 0.674100 -0.519968
O22   O     O_R   0.821380 0.457600 0.325900 -0.514798
O23   O     O_R   0.678620 0.957600 0.674100 -0.519962
O24   O     O_R   0.321380 0.957600 0.325900 -0.514805
O25   O     O_R   0.284680 0.542100 0.669460 -0.523545
O26   O     O_R   0.715320 0.542100 0.330540 -0.518172
O27   O     O_R   0.784680 0.042100 0.669460 -0.523550
O28   O     O_R   0.215320 0.042100 0.330540 -0.518167
O29   O     O_R   0.262860 0.790390 0.676650 -0.497402
O30   O     O_R   0.737140 0.790390 0.323350 -0.494357
O31   O     O_R   0.762860 0.290390 0.676650 -0.497409
O32   O     O_R   0.237140 0.290390 0.323350 -0.494356
O33   O     O_R   0.167460 0.907030 0.670940 -0.513708
O34   O     O_R   0.832540 0.907030 0.329060 -0.508314
O35   O     O_R   0.667460 0.407030 0.670940 -0.513709
O36   O     O_R   0.332540 0.407030 0.329060 -0.508317
O37   O     O_R   0.053950 0.750220 0.675100 -0.516835
O38   O     O_R   0.946050 0.750220 0.324900 -0.508748
O39   O     O_R   0.553950 0.250220 0.675100 -0.516827
O40   O     O_R   0.446050 0.250220 0.324900 -0.508753
O41   O     O_R   0.043300 0.547370 0.827390 -0.424209
O42   O     O_R   0.956700 0.547370 0.172610 -0.424791
O43   O     O_R   0.543300 0.047370 0.827390 -0.424241
O44   O     O_R   0.456700 0.047370 0.172610 -0.424808
O45   O     O_R   0.178690 0.455820 0.821860 -0.490794
O46   O     O_R   0.821310 0.455820 0.178140 -0.463280
O47   O     O_R   0.678690 0.955820 0.821860 -0.490831
O48   O     O_R   0.321310 0.955820 0.178140 -0.463293
O49   O     O_R   0.284750 0.540170 0.828860 -0.485966
O50   O     O_R   0.715250 0.540170 0.171140 -0.490837
O51   O     O_R   0.784750 0.040170 0.828860 -0.485967
O52   O     O_R   0.215250 0.040170 0.171140 -0.490836
F1    F     F_    0.924743 0.451912 0.052422 -0.589472
F2    F     F_    0.964010 0.450836 0.916700 -0.562991
F3    F     F_    0.424748 0.951914 0.052407 -0.589473
F4    F     F_    0.463837 0.950955 0.916631 -0.563123
C93   C     C_1   0.176706 0.142340 0.048421 0.243112
N1    N     N_1   0.136770 0.215227 0.067849 -0.242597
C94   C     C_1   0.877587 0.943097 0.917461 0.250125
N2    N     N_1   0.929927 0.972446 0.890538 -0.263781
C95   C     C_1   0.676706 0.642341 0.048421 0.243100
N3    N     N_1   0.636770 0.715229 0.067848 -0.242644
C96   C     C_1   0.377588 0.443049 0.917449 0.250113
N4    N     N_1   0.429931 0.472366 0.890520 -0.263824

loop_
_geom_bond_atom_site_label_1
_geom_bond_atom_site_label_2
_ccdc_geom_bond_type
C70   O50   A    
C67   O39   A    
C7    C83   D    
C14   H38   S    
C15   C19   A    
C69   O49   A    
C46   O30   A    
C6    C82   D    
C87   C91   D    
Cr8   O20   S    
C14   C18   A    
C35   C36   A    
Cr3   O23   S    
C34   H46   S    
Cr5   O17   S    
C57   C62   D    
C32   H43   S    
C95   N3    T    
C11   C68   S    
C71   O51   A    
C64   F4    S    
C12   C23   A    
Cr1   O17   S    
C59   C64   D    
C50   C54   S    
C60   C63   D    
C32   C36   A    
C14   C21   A    
C67   O3    A    
C16   H40   S    
C48   O36   A    
Cr7   O7    S    
C43   C51   D    
C9    C22   A    
Cr7   O19   S    
C68   O40   A    
C77   O13   A    
Cr12  O40   S    
C73   O5    A    
C11   C24   A    
C79   O43   A    
C54   H6    S    
C75   O11   A    
C78   O42   A    
C87   H27   S    
C18   H34   S    
Cr3   O47   S    
C3    O27   A    
C9    C66   S    
C65   O1    A    
C81   H29   S    
C85   H25   S    
C57   H18   S    
C46   C82   S    
C1    O25   A    
C92   H4    S    
C39   C55   D    
C88   C92   D    
C29   C33   A    
C40   C56   D    
C84   H32   S    
C17   C18   A    
C73   O9    A    
C23   C24   A    
Cr9   O17   S    
C8    C92   S    
C39   C75   S    
Cr6   O26   S    
Cr7   O31   S    
Cr3   O43   S    
Cr2   O2    S    
C72   O52   A    
C37   C53   D    
C44   C52   D    
C58   C61   D    
C48   O32   A    
C70   O46   A    
C63   F3    S    
C21   C22   A    
C3    C86   S    
C69   O45   A    
C56   H8    S    
C35   H47   S    
C4    O28   A    
Cr9   O33   S    
C1    O21   A    
C41   C49   D    
Cr1   O21   S    
C8    H24   S    
C9    C26   A    
C33   C34   A    
C10   C21   A    
C25   C29   A    
Cr12  O36   S    
C12   C67   S    
C45   C81   S    
C78   O14   A    
C76   O8    A    
C30   C34   A    
C12   C27   A    
C45   O29   A    
Cr6   O6    S    
C28   C32   A    
Cr11  O35   S    
C90   H2    S    
C47   O31   A    
C86   C90   D    
C59   C79   S    
C29   H42   S    
C74   O10   A    
C74   O6    A    
C86   H26   S    
C36   H48   S    
C4    C85   S    
C8    C84   D    
C25   C26   A    
C6    C90   S    
C27   C31   A    
C52   C96   S    
C48   C84   S    
C43   H11   S    
Cr11  O11   S    
Cr2   O46   S    
Cr5   O5    S    
C82   H30   S    
C60   H19   S    
Cr1   O45   S    
C96   N4    T    
Cr7   O27   S    
C57   C77   S    
C72   O48   A    
C5    C81   D    
Cr8   O8    S    
Cr5   O25   S    
C94   N2    T    
C38   C54   D    
C16   C20   A    
C7    C91   S    
C93   N1    T    
C2    C87   S    
Cr10  O34   S    
Cr11  O15   S    
C46   O34   A    
Cr5   O29   S    
C6    H22   S    
C42   C50   D    
C41   C72   S    
C15   H39   S    
C31   H44   S    
C10   C25   A    
C3    O23   A    
C15   C24   A    
C40   H16   S    
Cr2   O22   S    
C50   C94   S    
C26   C30   A    
C43   C70   S    
C47   C83   S    
C4    O24   A    
Cr9   O13   S    
C31   C35   A    
C42   H10   S    
C76   O12   A    
C55   H7    S    
Cr11  O39   S    
C88   H28   S    
C5    H21   S    
Cr8   O28   S    
Cr12  O20   S    
C11   C28   A    
C47   O35   A    
Cr10  O10   S    
C30   H41   S    
C66   O2    A    
C51   C95   S    
C38   C74   S    
C10   C65   S    
C75   O7    A    
C59   H20   S    
Cr4   O48   S    
C37   C73   S    
C60   C80   S    
C58   H17   S    
C85   C89   D    
Cr4   O24   S    
Cr7   O51   S    
C77   O41   A    
Cr2   O42   S    
C83   H31   S    
C13   H37   S    
Cr6   O50   S    
Cr1   O41   S    
C65   O37   A    
C68   O4    A    
Cr12  O12   S    
C17   H33   S    
Cr12  O16   S    
C71   O47   A    
Cr5   O49   S    
Cr6   O30   S    
C16   C23   A    
Cr9   O37   S    
C13   C17   A    
C80   O44   A    
C79   O15   A    
C89   H1    S    
C20   H36   S    
C19   C20   A    
Cr9   O9    S    
C41   H9    S    
C33   H45   S    
C2    O22   A    
Cr8   O52   S    
Cr11  O19   S    
C45   O33   A    
Cr4   O4    S    
Cr10  O18   S    
C1    C88   S    
C39   H15   S    
C66   O38   A    
Cr1   O1    S    
C42   C71   S    
Cr10  O38   S    
C62   F2    S    
C13   C22   A    
C51   C55   S    
Cr3   O3    S    
C61   C62   S    
Cr8   O32   S    
C5    C89   S    
C49   C53   S    
C58   C78   S    
C63   C64   S    
Cr6   O18   S    
C40   C76   S    
Cr4   O44   S    
C37   H13   S    
C44   H12   S    
Cr10  O14   S    
Cr4   O20   S    
C49   C93   S    
C27   C28   A    
C44   C69   S    
C38   H14   S    
C53   H5    S    
C2    O26   A    
C7    H23   S    
Cr3   O19   S    
C80   O16   A    
C19   H35   S    
Cr2   O18   S    
C52   C56   S    
C61   F1    S    
C91   H3    S    
