data_mof_unit_36294.cif
_audit_creation_date              2012-12-10T17:09:54-0500
_audit_creation_method            fapswitch 2.2
_symmetry_space_group_name_H-M    P1
_symmetry_Int_Tables_number       1
_space_group_crystal_system       triclinic
_cell_length_a                    10.858566
_cell_length_b                    13.147965
_cell_length_c                    11.759212
_cell_angle_alpha                 100.221889
_cell_angle_beta                  94.641659
_cell_angle_gamma                 93.968376
_cell_volume                      1640.78726963

loop_
_atom_site_label
_atom_site_type_symbol
_atom_type_description
_atom_site_fract_x
_atom_site_fract_y
_atom_site_fract_z
_atom_type_partial_charge
C1    C     C_R   0.503597 0.299438 0.478446 0.832057
C2    C     C_R   0.075741 0.551822 0.602538 0.066987
C3    C     C_R   0.129355 0.513254 0.499991 -0.156861
C4    C     C_R   0.054467 0.462355 0.401339 -0.127059
C5    C     C_R   0.926656 0.446540 0.402233 -0.019766
C6    C     C_R   0.872249 0.482582 0.505594 -0.208349
C7    C     C_R   0.496820 0.815046 0.534699 -0.155970
C8    C     C_R   0.509913 0.185879 0.465841 -0.257855
C9    C     C_R   0.436462 0.015955 0.357690 -0.237238
C10   C     C_R   0.459189 0.121309 0.361491 0.485632
C11   C     C_R   0.557321 0.140253 0.559873 -0.099326
C12   C     C_R   0.263203 0.507200 0.500254 0.822331
C13   C     C_R   0.549700 0.030365 0.547941 0.074954
C14   C     C_R   0.484039 0.968874 0.447190 -0.054536
C15   C     C_R   0.468658 0.860238 0.436176 0.437213
C16   C     C_R   0.542291 0.880441 0.640897 -0.165596
C17   C     C_R   0.595802 0.979607 0.637388 -0.066488
C18   C     C_R   0.381838 0.400299 0.018425 -0.325902
C19   C     C_R   0.384250 0.415908 0.139604 0.174860
C20   C     C_R   0.563578 0.533958 0.156404 0.154746
C21   C     C_R   0.549448 0.531329 0.033148 -0.043420
C22   C     C_R   0.458961 0.461390 0.963253 -0.037235
C23   C     C_R   0.496092 0.700762 0.521827 0.850504
C24   C     C_R   0.447630 0.454866 0.839974 0.579777
C25   C     C_R   0.607915 0.592235 0.856267 0.620742
C26   C     C_R   0.622688 0.597566 0.978505 -0.407934
C27   C     C_R   0.737346 0.492202 0.500801 0.752852
C28   C     C_R   0.145057 0.615701 0.699448 -0.242463
C29   C     C_R   0.100190 0.630425 0.808815 0.016297
C30   C     C_R   0.985569 0.580632 0.820949 -0.140797
C31   C     C_R   0.911191 0.527669 0.723380 -0.133805
C32   C     C_R   0.950457 0.521498 0.610394 0.101289
Cu1   Cu    Cu3+1 0.509250 0.507730 0.615930 1.033088
Cu2   Cu    Cu3+1 0.490750 0.492270 0.384070 1.010683
H1    H     H_    0.096414 0.430422 0.324149 0.199796
H2    H     H_    0.315104 0.341476 0.968595 0.164892
H3    H     H_    0.689580 0.654325 0.031391 0.190924
H4    H     H_    0.235175 0.652603 0.691111 0.192217
H5    H     H_    0.953079 0.582584 0.905922 0.193099
H6    H     H_    0.827584 0.486159 0.740247 0.178765
H7    H     H_    0.379226 0.972037 0.283345 0.203634
N1    N     N_R   0.523180 0.519350 0.790130 -0.263261
N2    N     N_R   0.476820 0.480650 0.209890 -0.227939
O1    O     O_R   0.506570 0.354460 0.582000 -0.565341
O2    O     O_R   0.490940 0.341410 0.386200 -0.503567
O3    O     O_R   0.327470 0.506530 0.597920 -0.581327
O4    O     O_R   0.311840 0.493480 0.402120 -0.552044
O5    O     O_R   0.509060 0.658590 0.613800 -0.512457
O6    O     O_R   0.493430 0.645540 0.418000 -0.588840
O7    O     O_R   0.688160 0.506520 0.597880 -0.565371
O8    O     O_R   0.672530 0.493470 0.402080 -0.618428
C33   C     C_2   0.711186 0.018765 0.714646 0.404558
H8    H     H_    0.728350 0.995834 0.798128 0.050233
O9    O     O_2   0.792980 0.071997 0.681925 -0.552263
O10   O     O_3   0.417410 0.161481 0.266148 -0.518850
C34   C     C_3   0.504489 0.146370 0.183272 -0.226236
H9    H     H_    0.509671 0.062450 0.148811 0.131993
H10   H     H_    0.597956 0.183680 0.219743 0.142393
H11   H     H_    0.474101 0.183441 0.109231 0.203070
C35   C     C_2   0.604389 0.207253 0.672745 0.543901
H12   H     H_    0.676088 0.269737 0.675747 0.052789
O11   O     O_2   0.560597 0.194850 0.762258 -0.536200
O12   O     O_3   0.371818 0.376078 0.767504 -0.527948
C36   C     C_3   0.244374 0.389831 0.775748 -0.241943
H13   H     H_    0.225283 0.460960 0.836291 0.126474
H14   H     H_    0.198533 0.321152 0.802781 0.169621
H15   H     H_    0.198427 0.390827 0.688610 0.198334
O13   O     O_3   0.680148 0.654000 0.797517 -0.538963
C37   C     C_3   0.743335 0.743163 0.868699 -0.328570
H16   H     H_    0.824135 0.722533 0.921192 0.188174
H17   H     H_    0.680853 0.787319 0.925622 0.139908
H18   H     H_    0.779655 0.794972 0.812013 0.187294
C38   C     C_2   0.276256 0.364314 0.181965 0.421279
H19   H     H_    0.185995 0.360258 0.133490 0.054916
O14   O     O_2   0.285137 0.319817 0.263923 -0.466794
C39   C     C_2   0.674007 0.593075 0.225684 0.364690
H20   H     H_    0.666304 0.643378 0.307258 0.104739
O15   O     O_2   0.777359 0.583165 0.193471 -0.521681
C40   C     C_2   0.177991 0.691160 0.910579 0.346089
H21   H     H_    0.269618 0.724692 0.900402 0.119256
O16   O     O_2   0.141074 0.704245 0.007061 -0.521231
C41   C     C_2   0.854202 0.382274 0.298146 0.462352
H22   H     H_    0.764850 0.342907 0.305364 0.052008
O17   O     O_2   0.894759 0.370674 0.203200 -0.523329
O18   O     O_3   0.412816 0.799035 0.333976 -0.546760
C42   C     C_3   0.495606 0.793080 0.246356 -0.259772
H23   H     H_    0.594945 0.797803 0.280451 0.117823
H24   H     H_    0.483137 0.853728 0.193127 0.149572
H25   H     H_    0.472421 0.718494 0.185813 0.185354
C43   C     C_2   0.516097 0.856434 0.755911 0.470813
H26   H     H_    0.567326 0.898953 0.834692 0.018941
O19   O     O_2   0.428295 0.796515 0.765565 -0.574197

loop_
_geom_bond_atom_site_label_1
_geom_bond_atom_site_label_2
_ccdc_geom_bond_type
C6    C32   A    
C21   C26   A    
C16   C43   S    
C1    C8    S    
C24   N1    A    
C38   H19   S    
O10   C34   S    
O18   C42   S    
C34   H9    S    
Cu2   O8    S    
Cu1   N1    S    
C35   O11   D    
C28   C29   A    
C39   O15   D    
C30   C31   A    
C42   H24   S    
C23   O6    A    
C31   H6    S    
C20   C39   S    
C2    C32   A    
C18   C19   A    
C37   H17   S    
C3    C12   S    
C31   C32   A    
C33   O9    D    
O13   C37   S    
C9    C10   A    
C27   O7    A    
C15   O18   S    
C7    C15   A    
C4    H1    S    
C13   C14   A    
Cu1   O3    S    
C38   O14   D    
C25   O13   S    
C12   O4    A    
C17   C33   S    
C19   N2    A    
C36   H15   S    
C19   C38   S    
C39   H20   S    
C12   O3    A    
C40   O16   D    
C42   H23   S    
C16   C17   A    
C25   C26   A    
C40   H21   S    
C35   H12   S    
C36   H14   S    
C37   H18   S    
C9    C14   A    
C29   C30   A    
C1    O1    A    
C43   O19   D    
C6    C27   S    
C29   C40   S    
C28   H4    S    
Cu1   Cu2   S    
Cu2   O2    S    
C10   O10   S    
C7    C16   A    
C24   O12   S    
C41   O17   D    
C22   C24   A    
C11   C35   S    
C20   N2    A    
C33   H8    S    
Cu2   O6    S    
C23   O5    A    
C18   C22   A    
Cu1   O1    S    
Cu2   N2    S    
C4    C5    A    
C42   H25   S    
C25   N1    A    
C26   H3    S    
C9    H7    S    
C34   H11   S    
C13   C17   A    
C36   H13   S    
C2    C3    A    
Cu1   O7    S    
C5    C41   S    
C11   C13   A    
C1    O2    A    
C43   H26   S    
C5    C6    A    
C8    C11   A    
C7    C23   S    
C27   O8    A    
C34   H10   S    
C30   H5    S    
C37   H16   S    
O12   C36   S    
C20   C21   A    
C8    C10   A    
C41   H22   S    
Cu1   O5    S    
C14   C15   A    
C2    C28   A    
Cu2   O4    S    
C21   C22   A    
C18   H2    S    
C3    C4    A    
