data_mof_unit_19117.cif
_audit_creation_date              2012-12-11T17:19:18-0500
_audit_creation_method            fapswitch 2.2
_symmetry_space_group_name_H-M    P1
_symmetry_Int_Tables_number       1
_space_group_crystal_system       triclinic
_cell_length_a                    14.641884
_cell_length_b                    7.266651
_cell_length_c                    13.452756
_cell_angle_alpha                 89.998841
_cell_angle_beta                  99.866376
_cell_angle_gamma                 89.999007
_cell_volume                      1410.16965226

loop_
_atom_site_label
_atom_site_type_symbol
_atom_type_description
_atom_site_fract_x
_atom_site_fract_y
_atom_site_fract_z
_atom_type_partial_charge
O1    O     O_R   0.648180 0.355050 0.151550 -0.531297
O2    O     O_R   0.351820 0.644950 0.848450 -0.531297
O3    O     O_R   0.851820 0.855050 0.348450 -0.531297
O4    O     O_R   0.148180 0.144950 0.651550 -0.531297
O5    O     O_R   0.835240 0.681980 0.154280 -0.527024
O6    O     O_R   0.164760 0.318020 0.845720 -0.527024
O7    O     O_R   0.664760 0.181980 0.345720 -0.527024
O8    O     O_R   0.335240 0.818020 0.654280 -0.527024
C1    C     C_R   0.863518 0.516065 0.133127 0.669906
C2    C     C_R   0.136482 0.483935 0.866873 0.669906
C3    C     C_R   0.636484 0.016064 0.366877 0.669899
C4    C     C_R   0.363516 0.983936 0.633123 0.669899
O9    O     O_R   0.647870 0.684600 0.139630 -0.528680
O10   O     O_R   0.352130 0.315400 0.860370 -0.528680
O11   O     O_R   0.852130 0.184600 0.360370 -0.528681
O12   O     O_R   0.147870 0.815400 0.639630 -0.528681
O13   O     O_R   0.663110 0.857440 0.333700 -0.531254
O14   O     O_R   0.336890 0.142560 0.666300 -0.531254
O15   O     O_R   0.836890 0.357440 0.166300 -0.531258
O16   O     O_R   0.163110 0.642560 0.833700 -0.531258
C5    C     C_R   0.615088 0.515998 0.113191 0.728232
C6    C     C_R   0.384912 0.484002 0.886809 0.728231
C7    C     C_R   0.884912 0.015994 0.386811 0.728223
C8    C     C_R   0.115088 0.984006 0.613189 0.728224
H1    H     H_    0.511377 0.988614 0.763707 0.139514
H2    H     H_    0.488623 0.011385 0.236293 0.139514
H3    H     H_    0.988613 0.488585 0.736290 0.139513
H4    H     H_    0.011387 0.511415 0.263710 0.139513
O17   O     O_3   0.755220 0.522230 0.313690 -0.362817
O18   O     O_3   0.244780 0.477770 0.686310 -0.362817
O19   O     O_3   0.744780 0.022230 0.186310 -0.362814
O20   O     O_3   0.255220 0.977770 0.813690 -0.362814
V1    V     V_3+5 0.749030 0.796100 0.238190 1.578419
V2    V     V_3+5 0.250970 0.203900 0.761810 1.578419
V3    V     V_3+5 0.750970 0.296100 0.261810 1.578407
V4    V     V_3+5 0.249030 0.703900 0.738190 1.578407
C9    C     C_1   0.966005 0.005372 0.466773 -0.072062
C10   C     C_1   0.033995 0.994628 0.533227 -0.072061
C11   C     C_1   0.533995 0.505376 0.033227 -0.072043
C12   C     C_1   0.466005 0.494624 0.966773 -0.072044
C13   C     C_R   0.560058 0.992614 0.711638 -0.165540
C14   C     C_R   0.439942 0.007386 0.288362 -0.165540
C15   C     C_R   0.939936 0.492583 0.788363 -0.165540
C16   C     C_R   0.060064 0.507417 0.211637 -0.165540
C17   C     C_R   0.654426 0.994175 0.752432 0.327223
C18   C     C_R   0.345574 0.005825 0.247568 0.327223
C19   C     C_R   0.845568 0.494152 0.747574 0.327215
C20   C     C_R   0.154432 0.505848 0.252426 0.327215
C21   C     C_R   0.720214 0.998198 0.688319 0.318760
C22   C     C_R   0.279786 0.001801 0.311681 0.318760
C23   C     C_R   0.779782 0.498165 0.811691 0.318763
C24   C     C_R   0.220218 0.501834 0.188309 0.318763
C25   C     C_R   0.691177 0.002868 0.583927 -0.137582
C26   C     C_R   0.308823 0.997132 0.416073 -0.137583
C27   C     C_R   0.808823 0.502819 0.916081 -0.137575
C28   C     C_R   0.191177 0.497181 0.083919 -0.137575
C29   C     C_R   0.595962 0.002397 0.541028 0.033382
C30   C     C_R   0.404038 0.997602 0.458972 0.033382
C31   C     C_R   0.904036 0.502364 0.958975 0.033382
C32   C     C_R   0.095964 0.497636 0.041025 0.033382
C33   C     C_R   0.529089 0.996004 0.606088 0.029948
C34   C     C_R   0.470911 0.003995 0.393912 0.029948
C35   C     C_R   0.970908 0.495975 0.893911 0.029951
C36   C     C_R   0.029092 0.504025 0.106089 0.029951
C37   C     C_R   0.566876 0.007106 0.434962 -0.084507
C38   C     C_R   0.433124 0.992894 0.565038 -0.084507
C39   C     C_R   0.933125 0.507105 0.065041 -0.084504
C40   C     C_R   0.066875 0.492894 0.934959 -0.084504
H5    H     H_    0.744171 0.006275 0.536918 0.135801
H6    H     H_    0.255829 0.993725 0.463081 0.135801
H7    H     H_    0.755831 0.506218 0.963093 0.135799
H8    H     H_    0.244169 0.493782 0.036907 0.135799
Br1   Br    Br    0.690470 0.990741 0.896403 -0.492087
Br2   Br    Br    0.309530 0.009259 0.103597 -0.492087
Br3   Br    Br    0.809522 0.490744 0.603601 -0.492100
Br4   Br    Br    0.190478 0.509256 0.396399 -0.492100
Br5   Br    Br    0.149341 0.003885 0.259775 -0.528321
Br6   Br    Br    0.850659 0.996115 0.740225 -0.528321
Br7   Br    Br    0.350665 0.503873 0.240204 -0.528328
Br8   Br    Br    0.649335 0.496127 0.759796 -0.528328

loop_
_geom_bond_atom_site_label_1
_geom_bond_atom_site_label_2
_ccdc_geom_bond_type
C30   C34   A    
C16   C20   A    
O1    C5    A    
C27   C31   A    
C20   Br4   S    
O3    C7    A    
C13   C33   A    
C25   H5    S    
C15   C35   A    
C16   C36   A    
O7    C3    A    
H2    C14   S    
C22   C26   A    
O8    V4    S    
O4    C8    A    
O3    V1    S    
C21   Br6   S    
C17   Br1   S    
C14   C18   A    
C23   Br8   S    
C31   C39   A    
C33   C38   A    
C1    O15   A    
C2    O16   A    
C28   H8    S    
C5    C11   S    
O2    C6    A    
C8    C10   S    
O19   V1    S    
C24   Br7   S    
C14   C34   A    
O11   C7    A    
O12   C8    A    
O13   V1    S    
O11   V3    S    
C30   C38   A    
O4    V2    S    
C36   C39   A    
H1    C13   S    
C11   C12   T    
C25   C29   A    
C19   C23   A    
C7    C9    S    
C4    C38   S    
H4    C16   S    
O6    V2    S    
O5    V1    S    
O20   V2    S    
C3    C37   S    
C1    C39   S    
O5    C1    A    
C9    C10   T    
C26   H6    S    
C17   C21   A    
O8    C4    A    
C6    C12   S    
O9    C5    A    
O14   V2    S    
C22   Br5   S    
C18   Br2   S    
O1    V3    S    
C26   C30   A    
O2    V4    S    
C18   C22   A    
C35   C40   A    
C3    O13   A    
C34   C37   A    
O7    V3    S    
C29   C37   A    
O10   V2    S    
C29   C33   A    
C2    C40   S    
O17   V3    S    
C31   C35   A    
O18   V4    S    
C32   C36   A    
O10   C6    A    
C19   Br3   S    
O15   V3    S    
O12   V4    S    
C21   C25   A    
C23   C27   A    
O6    C2    A    
O16   V4    S    
H3    C15   S    
C20   C24   A    
C28   C32   A    
C32   C40   A    
O9    V1    S    
C4    O14   A    
C13   C17   A    
C15   C19   A    
C27   H7    S    
C24   C28   A    
