data_mof_unit_36758.cif
_audit_creation_date              2012-12-11T15:48:36-0500
_audit_creation_method            fapswitch 2.2
_symmetry_space_group_name_H-M    P1
_symmetry_Int_Tables_number       1
_space_group_crystal_system       triclinic
_cell_length_a                    10.930843
_cell_length_b                    10.957844
_cell_length_c                    18.793588
_cell_angle_alpha                 90.193969
_cell_angle_beta                  90.088701
_cell_angle_gamma                 60.322041
_cell_volume                      1955.76563749

loop_
_atom_site_label
_atom_site_type_symbol
_atom_type_description
_atom_site_fract_x
_atom_site_fract_y
_atom_site_fract_z
_atom_type_partial_charge
C1    C     C_R   0.237860 0.646177 0.609930 0.546905
C2    C     C_3   0.605770 0.606277 0.801099 -0.252544
C3    C     C_3   0.698408 0.673769 0.811978 0.046835
C4    C     C_3   0.670886 0.647223 0.675923 0.060569
C5    C     C_3   0.829061 0.575628 0.695770 -0.242597
C6    C     C_3   0.594571 0.584698 0.720900 -0.212947
C7    C     C_R   0.695672 0.131086 0.818073 -0.024094
C8    C     C_R   0.812998 0.110183 0.778228 0.073865
C9    C     C_R   0.805302 0.119263 0.703967 -0.018069
C10   C     C_R   0.581850 0.128839 0.706856 -0.185265
C11   C     C_R   0.582347 0.134423 0.780151 -0.185877
C12   C     C_R   0.654558 0.622436 0.600560 0.542070
C13   C     C_3   0.893796 0.187554 0.780833 0.085655
C14   C     C_3   0.893455 0.187608 0.699961 -0.198667
C15   C     C_R   0.681382 0.145372 0.668085 -0.004464
C16   C     C_R   0.175164 0.673343 0.833730 0.002439
C17   C     C_R   0.160348 0.573205 0.794379 0.012023
C18   C     C_R   0.168134 0.569580 0.720625 -0.008806
C19   C     C_R   0.191040 0.776866 0.722701 -0.142161
C20   C     C_R   0.191340 0.775167 0.796605 -0.138922
C21   C     C_3   0.244764 0.417596 0.799780 -0.282704
C22   C     C_3   0.253451 0.413761 0.719267 -0.266175
C23   C     C_R   0.631180 0.223434 0.601318 0.540145
C24   C     C_R   0.187548 0.668681 0.683361 0.002145
C25   C     C_R   0.675736 0.679964 0.174170 0.020455
C26   C     C_R   0.796443 0.605490 0.216038 0.049800
C27   C     C_R   0.790768 0.601456 0.288755 0.021864
C28   C     C_R   0.541420 0.762294 0.283271 -0.169808
C29   C     C_R   0.547849 0.765656 0.208768 -0.177888
C30   C     C_3   0.911539 0.456403 0.210790 -0.264676
C31   C     C_3   0.909258 0.452716 0.291200 -0.272948
C32   C     C_R   0.661105 0.670115 0.323333 0.014705
C33   C     C_R   0.641545 0.181326 0.170844 0.021978
C34   C     C_R   0.289280 0.620065 0.393382 0.572084
C35   C     C_R   0.523079 0.201326 0.208679 0.022447
C36   C     C_R   0.523238 0.205515 0.281498 0.027410
C37   C     C_R   0.746565 0.197906 0.281535 -0.164712
C38   C     C_R   0.747025 0.194375 0.207300 -0.168116
C39   C     C_3   0.446049 0.120038 0.208810 -0.269126
C40   C     C_3   0.448529 0.123814 0.289240 -0.282008
C41   C     C_R   0.637436 0.194959 0.319459 0.022002
C42   C     C_R   0.178979 0.663230 0.176167 0.021122
C43   C     C_R   0.205473 0.761006 0.211324 0.029396
C44   C     C_R   0.244454 0.743817 0.281158 0.016067
C45   C     C_R   0.643001 0.624494 0.393049 0.545838
C46   C     C_R   0.255531 0.518335 0.281092 -0.155171
C47   C     C_R   0.217142 0.535113 0.209209 -0.162348
C48   C     C_3   0.109989 0.916146 0.220945 -0.267031
C49   C     C_3   0.150651 0.896550 0.298123 -0.269616
C50   C     C_R   0.261015 0.627283 0.318238 0.017932
C51   C     C_R   0.704177 0.096816 0.894088 0.538234
C52   C     C_R   0.722190 0.687445 0.888468 0.540581
C53   C     C_R   0.118143 0.706616 0.905670 0.542819
C54   C     C_R   0.673785 0.110027 0.102933 0.547196
C55   C     C_R   0.698202 0.691191 0.098810 0.543809
C56   C     C_R   0.615809 0.231685 0.393986 0.539949
C57   C     C_R   0.096655 0.708577 0.111568 0.547211
C58   C     C_3   0.626832 0.819540 0.774355 -0.224416
C59   C     C_3   0.603917 0.804640 0.694423 -0.250440
C60   C     C_3   0.843778 0.582596 0.775829 -0.226810
Cr1   Cr    Cr6+3 0.392960 0.397920 0.502240 1.003673
Cr2   Cr    Cr6+3 0.398340 0.708480 0.501250 0.997756
Cr3   Cr    Cr6+3 0.708670 0.393570 0.496460 0.996598
Cr4   Cr    Cr6+3 0.937650 0.938540 0.007610 1.005513
Cr5   Cr    Cr6+3 0.625330 0.937370 0.994520 1.005571
Cr6   Cr    Cr6+3 0.937940 0.625230 0.001190 1.007831
H1    H     H_    0.697341 0.864835 0.780152 0.145662
H2    H     H_    0.638085 0.471445 0.709774 0.113517
H3    H     H_    0.898354 0.474196 0.797809 0.142894
H4    H     H_    0.888881 0.464026 0.679179 0.137145
H5    H     H_    0.491295 0.131845 0.681500 0.141663
H6    H     H_    0.493950 0.135644 0.806709 0.151752
H7    H     H_    0.834988 0.293343 0.805323 0.100033
H8    H     H_    0.837886 0.292765 0.676026 0.123208
H9    H     H_    0.998072 0.116598 0.675863 0.160777
H10   H     H_    0.206280 0.856714 0.697064 0.155269
H11   H     H_    0.523672 0.892191 0.799476 0.137354
H12   H     H_    0.202168 0.855296 0.824877 0.185707
H13   H     H_    0.181934 0.371360 0.821095 0.150623
H14   H     H_    0.347179 0.383148 0.826776 0.138626
H15   H     H_    0.360674 0.379302 0.699044 0.174185
H16   H     H_    0.196755 0.364425 0.693739 0.137711
H17   H     H_    0.441269 0.823594 0.309084 0.138211
H18   H     H_    0.453444 0.832012 0.178600 0.123897
H19   H     H_    0.009641 0.446429 0.188705 0.143504
H20   H     H_    0.876053 0.387773 0.185124 0.133437
H21   H     H_    0.878689 0.376914 0.311324 0.159314
H22   H     H_    0.489027 0.860396 0.682707 0.133663
H23   H     H_    0.005550 0.444424 0.315938 0.135737
H24   H     H_    0.833249 0.198077 0.309134 0.122522
H25   H     H_    0.837313 0.186103 0.179307 0.120248
H26   H     H_    0.510692 0.013281 0.186811 0.175954
H27   H     H_    0.338364 0.181009 0.186099 0.123146
H28   H     H_    0.342166 0.185908 0.313188 0.130868
H29   H     H_    0.516362 0.019674 0.313985 0.146366
H30   H     H_    0.270644 0.425810 0.308713 0.140315
H31   H     H_    0.207688 0.453671 0.181570 0.115159
H32   H     H_    0.997528 0.947929 0.212933 0.163547
H33   H     H_    0.652557 0.853911 0.661810 0.119941
H34   H     H_    0.147666 0.979211 0.191588 0.130881
H35   H     H_    0.207948 0.952177 0.314082 0.125992
H36   H     H_    0.061299 0.916170 0.333627 0.159177
H37   H     H_    0.909253 0.631389 0.786810 0.145240
H38   H     H_    0.879097 0.629807 0.668404 0.123836
H39   H     H_    0.649925 0.504785 0.829701 0.103864
H40   H     H_    0.499019 0.675965 0.823470 0.119265
H41   H     H_    0.481540 0.636294 0.705963 0.134285
O1    O     O_R   0.507380 0.255700 0.581440 -0.532412
O2    O     O_R   0.524480 0.695810 0.424040 -0.524701
O3    O     O_R   0.736390 0.504290 0.414790 -0.520718
O4    O     O_R   0.691300 0.277290 0.422170 -0.510180
O5    O     O_3   0.499990 0.499990 0.499980 -0.268386
O6    O     O_R   0.089400 0.825690 0.930570 -0.522925
O7    O     O_R   0.818460 0.054440 0.929850 -0.498586
O8    O     O_R   0.606060 0.077150 0.915510 -0.531454
O9    O     O_R   0.646550 0.806680 0.917570 -0.508541
O10   O     O_R   0.837170 0.593410 0.915250 -0.527134
O11   O     O_R   0.065200 0.635530 0.931570 -0.500721
O12   O     O_R   0.280320 0.527350 0.578930 -0.496766
O13   O     O_R   0.068260 0.828890 0.091840 -0.526275
O14   O     O_R   0.798870 0.057410 0.079340 -0.511803
O15   O     O_R   0.584930 0.080350 0.076780 -0.523665
O16   O     O_R   0.626960 0.809650 0.067060 -0.508027
O17   O     O_R   0.816040 0.596610 0.076510 -0.519848
O18   O     O_R   0.045610 0.638500 0.081060 -0.508052
O19   O     O_3   0.833640 0.833710 0.001100 -0.247100
O20   O     O_R   0.260510 0.739590 0.584590 -0.528946
O21   O     O_R   0.532300 0.695080 0.573820 -0.508975
O22   O     O_R   0.744840 0.503500 0.576370 -0.532367
O23   O     O_R   0.699120 0.276560 0.571960 -0.505055
O24   O     O_R   0.498940 0.256500 0.419860 -0.527589
O25   O     O_R   0.272500 0.528080 0.429150 -0.507224
O26   O     O_R   0.252060 0.740380 0.423010 -0.520699
O27   O     O_3   0.029256 0.105623 0.808460 -0.726480
H42   H     H_    0.018762 0.113377 0.860970 0.336047

loop_
_geom_bond_atom_site_label_1
_geom_bond_atom_site_label_2
_ccdc_geom_bond_type
C44   C49   S    
C8    C13   S    
Cr1   O12   S    
C59   H33   S    
C13   O27   S    
C19   C20   A    
C9    C14   S    
C7    C8    A    
C7    C11   A    
C26   C27   A    
C5    H4    S    
C37   H24   S    
C18   C24   A    
C14   H8    S    
Cr2   O26   S    
C28   C29   A    
C10   C15   A    
C57   O18   A    
C30   C31   S    
C45   O2    A    
Cr4   O14   S    
C4    C59   S    
C1    O12   A    
Cr3   O23   S    
Cr3   O5    S    
Cr1   O1    S    
C16   C53   S    
C39   H27   S    
Cr1   O25   S    
C59   H22   S    
C35   C36   A    
C8    C9    A    
C31   H23   S    
Cr6   O10   S    
C6    H41   S    
C30   H20   S    
C60   H37   S    
C43   C48   S    
C56   O4    A    
C58   H11   S    
C3    C60   S    
C15   C23   S    
C54   O15   A    
C5    H38   S    
C34   O25   A    
C21   C22   S    
C28   H17   S    
C37   C41   A    
Cr5   O8    S    
C36   C41   A    
C2    C6    S    
C42   C57   S    
C53   O6    A    
C52   O9    A    
C25   C29   A    
C48   H34   S    
C55   O16   A    
C34   C50   S    
C51   O7    A    
Cr4   O7    S    
C12   O22   A    
C27   C31   S    
C22   H15   S    
C1    O20   A    
C28   C32   A    
C31   H21   S    
C29   H18   S    
C4    C6    S    
C49   H36   S    
C11   H6    S    
C16   C17   A    
C34   O26   A    
C25   C26   A    
C38   H25   S    
C2    H40   S    
C51   O8    A    
Cr6   O19   S    
C23   O23   A    
C35   C39   S    
C43   C44   A    
C41   C56   S    
C37   C38   A    
C36   C40   S    
C16   C20   A    
C21   H13   S    
C17   C18   A    
Cr2   O5    S    
C32   C45   S    
Cr5   O15   S    
C30   H19   S    
C57   O13   A    
C53   O11   A    
C48   C49   S    
C54   O14   A    
C13   H7    S    
C26   C30   S    
Cr4   O19   S    
Cr6   O11   S    
Cr5   O9    S    
Cr6   O17   S    
C4    C12   S    
C42   C43   A    
C40   H29   S    
C22   H16   S    
C39   H26   S    
C39   C40   S    
C49   H35   S    
C45   O3    A    
C44   C50   A    
C33   C54   S    
C46   C47   A    
C19   H10   S    
Cr4   O6    S    
C5    C60   S    
C27   C32   A    
C18   C22   S    
Cr5   O16   S    
C25   C55   S    
C40   H28   S    
C4    C5    S    
C47   H31   S    
C3    C52   S    
O27   H42   S    
C12   O21   A    
C48   H32   S    
C46   C50   A    
C2    H39   S    
C33   C38   A    
Cr4   O13   S    
Cr6   O18   S    
C20   H12   S    
C14   H9    S    
Cr3   O3    S    
C19   C24   A    
C58   C59   S    
C7    C51   S    
Cr5   O19   S    
Cr2   O21   S    
Cr2   O20   S    
Cr2   O2    S    
C60   H3    S    
C23   O1    A    
C21   H14   S    
C6    H2    S    
C33   C35   A    
C2    C3    S    
C42   C47   A    
Cr3   O22   S    
Cr3   O4    S    
C17   C21   S    
C56   O24   A    
C10   C11   A    
Cr1   O24   S    
C10   H5    S    
C3    C58   S    
C58   H1    S    
C46   H30   S    
C1    C24   S    
C55   O17   A    
C52   O10   A    
C13   C14   S    
Cr1   O5    S    
C9    C15   A    
