data_mof_unit_9265.cif
_audit_creation_date              2012-12-10T16:48:12-0500
_audit_creation_method            fapswitch 2.2
_symmetry_space_group_name_H-M    P1
_symmetry_Int_Tables_number       1
_space_group_crystal_system       triclinic
_cell_length_a                    15.837622
_cell_length_b                    8.695148
_cell_length_c                    7.504769
_cell_angle_alpha                 103.211445
_cell_angle_beta                  95.257977
_cell_angle_gamma                 92.260746
_cell_volume                      999.952731117

loop_
_atom_site_label
_atom_site_type_symbol
_atom_type_description
_atom_site_fract_x
_atom_site_fract_y
_atom_site_fract_z
_atom_type_partial_charge
C1    C     C_R   0.497461 0.199790 0.453148 0.881542
C2    C     C_3   0.978234 0.646622 0.575150 0.258249
C3    C     C_1   0.250483 0.501184 0.500034 -0.062191
C4    C     C_1   0.749542 0.499431 0.500337 -0.076819
C5    C     C_3   0.037850 0.549511 0.673192 0.388046
C6    C     C_3   0.962453 0.453381 0.330919 0.317221
C7    C     C_3   0.083305 0.503246 0.498512 -0.159060
C8    C     C_3   0.916883 0.499444 0.505200 -0.168140
C9    C     C_1   0.174900 0.502263 0.497653 0.200552
C10   C     C_1   0.825181 0.499184 0.503929 0.175589
C11   C     C_R   0.502542 0.800210 0.546852 0.879193
C12   C     C_R   0.340058 0.499905 0.500432 0.807681
C13   C     C_R   0.659942 0.500129 0.499590 0.810231
C14   C     C_2   0.496260 0.031645 0.427168 -0.332122
C15   C     C_2   0.503747 0.968355 0.572832 -0.329630
C16   C     C_3   0.975771 0.400748 0.604807 -0.272391
C17   C     C_3   0.024398 0.602079 0.399257 -0.323431
C18   C     C_3   0.021916 0.356420 0.428985 0.280900
Cu1   Cu    Cu3+1 0.509330 0.517380 0.684380 1.011101
Cu2   Cu    Cu3+1 0.490670 0.482620 0.315620 1.010577
H1    H     H_    0.953446 0.313834 0.679372 0.271093
H2    H     H_    0.077829 0.834480 0.096190 0.413430
H3    H     H_    0.046903 0.688295 0.324340 0.254244
H4    H     H_    0.489214 0.959600 0.287028 0.184842
H5    H     H_    0.510794 0.040400 0.712971 0.185293
H6    H     H_    0.434093 0.376428 0.948359 0.237688
H7    H     H_    0.565911 0.623567 0.051639 0.233405
H8    H     H_    0.919493 0.092176 0.303887 0.371176
H9    H     H_    0.078340 0.912807 0.711199 0.361391
H10   H     H_    0.857275 0.610901 0.104680 0.366946
N1    N     N_2   0.476600 0.456420 0.038510 -0.203896
N2    N     N_2   0.523400 0.543580 0.961490 -0.206631
O1    O     O_R   0.506070 0.286130 0.619780 -0.585979
O2    O     O_2   0.103361 0.101942 0.479107 -0.271095
O3    O     O_3   0.967666 0.040234 0.244887 -0.403494
O4    O     O_2   0.893876 0.896497 0.520833 -0.271926
O5    O     O_2   0.888781 0.829943 0.819334 -0.165646
O6    O     O_3   0.028217 0.967117 0.757695 -0.375982
O7    O     O_2   0.963205 0.276350 0.988347 -0.136961
O8    O     O_2   0.826510 0.293194 0.115080 -0.292696
O9    O     O_3   0.886201 0.537747 0.011582 -0.454606
O10   O     O_2   0.108965 0.482118 0.985156 -0.207144
O11   O     O_2   0.177837 0.698335 0.881354 -0.327883
O12   O     O_R   0.493930 0.713870 0.380220 -0.586589
O13   O     O_3   0.036086 0.749487 0.026191 -0.434510
O14   O     O_R   0.490300 0.256770 0.308360 -0.579026
O15   O     O_R   0.509700 0.743230 0.691640 -0.579329
O16   O     O_R   0.386960 0.514660 0.655680 -0.571500
O17   O     O_R   0.613040 0.485340 0.344320 -0.578360
O18   O     O_R   0.371190 0.485310 0.344260 -0.557983
O19   O     O_R   0.628810 0.514690 0.655740 -0.558809
O20   O     O_2   0.108800 0.171180 0.181840 -0.195299
S1    S     S_3+6 0.053691 0.163013 0.332465 0.095269
S2    S     S_3+6 0.944234 0.839248 0.669629 0.128035
S3    S     S_3+6 0.907980 0.384189 0.105642 0.083908
S4    S     S_3+6 0.093768 0.618515 0.896955 0.061529

loop_
_geom_bond_atom_site_label_1
_geom_bond_atom_site_label_2
_ccdc_geom_bond_type
H9    O6    S    
C6    C8    S    
H10   O9    S    
C16   H1    S    
C3    C9    T    
Cu1   O19   S    
O3    S1    S    
C5    S4    S    
C11   O15   A    
N1    N2    D    
O6    S2    S    
C6    S3    S    
C12   O16   A    
O8    S3    D    
C7    C18   S    
C1    O1    A    
C11   O12   A    
C8    C16   S    
C17   H3    S    
C2    C17   S    
C1    C14   S    
Cu2   O17   S    
C13   O17   A    
O5    S2    D    
C2    C8    S    
C8    C10   S    
Cu2   O12   S    
C7    C9    S    
Cu1   O1    S    
C6    C18   S    
Cu1   O15   S    
C1    O14   A    
C15   H5    S    
C2    C5    S    
O4    S2    D    
Cu1   N2    S    
C4    C10   T    
Cu2   O14   S    
O11   S4    D    
H6    N1    S    
H2    O13   S    
O20   S1    D    
H8    O3    S    
O2    S1    D    
C16   C18   S    
C2    S2    S    
C14   H4    S    
C4    C13   S    
C5    C7    S    
C6    C17   S    
C14   C15   D    
O9    S3    S    
C5    C16   S    
Cu2   O18   S    
C3    C12   S    
Cu1   O16   S    
C18   S1    S    
O10   S4    D    
H7    N2    S    
C13   O19   A    
C11   C15   S    
O7    S3    D    
Cu1   Cu2   S    
O13   S4    S    
C12   O18   A    
C7    C17   S    
Cu2   N1    S    
