data_mof_unit_66457.cif
_audit_creation_date              2012-12-10T19:26:41-0500
_audit_creation_method            fapswitch 2.2
_symmetry_space_group_name_H-M    P1
_symmetry_Int_Tables_number       1
_space_group_crystal_system       monoclinic
_cell_length_a                    17.707122
_cell_length_b                    16.480742
_cell_length_c                    11.716197
_cell_angle_alpha                 90.0
_cell_angle_beta                  90.143453
_cell_angle_gamma                 90.0
_cell_volume                      3419.08615558

loop_
_atom_site_label
_atom_site_type_symbol
_atom_type_description
_atom_site_fract_x
_atom_site_fract_y
_atom_site_fract_z
_atom_type_partial_charge
C1    C     C_R   0.355530 0.499987 0.499881 0.877551
C2    C     C_R   0.644470 0.499987 0.500119 0.877552
C3    C     C_R   0.766825 0.535814 0.591735 0.082556
C4    C     C_R   0.233520 0.463823 0.591314 0.085915
C5    C     C_R   0.233174 0.535815 0.408265 0.082556
C6    C     C_R   0.766480 0.463823 0.408685 0.085915
C7    C     C_R   0.727156 0.499916 0.500158 -0.202807
C8    C     C_R   0.272844 0.499916 0.499842 -0.202807
C9    C     C_R   0.885139 0.499846 0.500120 -0.079042
C10   C     C_R   0.114861 0.499846 0.499879 -0.079042
C11   C     C_1   0.966105 0.499868 0.500041 0.103357
C12   C     C_1   0.033895 0.499868 0.499959 0.103357
C13   C     C_R   0.499960 0.500004 0.283614 0.851781
C14   C     C_R   0.500040 0.500004 0.716386 0.851782
C15   C     C_R   0.536044 0.828546 0.587519 0.066589
C16   C     C_R   0.440446 0.171413 0.449783 0.064790
C17   C     C_R   0.463956 0.828546 0.412481 0.066589
C18   C     C_R   0.559554 0.171413 0.550217 0.064790
C19   C     C_R   0.535719 0.742932 0.585084 0.056063
C20   C     C_R   0.442119 0.257034 0.449991 0.060134
C21   C     C_R   0.464281 0.742932 0.414916 0.056063
C22   C     C_R   0.557881 0.257034 0.550009 0.060133
C23   C     C_1   0.500000 0.962738 0.500000 0.104014
C24   C     C_1   0.500000 0.037224 0.500000 0.104290
C25   C     C_1   0.499962 0.500022 0.162118 -0.112350
C26   C     C_1   0.500037 0.500022 0.837881 -0.112350
C27   C     C_1   0.499983 0.500036 0.059795 0.060478
C28   C     C_1   0.500017 0.500036 0.940205 0.060478
C29   C     C_R   0.500000 0.873061 0.500000 0.002420
C30   C     C_R   0.500000 0.126903 0.500000 0.005925
C31   C     C_R   0.846212 0.535998 0.591331 0.162181
C32   C     C_R   0.154135 0.463626 0.590990 0.157184
C33   C     C_R   0.153788 0.535998 0.408669 0.162181
C34   C     C_R   0.845865 0.463626 0.409009 0.157184
Cu1   Cu    Cu3+1 0.500000 0.580420 0.500000 1.000834
Cu2   Cu    Cu3+1 0.500000 0.419580 0.500000 1.002512
H1    H     H_    0.564153 0.709735 0.652146 0.172007
H2    H     H_    0.396519 0.290167 0.409928 0.160531
H3    H     H_    0.435847 0.709735 0.347853 0.172008
H4    H     H_    0.603481 0.290167 0.590072 0.160532
N1    N     N_R   0.500000 0.701220 0.500000 -0.206735
N2    N     N_R   0.500000 0.298780 0.500000 -0.202673
O1    O     O_R   0.391260 0.567930 0.500000 -0.560129
O2    O     O_R   0.608740 0.432070 0.500000 -0.576144
O3    O     O_R   0.608740 0.567930 0.500000 -0.560129
O4    O     O_R   0.391260 0.432070 0.500000 -0.576144
O5    O     O_R   0.500010 0.567910 0.337200 -0.578923
O6    O     O_R   0.499990 0.432090 0.662800 -0.563839
O7    O     O_R   0.499990 0.567910 0.662800 -0.578923
O8    O     O_R   0.500010 0.432090 0.337200 -0.563839
I1    I     I_    0.591302 0.886123 0.726082 -0.200972
I2    I     I_    0.346161 0.113755 0.373306 -0.207957
I3    I     I_    0.408698 0.886123 0.273918 -0.200971
I4    I     I_    0.653838 0.113755 0.626694 -0.207957
I5    I     I_    0.908783 0.590391 0.728141 -0.151057
I6    I     I_    0.092078 0.409099 0.727765 -0.153463
I7    I     I_    0.091217 0.590392 0.271860 -0.151057
I8    I     I_    0.907921 0.409100 0.272234 -0.153464
I9    I     I_    0.706407 0.585952 0.733442 -0.254205
I10   I     I_    0.294489 0.413096 0.732545 -0.225523
I11   I     I_    0.293593 0.585953 0.266558 -0.254206
I12   I     I_    0.705511 0.413097 0.267454 -0.225523

loop_
_geom_bond_atom_site_label_1
_geom_bond_atom_site_label_2
_ccdc_geom_bond_type
C20   H2    S    
Cu1   O7    S    
C5    C8    A    
C20   N2    A    
C11   C12   T    
Cu2   O4    S    
C6    C7    A    
C18   C30   A    
C15   I1    S    
C25   C27   T    
C1    C8    S    
Cu1   O1    S    
C26   C28   T    
C2    C7    S    
C21   H3    S    
C16   C20   A    
C4    C8    A    
Cu1   O5    S    
C6    I12   S    
C18   C22   A    
C17   I3    S    
C5    I11   S    
C4    C32   A    
C14   C26   S    
C3    C31   A    
C9    C11   S    
C13   C25   S    
C22   N2    A    
C10   C12   S    
C21   N1    A    
C23   C29   S    
C32   I6    S    
C15   C29   A    
Cu2   O6    S    
C3    C7    A    
Cu2   N2    S    
C2    O3    A    
C9    C34   A    
Cu1   N1    S    
C24   C30   S    
C1    O4    A    
Cu2   O2    S    
C14   O7    A    
C6    C34   A    
C9    C31   A    
C23   C24   T    
C16   C30   A    
C13   O8    A    
Cu1   O3    S    
C5    C33   A    
C10   C32   A    
C17   C29   A    
C16   I2    S    
C10   C33   A    
C27   C28   S    
C34   I8    S    
C14   O6    A    
C18   I4    S    
C22   H4    S    
C33   I7    S    
C19   H1    S    
C31   I5    S    
C15   C19   A    
C13   O5    A    
C1    O1    A    
C17   C21   A    
C19   N1    A    
Cu2   O8    S    
C2    O2    A    
C4    I10   S    
Cu1   Cu2   S    
C3    I9    S    
