data_mof_unit_55984.cif
_audit_creation_date              2013-03-05T16:35:37-0500
_audit_creation_method            fapswitch 2.2
_symmetry_space_group_name_H-M    P1
_symmetry_Int_Tables_number       1
_space_group_crystal_system       triclinic
_cell_length_a                    7.773803
_cell_length_b                    9.092804
_cell_length_c                    17.260878
_cell_angle_alpha                 90.264751
_cell_angle_beta                  86.262179
_cell_angle_gamma                 90.035518
_cell_volume                      1217.48822886

loop_
_atom_site_label
_atom_site_type_symbol
_atom_site_description
_atom_site_fract_x
_atom_site_fract_y
_atom_site_fract_z
_atom_type_partial_charge
O1    O     O_R   0.357240 0.711600 0.500000 -0.585945
O2    O     O_R   0.642760 0.288400 0.500000 -0.584426
O3    O     O_R   0.642760 0.711600 0.500000 -0.554095
O4    O     O_R   0.357240 0.288400 0.500000 -0.556461
H1    H     H_    0.216115 0.401900 0.890362 0.155994
H2    H     H_    0.786010 0.594940 0.109677 0.158587
C1    C     C_R   0.500056 0.780010 0.499692 0.864281
C2    C     C_R   0.499947 0.219989 0.500270 0.859362
O5    O     O_R   0.340660 0.500000 0.613590 -0.587262
O6    O     O_R   0.659340 0.500000 0.386410 -0.584953
O7    O     O_R   0.626230 0.500000 0.613600 -0.531008
O8    O     O_R   0.373770 0.500000 0.386400 -0.529632
C3    C     C_R   0.478518 0.508445 0.650367 0.834652
C4    C     C_R   0.521461 0.491458 0.349628 0.833824
Cu1   Cu    Cu3+1 0.330920 0.500000 0.500000 1.105740
Cu2   Cu    Cu3+1 0.669080 0.500000 0.500000 1.107228
H3    H     H_    0.336840 0.320177 0.113150 0.165808
H4    H     H_    0.663892 0.678592 0.886818 0.192832
N1    N     N_1   0.923170 0.500000 0.500010 0.002691
N2    N     N_1   0.076830 0.500000 0.499990 0.002461
C5    C     C_R   0.467122 0.524688 0.735011 -0.158185
C6    C     C_R   0.532881 0.474811 0.264985 -0.139673
C7    C     C_R   0.587562 0.609912 0.774572 0.420955
C8    C     C_R   0.411946 0.390035 0.225430 0.384407
C9    C     C_R   0.572435 0.615670 0.855447 -0.220496
C10   C     C_R   0.428133 0.383093 0.144584 -0.236977
C11   C     C_R   0.441981 0.538383 0.897014 0.088084
C12   C     C_R   0.559367 0.459435 0.103012 0.108238
C13   C     C_R   0.318734 0.460561 0.858166 -0.148713
C14   C     C_R   0.682802 0.536990 0.141860 -0.165678
C15   C     C_R   0.330998 0.454047 0.777524 -0.205490
C16   C     C_R   0.669955 0.544224 0.222482 -0.206759
C17   C     C_2   0.438386 0.535338 0.981940 0.131100
C18   C     C_2   0.563027 0.462404 0.018070 0.134432
C19   C     C_1   0.500036 0.934636 0.499867 -0.101658
C20   C     C_1   0.499964 0.065364 0.500086 -0.103270
H5    H     H_    0.764733 0.607640 0.251661 0.189744
H6    H     H_    0.236549 0.390292 0.748326 0.185536
S1    S     S_3+6 0.754714 0.714759 0.726683 0.000185
O9    O     O_2   0.893992 0.613055 0.694139 -0.284074
O10   O     O_2   0.684018 0.801109 0.661935 -0.306958
O11   O     O_3   0.840023 0.832289 0.789273 -0.549975
H7    H     H_    0.937139 0.880071 0.759019 0.380146
S2    S     S_3+6 0.243048 0.287033 0.273360 0.018263
O12   O     O_2   0.312772 0.198796 0.337635 -0.268041
O13   O     O_2   0.105996 0.389604 0.307216 -0.290370
O14   O     O_3   0.154057 0.170653 0.211232 -0.515793
H8    H     H_    0.066370 0.229553 0.186034 0.345616
C21   C     C_3   0.707329 0.379875 0.973825 -0.854187
H9    H     H_    0.786310 0.318102 0.014072 0.238503
H10   H     H_    0.653382 0.299491 0.933271 0.250749
H11   H     H_    0.794049 0.457592 0.940886 0.233131
C22   C     C_3   0.294164 0.618035 0.026164 -0.844319
H12   H     H_    0.215508 0.680111 0.985910 0.245568
H13   H     H_    0.207077 0.540409 0.058965 0.224438
H14   H     H_    0.348164 0.698188 0.066824 0.251842

loop_
_geom_bond_atom_site_label_1
_geom_bond_atom_site_label_2
_geom_bond_distance
_ccdc_geom_bond_type
C15   H6    1.083593 S    
O1    Cu1   1.934760 S    
C9    C11   1.394995 A    
S2    O14   1.683375 S    
C5    C15   1.404684 A    
O7    Cu2   1.967402 S    
N1    N2    1.194501 T    
C10   C12   1.394926 A    
C19   C20   1.188674 T    
O8    Cu1   1.967403 S    
O4    C2    1.272490 A    
C21   H11   1.109166 S    
C4    C6    1.465067 S    
O4    Cu1   1.935013 S    
C22   H13   1.109150 S    
C17   C18   1.360502 D    
O5    Cu1   1.967051 S    
C12   C18   1.464963 S    
C13   C15   1.389989 A    
O6    Cu2   1.967051 S    
C22   H12   1.111178 S    
C11   C17   1.464737 S    
C14   C16   1.389937 A    
O7    C3    1.277445 A    
C8    C10   1.394085 A    
H4    C9    1.082983 S    
C6    C16   1.404836 A    
Cu2   N1    1.975256 S    
C7    S1    1.773797 S    
H3    C10   1.082663 S    
C12   C14   1.395121 A    
H2    C14   1.083532 S    
O8    C4    1.277390 A    
S1    O11   1.682537 S    
H1    C13   1.083572 S    
C7    C9    1.393996 A    
C5    C7    1.421603 A    
C17   C22   1.513026 S    
Cu1   N2    1.975257 S    
C8    S2    1.774697 S    
C6    C8    1.422021 A    
C11   C13   1.395295 A    
O11   H7    0.990815 S    
C3    C5    1.464726 S    
Cu1   Cu2   2.628789 S    
O2    Cu2   1.934761 S    
S2    O12   1.501844 D    
S1    O10   1.502092 D    
C21   H9    1.111181 S    
C2    C20   1.405967 S    
C22   H14   1.110525 S    
S1    O9    1.503386 D    
O5    C3    1.282778 A    
C18   C21   1.512874 S    
O3    C1    1.272512 A    
O1    C1    1.271988 A    
C16   H5    1.083596 S    
C1    C19   1.405975 S    
O2    C2    1.272006 A    
O3    Cu2   1.935012 S    
O14   H8    0.990927 S    
S2    O13   1.503826 D    
C21   H10   1.110535 S    
O6    C4    1.283013 A    
