data_mof_unit_60769.cif
_audit_creation_date              2012-12-10T19:48:18-0500
_audit_creation_method            fapswitch 2.2
_symmetry_space_group_name_H-M    P1
_symmetry_Int_Tables_number       1
_space_group_crystal_system       monoclinic
_cell_length_a                    18.268168
_cell_length_b                    18.268169
_cell_length_c                    30.147122
_cell_angle_alpha                 90.0
_cell_angle_beta                  90.0
_cell_angle_gamma                 89.999887
_cell_volume                      10060.877844

loop_
_atom_site_label
_atom_site_type_symbol
_atom_type_description
_atom_site_fract_x
_atom_site_fract_y
_atom_site_fract_z
_atom_type_partial_charge
C1    C     C_R   0.141260 0.500000 0.000000 0.927272
C2    C     C_1   0.500000 0.217772 0.000000 -0.151174
C3    C     C_R   0.094402 0.595760 0.773213 0.330615
C4    C     C_R   0.404235 0.905603 0.226787 0.330615
C5    C     C_R   0.905623 0.595786 0.226787 0.330613
C6    C     C_R   0.595765 0.094397 0.226787 0.330615
C7    C     C_R   0.094377 0.404214 0.226787 0.330613
C8    C     C_1   0.782228 0.500000 0.000000 -0.151174
C9    C     C_1   0.500000 0.782228 0.000000 -0.151174
C10   C     C_1   0.717772 1.000000 0.500000 -0.151173
C11   C     C_1   1.000000 0.717772 0.500000 -0.151173
C12   C     C_1   0.282228 0.000000 0.500000 -0.151173
C13   C     C_1   0.000000 0.282228 0.500000 -0.151173
C14   C     C_R   1.000000 0.500000 0.086900 0.875098
C15   C     C_R   0.500000 1.000000 0.086900 0.875095
C16   C     C_R   1.000000 0.500000 0.913100 0.875096
C17   C     C_R   0.500000 0.141260 0.000000 0.927272
C18   C     C_R   0.500000 1.000000 0.913100 0.875098
C19   C     C_R   0.500000 0.000000 0.586900 0.875095
C20   C     C_R   1.000000 0.500000 0.586900 0.875097
C21   C     C_R   0.500000 1.000000 0.413100 0.875097
C22   C     C_R   0.000000 0.500000 0.413100 0.875093
C23   C     C_1   0.282578 0.500000 0.000000 -0.140363
C24   C     C_1   0.500000 0.282578 0.000000 -0.140363
C25   C     C_1   0.717422 0.500000 0.000000 -0.140363
C26   C     C_1   0.500000 0.717422 0.000000 -0.140363
C27   C     C_1   0.782578 1.000000 0.500000 -0.140362
C28   C     C_R   0.858740 0.500000 0.000000 0.927273
C29   C     C_1   1.000000 0.782578 0.500000 -0.140361
C30   C     C_1   0.217422 0.000000 0.500000 -0.140362
C31   C     C_1   0.000000 0.217422 0.500000 -0.140361
C32   C     C_R   0.500000 0.359094 0.000000 0.910186
C33   C     C_R   0.640906 0.500000 0.000000 0.910186
C34   C     C_R   0.500000 0.640906 0.000000 0.910186
C35   C     C_R   0.359094 0.500000 0.000000 0.910186
C36   C     C_R   1.000000 0.859094 0.500000 0.910184
C37   C     C_R   0.140906 1.000000 0.500000 0.910184
C38   C     C_R   0.000000 0.140906 0.500000 0.910184
C39   C     C_R   0.500000 0.858740 0.000000 0.927272
C40   C     C_R   0.859094 1.000000 0.500000 0.910184
C41   C     C_R   0.048752 0.455059 0.342741 -0.133928
C42   C     C_R   0.544930 0.048761 0.342741 -0.133925
C43   C     C_R   0.951248 0.544940 0.342741 -0.133927
C44   C     C_R   0.455070 0.951238 0.342741 -0.133925
C45   C     C_R   0.048764 0.544927 0.657259 -0.133925
C46   C     C_R   0.544934 0.951242 0.657259 -0.133925
C47   C     C_R   0.951236 0.455073 0.657259 -0.133924
C48   C     C_R   0.455067 0.048758 0.657259 -0.133925
C49   C     C_R   0.548763 0.955071 0.842741 -0.133925
C50   C     C_R   0.641260 1.000000 0.500000 0.927272
C51   C     C_R   0.044935 0.548757 0.842741 -0.133926
C52   C     C_R   0.451237 0.044929 0.842741 -0.133925
C53   C     C_R   0.955065 0.451243 0.842741 -0.133925
C54   C     C_R   0.548759 0.044932 0.157259 -0.133925
C55   C     C_R   0.044922 0.451232 0.157259 -0.133923
C56   C     C_R   0.451241 0.955068 0.157259 -0.133925
C57   C     C_R   0.955078 0.548768 0.157259 -0.133923
C58   C     C_R   0.000000 0.500000 0.365345 -0.101629
C59   C     C_R   0.500000 1.000000 0.365345 -0.101641
C60   C     C_R   1.000000 0.500000 0.634655 -0.101643
C61   C     C_R   1.000000 0.641260 0.500000 0.927272
C62   C     C_R   0.500000 1.000000 0.634655 -0.101638
C63   C     C_R   0.500000 1.000000 0.865345 -0.101639
C64   C     C_R   1.000000 0.500000 0.865345 -0.101636
C65   C     C_R   0.500000 1.000000 0.134655 -0.101638
C66   C     C_R   1.000000 0.500000 0.134656 -0.101648
C67   C     C_R   0.951369 0.546812 0.296484 -0.010326
C68   C     C_R   0.453198 0.951359 0.296484 -0.010327
C69   C     C_R   0.048631 0.453187 0.296484 -0.010326
C70   C     C_R   0.546802 0.048641 0.296484 -0.010327
C71   C     C_R   0.951357 0.453201 0.703516 -0.010327
C72   C     C_R   0.358740 1.000000 0.500000 0.927273
C73   C     C_R   0.453195 0.048637 0.703516 -0.010325
C74   C     C_R   0.048643 0.546799 0.703516 -0.010327
C75   C     C_R   0.546806 0.951363 0.703516 -0.010325
C76   C     C_R   0.451358 0.046801 0.796484 -0.010328
C77   C     C_R   0.953193 0.451364 0.796484 -0.010325
C78   C     C_R   0.548642 0.953199 0.796484 -0.010329
C79   C     C_R   0.046807 0.548636 0.796484 -0.010325
C80   C     C_R   0.451362 0.953196 0.203516 -0.010326
C81   C     C_R   0.953206 0.548648 0.203516 -0.010327
C82   C     C_R   0.548638 0.046804 0.203516 -0.010326
C83   C     C_R   1.000000 0.358740 0.500000 0.927272
C84   C     C_R   0.046794 0.451352 0.203516 -0.010328
C85   C     C_R   0.000000 0.500000 0.273206 -0.032518
C86   C     C_R   0.500000 1.000000 0.273206 -0.032518
C87   C     C_R   1.000000 0.500000 0.726794 -0.032519
C88   C     C_R   0.500000 0.000000 0.726794 -0.032520
C89   C     C_R   0.500000 1.000000 0.773206 -0.032517
C90   C     C_R   1.000000 0.500000 0.773206 -0.032520
C91   C     C_R   0.500000 1.000000 0.226794 -0.032519
C92   C     C_R   0.000000 0.500000 0.226795 -0.032517
C93   C     C_R   0.904250 0.594414 0.273213 0.330616
C94   C     C_1   0.217772 0.500000 0.000000 -0.151174
C95   C     C_R   0.405608 0.904230 0.273213 0.330615
C96   C     C_R   0.095750 0.405586 0.273213 0.330615
C97   C     C_R   0.594392 0.095770 0.273213 0.330615
C98   C     C_R   0.904225 0.405613 0.726787 0.330614
C99   C     C_R   0.405600 0.095763 0.726787 0.330614
C100  C     C_R   0.095775 0.594387 0.726787 0.330615
C101  C     C_R   0.594400 0.904237 0.726787 0.330614
C102  C     C_R   0.404227 0.094390 0.773213 0.330614
C103  C     C_R   0.905598 0.404240 0.773213 0.330616
C104  C     C_R   0.595773 0.905610 0.773213 0.330614
Cl1   Cl    Cl    0.843307 0.653558 0.301672 -0.487237
Cl2   Cl    Cl    0.846461 0.343291 0.801672 -0.487238
Cl3   Cl    Cl    0.656731 0.846481 0.801672 -0.487234
Cl4   Cl    Cl    0.153539 0.656709 0.801672 -0.487238
Cl5   Cl    Cl    0.343282 0.846470 0.198328 -0.487237
Cl6   Cl    Cl    0.846504 0.656751 0.198328 -0.487236
Cl7   Cl    Cl    0.656718 0.153530 0.198328 -0.487237
Cl8   Cl    Cl    0.153497 0.343249 0.198328 -0.487235
Cl9   Cl    Cl    0.346478 0.843274 0.301672 -0.487237
Cl10  Cl    Cl    0.156693 0.346442 0.301672 -0.487237
Cl11  Cl    Cl    0.653522 0.156726 0.301672 -0.487237
Cl12  Cl    Cl    0.843266 0.346487 0.698328 -0.487237
Cl13  Cl    Cl    0.346466 0.156714 0.698328 -0.487239
Cl14  Cl    Cl    0.156734 0.653513 0.698328 -0.487237
Cl15  Cl    Cl    0.653534 0.843286 0.698328 -0.487239
Cl16  Cl    Cl    0.343270 0.153519 0.801672 -0.487234
H1    H     H_    0.085307 0.420696 0.361840 0.199166
H2    H     H_    0.079294 0.585315 0.861840 0.199170
H3    H     H_    0.414674 0.079283 0.861840 0.199173
H4    H     H_    0.920706 0.414685 0.861840 0.199170
H5    H     H_    0.585319 0.079289 0.138160 0.199171
H6    H     H_    0.079272 0.414664 0.138160 0.199178
H7    H     H_    0.414681 0.920711 0.138160 0.199171
H8    H     H_    0.920728 0.585336 0.138160 0.199178
H9    H     H_    0.579285 0.085323 0.361840 0.199173
H10   H     H_    0.914693 0.579303 0.361840 0.199166
H11   H     H_    0.420715 0.914676 0.361840 0.199173
H12   H     H_    0.085327 0.579280 0.638160 0.199175
H13   H     H_    0.579291 0.914683 0.638160 0.199171
H14   H     H_    0.914672 0.420720 0.638160 0.199175
H15   H     H_    0.420709 0.085317 0.638160 0.199171
H16   H     H_    0.585326 0.920717 0.861840 0.199173
O1    O     O_R   0.107310 0.560570 0.000010 -0.610707
O2    O     O_R   0.939430 0.607310 0.500010 -0.610707
O3    O     O_R   0.392690 0.939430 0.500010 -0.610707
O4    O     O_R   0.060570 0.392690 0.500010 -0.610707
O5    O     O_R   0.607310 0.939430 0.499990 -0.610707
O6    O     O_R   0.939430 0.392690 0.499990 -0.610707
O7    O     O_R   0.392690 0.060570 0.499990 -0.610707
O8    O     O_R   0.060570 0.607310 0.499990 -0.610707
O9    O     O_R   0.999950 0.560580 0.066080 -0.612092
O10   O     O_R   0.439420 0.999950 0.066080 -0.612089
O11   O     O_R   0.000050 0.439420 0.066080 -0.612092
O12   O     O_R   0.439430 0.107310 0.000010 -0.610707
O13   O     O_R   0.560580 0.000050 0.066080 -0.612089
O14   O     O_R   0.999950 0.439420 0.933920 -0.612088
O15   O     O_R   0.439420 0.000050 0.933920 -0.612090
O16   O     O_R   0.000050 0.560580 0.933920 -0.612089
O17   O     O_R   0.560580 0.999950 0.933920 -0.612091
O18   O     O_R   0.499950 0.060580 0.566080 -0.612089
O19   O     O_R   0.939420 0.499950 0.566080 -0.612090
O20   O     O_R   0.500050 0.939420 0.566080 -0.612089
O21   O     O_R   0.060580 0.500050 0.566080 -0.612091
O22   O     O_R   0.499950 0.939420 0.433920 -0.612090
O23   O     O_R   0.892690 0.439430 0.000010 -0.610707
O24   O     O_R   0.939420 0.500050 0.433920 -0.612087
O25   O     O_R   0.500050 0.060580 0.433920 -0.612090
O26   O     O_R   0.060580 0.499950 0.433920 -0.612087
O27   O     O_R   0.499980 0.392670 0.037330 -0.607267
O28   O     O_R   0.607330 0.499980 0.037330 -0.607268
O29   O     O_R   0.500020 0.607330 0.037330 -0.607267
O30   O     O_R   0.392670 0.500020 0.037330 -0.607268
O31   O     O_R   0.499980 0.607330 0.962670 -0.607265
O32   O     O_R   0.607330 0.500020 0.962670 -0.607264
O33   O     O_R   0.500020 0.392670 0.962670 -0.607265
O34   O     O_R   0.560570 0.892690 0.000010 -0.610707
O35   O     O_R   0.392670 0.499980 0.962670 -0.607264
O36   O     O_R   0.999980 0.892670 0.537330 -0.607267
O37   O     O_R   0.107330 0.999980 0.537330 -0.607266
O38   O     O_R   0.000020 0.107330 0.537330 -0.607267
O39   O     O_R   0.892670 0.000020 0.537330 -0.607266
O40   O     O_R   0.999980 0.107330 0.462670 -0.607263
O41   O     O_R   0.107330 0.000020 0.462670 -0.607264
O42   O     O_R   0.000020 0.892670 0.462670 -0.607263
O43   O     O_R   0.892670 0.999980 0.462670 -0.607264
O44   O     O_R   0.107310 0.439430 0.999990 -0.610707
O45   O     O_R   0.439430 0.892690 0.999990 -0.610707
O46   O     O_R   0.892690 0.560570 0.999990 -0.610707
O47   O     O_R   0.560570 0.107310 0.999990 -0.610707
O48   O     O_R   0.607310 0.060570 0.500010 -0.610707
Zn1   Zn    Zn3+2 0.000000 0.580890 0.000000 1.045042
Zn2   Zn    Zn3+2 0.500000 0.500000 0.950170 1.063257
Zn3   Zn    Zn3+2 1.000000 1.000000 0.549830 1.063253
Zn4   Zn    Zn3+2 0.000000 0.000000 0.450170 1.063264
Zn5   Zn    Zn3+2 0.419110 0.000000 0.000000 1.045042
Zn6   Zn    Zn3+2 0.000000 0.419110 0.000000 1.045042
Zn7   Zn    Zn3+2 0.580890 0.000000 0.000000 1.045041
Zn8   Zn    Zn3+2 0.500000 0.080890 0.500000 1.045040
Zn9   Zn    Zn3+2 0.919110 0.500000 0.500000 1.045040
Zn10  Zn    Zn3+2 0.500000 0.919110 0.500000 1.045040
Zn11  Zn    Zn3+2 0.080890 0.500000 0.500000 1.045040
Zn12  Zn    Zn3+2 0.500000 0.500000 0.049830 1.063246

loop_
_geom_bond_atom_site_label_1
_geom_bond_atom_site_label_2
_ccdc_geom_bond_type
C10   C27   T    
C72   O7    A    
C4    Cl5   S    
C45   C60   A    
C38   O40   A    
C49   C63   A    
C20   O19   A    
C35   O35   A    
C21   O22   A    
C48   H15   S    
O20   Zn10  S    
C42   C70   A    
C57   C66   A    
C32   O33   A    
C69   C96   A    
C3    C79   A    
C57   H8    S    
C69   C85   A    
C54   C65   A    
C49   C78   A    
C44   H11   S    
C7    C96   A    
C14   O9    A    
O22   Zn10  S    
O41   Zn4   S    
C46   C62   A    
C6    C82   A    
C15   O13   A    
O30   Zn12  S    
O33   Zn2   S    
C21   C59   S    
C39   O34   A    
C86   C91   A    
C22   O26   A    
C1    O44   A    
C61   O2    A    
C38   O38   A    
O14   Zn6   S    
C5    Cl6   S    
O36   Zn3   S    
C56   C65   A    
C15   C65   S    
C32   O27   A    
C9    C39   S    
C35   O30   A    
C68   C86   A    
C7    Cl8   S    
C6    Cl7   S    
C56   H7    S    
C41   H1    S    
C28   O46   A    
C83   O4    A    
C79   C90   A    
C43   C58   A    
C93   Cl1   S    
C47   C60   A    
C81   C92   A    
O45   Zn5   S    
C3    C100  A    
C26   C34   S    
C72   O3    A    
C1    C94   S    
O26   Zn11  S    
O7    Zn8   S    
O48   Zn8   S    
O10   Zn5   S    
C74   C87   A    
C20   C60   S    
C34   O29   A    
C52   C63   A    
O3    Zn10  S    
C76   C89   A    
O42   Zn4   S    
C15   O10   A    
C7    C84   A    
C12   C72   S    
C2    C17   S    
C8    C25   T    
O23   Zn6   S    
C96   Cl10  S    
O25   Zn8   S    
C46   C75   A    
C54   H5    S    
C85   C92   A    
C9    C26   T    
O40   Zn4   S    
O1    Zn1   S    
C78   C89   A    
C76   C102  A    
C71   C98   A    
C77   C90   A    
O13   Zn7   S    
C68   C95   A    
O32   Zn2   S    
C78   C104  A    
C101  Cl15  S    
C6    C97   A    
C33   O28   A    
C36   O42   A    
O8    Zn11  S    
C74   C100  A    
O43   Zn4   S    
C52   C76   A    
O31   Zn2   S    
C37   O37   A    
O34   Zn7   S    
C53   H4    S    
C28   O23   A    
C82   C91   A    
C30   C37   S    
O9    Zn1   S    
C45   C74   A    
C19   O20   A    
O46   Zn1   S    
C103  Cl2   S    
C53   C77   A    
C24   C32   S    
C73   C88   A    
C22   C58   S    
O19   Zn9   S    
C16   C64   S    
O38   Zn3   S    
C99   Cl13  S    
C4    C95   A    
C5    C81   A    
C17   O47   A    
C61   O8    A    
C98   Cl12  S    
C29   C36   S    
C55   H6    S    
C27   C40   S    
C17   O12   A    
O28   Zn12  S    
C14   C66   S    
C36   O36   A    
C52   H3    S    
C16   O16   A    
C84   C92   A    
C47   C71   A    
C39   O45   A    
C18   O17   A    
C71   C87   A    
C49   H16   S    
C101  C104  A    
C23   C35   S    
C20   O21   A    
C47   H14   S    
C2    C24   T    
C8    C28   S    
C57   C81   A    
C44   C68   A    
C33   O32   A    
C100  Cl14  S    
C40   O43   A    
C18   O15   A    
C10   C50   S    
O29   Zn12  S    
C48   C62   A    
C54   C82   A    
C55   C66   A    
C1    O1    A    
C41   C69   A    
O17   Zn7   S    
O2    Zn9   S    
O12   Zn5   S    
C73   C99   A    
O18   Zn8   S    
O37   Zn3   S    
C75   C101  A    
O35   Zn2   S    
C12   C30   T    
O21   Zn11  S    
C48   C73   A    
C13   C31   T    
C43   H10   S    
C50   O48   A    
C51   C64   A    
O16   Zn1   S    
C11   C61   S    
C40   O39   A    
O47   Zn7   S    
C42   C59   A    
C41   C58   A    
C83   O6    A    
C5    C93   A    
C70   C97   A    
C4    C80   A    
C3    Cl4   S    
C37   O41   A    
C97   Cl11  S    
C13   C83   S    
C56   C80   A    
C31   C38   S    
C102  Cl16  S    
C80   C91   A    
O11   Zn6   S    
C44   C59   A    
C98   C103  A    
O44   Zn6   S    
C51   H2    S    
C46   H13   S    
C67   C85   A    
C22   O24   A    
O27   Zn12  S    
C95   Cl9   S    
C14   O11   A    
C53   C64   A    
O6    Zn9   S    
C42   H9    S    
O5    Zn10  S    
C18   C63   S    
O4    Zn11  S    
C51   C79   A    
C50   O5    A    
O39   Zn3   S    
C23   C94   T    
C75   C88   A    
O15   Zn5   S    
C99   C102  A    
C88   C89   A    
C11   C29   T    
C45   H12   S    
C43   C67   A    
C87   C90   A    
C77   C103  A    
C67   C93   A    
C19   O18   A    
C16   O14   A    
C19   C62   S    
C55   C84   A    
C104  Cl3   S    
C34   O31   A    
C25   C33   S    
O24   Zn9   S    
C21   O25   A    
C70   C86   A    
