data_mof_unit_59039.cif
_audit_creation_date              2012-12-10T18:51:30-0500
_audit_creation_method            fapswitch 2.2
_symmetry_space_group_name_H-M    P1
_symmetry_Int_Tables_number       1
_space_group_crystal_system       triclinic
_cell_length_a                    10.778607
_cell_length_b                    10.003265
_cell_length_c                    10.472689
_cell_angle_alpha                 88.957133
_cell_angle_beta                  86.98692
_cell_angle_gamma                 89.818459
_cell_volume                      1127.42797849

loop_
_atom_site_label
_atom_site_type_symbol
_atom_type_description
_atom_site_fract_x
_atom_site_fract_y
_atom_site_fract_z
_atom_type_partial_charge
C1    C     C_R   0.873992 0.498589 0.477217 -0.423341
C2    C     C_R   0.129167 0.503083 0.476685 -0.431511
C3    C     C_R   0.260571 0.500796 0.494900 0.981820
C4    C     C_R   0.740156 0.499555 0.493734 0.947324
C5    C     C_R   0.499568 0.500521 0.257711 0.828999
C6    C     C_R   0.500764 0.499134 0.742093 0.872583
C7    C     C_3   0.407684 0.578262 0.044127 -0.173733
C8    C     C_3   0.593052 0.419151 0.954922 -0.161466
C9    C     C_3   0.518203 0.624046 0.954673 -0.076396
C10   C     C_3   0.482603 0.373407 0.044716 -0.108122
C11   C     C_3   0.390726 0.452356 0.963981 -0.198093
C12   C     C_3   0.610085 0.545029 0.035215 -0.180189
C13   C     C_3   0.501083 0.498063 0.877132 0.017647
C14   C     C_3   0.499628 0.499865 0.122330 0.034360
C15   C     C_R   0.427518 0.070378 0.588416 0.154140
C16   C     C_R   0.555525 0.933037 0.400843 0.161070
C17   C     C_R   0.568923 0.073586 0.410007 0.182592
C18   C     C_R   0.431027 0.927041 0.591494 0.161673
C19   C     C_R   0.067805 0.381896 0.458129 0.298508
C20   C     C_R   0.937377 0.620351 0.452452 0.340252
C21   C     C_R   0.940797 0.377404 0.481733 0.357383
C22   C     C_R   0.063840 0.625348 0.470845 0.420805
H1    H     H_    0.301362 0.414839 0.930754 0.162388
H2    H     H_    0.699888 0.582451 0.066984 0.132596
H3    H     H_    0.331981 0.643378 0.082670 0.165233
H4    H     H_    0.668189 0.354258 0.913790 0.148767
H5    H     H_    0.533531 0.726554 0.914657 0.184197
H6    H     H_    0.467785 0.270925 0.084995 0.181366
N1    N     N_R   0.500000 0.857200 0.500000 -0.141970
N2    N     N_R   0.500000 0.142800 0.500000 -0.151144
O1    O     O_R   0.316770 0.614620 0.499990 -0.558760
O2    O     O_R   0.683230 0.385380 0.500010 -0.552679
O3    O     O_R   0.683230 0.614620 0.500010 -0.576210
O4    O     O_R   0.316770 0.385380 0.499990 -0.560377
O5    O     O_R   0.499970 0.614650 0.313950 -0.618529
O6    O     O_R   0.500030 0.385350 0.686050 -0.603336
O7    O     O_R   0.500030 0.614650 0.686050 -0.608704
O8    O     O_R   0.499970 0.385350 0.313950 -0.609831
Zn1   Zn    Zn3+2 0.500000 0.653120 0.500000 1.005475
Zn2   Zn    Zn3+2 0.500000 0.346880 0.500000 1.015003
I1    I     I_    0.302703 0.172129 0.718995 -0.326203
I2    I     I_    0.561507 0.871293 0.207250 -0.423798
I3    I     I_    0.696458 0.175386 0.278481 -0.306156
I4    I     I_    0.310347 0.823992 0.728643 -0.273494
O9    O     O_3   0.129608 0.267336 0.418067 -0.553937
C23   C     C_3   0.159568 0.282325 0.285291 0.161408
H7    H     H_    0.229434 0.362901 0.265940 0.118920
H8    H     H_    0.075272 0.305952 0.231563 0.131970
C24   C     C_3   0.214442 0.152896 0.234107 -0.797619
H9    H     H_    0.141710 0.074716 0.240200 0.238297
H10   H     H_    0.246657 0.167140 0.132317 0.215778
H11   H     H_    0.294390 0.121051 0.290249 0.265839
O10   O     O_3   0.879707 0.730133 0.399357 -0.585242
C25   C     C_3   0.859173 0.702997 0.269286 0.110440
H12   H     H_    0.761464 0.671113 0.262670 0.191222
H13   H     H_    0.919395 0.622171 0.226842 0.091411
C26   C     C_3   0.881846 0.828089 0.186201 -0.801149
H14   H     H_    0.982435 0.843503 0.164594 0.232215
H15   H     H_    0.837217 0.817032 0.093808 0.233171
H16   H     H_    0.843391 0.917207 0.235605 0.301840
O11   O     O_3   0.882064 0.254613 0.492006 -0.538186
C27   C     C_3   0.902734 0.196461 0.612999 0.157337
H17   H     H_    0.869902 0.263977 0.691392 0.109544
H18   H     H_    0.002945 0.173329 0.622454 0.189415
C28   C     C_3   0.830801 0.066041 0.628037 -0.734991
H19   H     H_    0.858786 0.997753 0.549049 0.281103
H20   H     H_    0.850357 0.016646 0.720671 0.207814
H21   H     H_    0.729589 0.086292 0.626471 0.244817
O12   O     O_3   0.120314 0.744780 0.501016 -0.564924
C29   C     C_3   0.134797 0.836085 0.396271 0.223874
H22   H     H_    0.192313 0.919922 0.427950 0.180518
H23   H     H_    0.045575 0.883045 0.373630 0.191178
C30   C     C_3   0.202740 0.778264 0.277229 -0.965808
H24   H     H_    0.211062 0.855476 0.199998 0.239881
H25   H     H_    0.297697 0.747237 0.299539 0.308034
H26   H     H_    0.152139 0.691765 0.240534 0.225692

loop_
_geom_bond_atom_site_label_1
_geom_bond_atom_site_label_2
_ccdc_geom_bond_type
C15   C18   A    
C1    C21   A    
C8    C13   S    
C8    H4    S    
C30   H24   S    
O9    C23   S    
C7    C11   S    
C23   C24   S    
O3    Zn1   S    
O4    Zn2   S    
C19   C21   A    
C26   H15   S    
C4    O3    A    
C9    C13   S    
C27   H18   S    
C23   H7    S    
C7    C14   S    
C6    O6    A    
C16   C17   A    
C24   H10   S    
C2    C22   A    
C29   H22   S    
C22   O12   S    
C21   O11   S    
C24   H11   S    
C5    O8    A    
C17   N2    A    
C30   H25   S    
O12   C29   S    
C23   H8    S    
C25   H13   S    
O6    Zn2   S    
C15   I1    S    
C10   C14   S    
C26   H16   S    
C3    O4    A    
C28   H20   S    
C16   N1    A    
O10   C25   S    
O5    Zn1   S    
C17   I3    S    
C27   H17   S    
C18   I4    S    
C8    C12   S    
C28   H21   S    
N1    Zn1   S    
C29   C30   S    
C6    O7    A    
N2    Zn2   S    
C18   N1    A    
C3    O1    A    
C5    C14   S    
C4    O2    A    
C12   C14   S    
C24   H9    S    
C30   H26   S    
C16   I2    S    
C9    H5    S    
C15   N2    A    
C10   H6    S    
C7    C9    S    
C25   H12   S    
C1    C20   A    
C27   C28   S    
C2    C19   A    
C20   C22   A    
C20   O10   S    
C19   O9    S    
C12   H2    S    
C7    H3    S    
C1    C4    S    
C2    C3    S    
O7    Zn1   S    
C6    C13   S    
O8    Zn2   S    
C11   C13   S    
C26   H14   S    
C5    O5    A    
C11   H1    S    
O1    Zn1   S    
O2    Zn2   S    
O11   C27   S    
C9    C12   S    
C10   C11   S    
C8    C10   S    
C28   H19   S    
C29   H23   S    
C25   C26   S    
