data_mof_unit_8368.cif
_audit_creation_date              2013-03-05T15:55:54-0500
_audit_creation_method            fapswitch 2.2
_symmetry_space_group_name_H-M    P1
_symmetry_Int_Tables_number       1
_space_group_crystal_system       triclinic
_cell_length_a                    21.725993
_cell_length_b                    7.217452
_cell_length_c                    14.886172
_cell_angle_alpha                 89.868608
_cell_angle_beta                  107.208101
_cell_angle_gamma                 89.956879
_cell_volume                      2229.74845155

loop_
_atom_site_label
_atom_site_type_symbol
_atom_site_description
_atom_site_fract_x
_atom_site_fract_y
_atom_site_fract_z
_atom_type_partial_charge
O1    O     O_R   0.335860 0.638190 0.002110 -0.549552
O2    O     O_R   0.664140 0.361810 0.997890 -0.555908
O3    O     O_R   0.164140 0.138190 0.997890 -0.549856
O4    O     O_R   0.835860 0.861810 0.002110 -0.556360
O5    O     O_R   0.217530 0.305920 0.861960 -0.574507
O6    O     O_R   0.782470 0.694080 0.138040 -0.588310
O7    O     O_R   0.282470 0.805920 0.138040 -0.576117
O8    O     O_R   0.717530 0.194080 0.861960 -0.585468
C1    C     C_R   0.204923 0.476620 0.825805 0.943112
C2    C     C_R   0.794736 0.522830 0.174211 0.941952
C3    C     C_R   0.295038 0.976076 0.174249 0.945873
C4    C     C_R   0.705235 0.023407 0.825791 0.940850
O9    O     O_R   0.338690 0.308320 0.993240 -0.577976
O10   O     O_R   0.661310 0.691680 0.006760 -0.571281
O11   O     O_R   0.161310 0.808320 0.006760 -0.578147
O12   O     O_R   0.838690 0.191680 0.993240 -0.570752
O13   O     O_R   0.286170 0.140430 0.130100 -0.590619
O14   O     O_R   0.713830 0.859570 0.869900 -0.574128
O15   O     O_R   0.213830 0.640430 0.869900 -0.588207
O16   O     O_R   0.786170 0.359570 0.130100 -0.574291
C5    C     C_R   0.364770 0.478086 0.997367 0.975929
C6    C     C_R   0.635137 0.522016 0.002288 0.984124
C7    C     C_R   0.135223 0.978152 0.002609 0.979536
C8    C     C_R   0.864849 0.021936 0.997642 0.982684
O17   O     O_3   0.232630 0.472410 0.044750 -0.256597
O18   O     O_3   0.767370 0.527590 0.955250 -0.254728
O19   O     O_3   0.267370 0.972410 0.955250 -0.255340
O20   O     O_3   0.732630 0.027590 0.044750 -0.256225
V1    V     V_3+5 0.253220 0.196620 0.991700 1.303889
V2    V     V_3+5 0.746780 0.803380 0.008300 1.309845
V3    V     V_3+5 0.246780 0.696620 0.008300 1.303576
V4    V     V_3+5 0.753220 0.303380 0.991700 1.312225
C9    C     C_R   0.030707 0.830666 0.002323 -0.223237
C10   C     C_R   0.969576 0.169802 0.998758 -0.145081
C11   C     C_R   0.469472 0.330660 0.998153 -0.224082
C12   C     C_R   0.530193 0.669848 0.000537 -0.147064
H1    H     H_    0.053225 0.698077 0.003665 0.236654
H2    H     H_    0.947126 0.302312 0.997877 0.232041
H3    H     H_    0.447111 0.198059 0.997215 0.236523
H4    H     H_    0.552461 0.802364 0.000856 0.232020
C13   C     C_R   0.965862 0.836241 0.999984 0.418337
C14   C     C_R   0.034439 0.164273 0.001043 0.456584
C15   C     C_R   0.534256 0.336289 0.000193 0.420127
C16   C     C_R   0.465307 0.664267 0.998135 0.457549
C17   C     C_R   0.933919 0.008224 0.998234 -0.341353
C18   C     C_R   0.066286 0.992171 0.002491 -0.336178
C19   C     C_R   0.566054 0.508310 0.001637 -0.341804
C20   C     C_R   0.433707 0.492115 0.997494 -0.336032
C21   C     C_R   0.677279 0.012602 0.723748 -0.124233
C22   C     C_R   0.323776 0.977346 0.276448 -0.129848
C23   C     C_R   0.822854 0.509104 0.276200 -0.126583
C24   C     C_R   0.176284 0.480735 0.723662 -0.125969
C25   C     C_R   0.690389 0.985973 0.568888 -0.130299
C26   C     C_R   0.313637 0.907988 0.430189 -0.130857
C27   C     C_R   0.810450 0.443111 0.428961 -0.129286
C28   C     C_R   0.188293 0.447786 0.568382 -0.131347
C29   C     C_R   0.717017 0.012180 0.665311 -0.163205
C30   C     C_R   0.285291 0.940265 0.334609 -0.161729
C31   C     C_R   0.783213 0.481257 0.333625 -0.163483
C32   C     C_R   0.215706 0.468832 0.664963 -0.162701
C33   C     C_R   0.610825 0.987196 0.685590 -0.106876
C34   C     C_R   0.390960 0.981264 0.314314 -0.117132
C35   C     C_R   0.889844 0.498118 0.314308 -0.114925
C36   C     C_R   0.109223 0.470704 0.685502 -0.111202
C37   C     C_R   0.583262 0.946218 0.589149 0.126202
C38   C     C_R   0.421086 0.930937 0.409230 0.127124
C39   C     C_R   0.918383 0.443328 0.408842 0.126578
C40   C     C_R   0.080526 0.432792 0.588868 0.127695
C41   C     C_R   0.623960 0.954081 0.530398 0.121901
C42   C     C_R   0.381016 0.902611 0.467855 0.119059
C43   C     C_R   0.877564 0.424431 0.466977 0.119990
C44   C     C_R   0.121221 0.430007 0.529938 0.121585
C45   C     C_R   0.516224 0.907025 0.548633 -0.118657
C46   C     C_R   0.489502 0.914098 0.448523 -0.117707
C47   C     C_R   0.986203 0.414282 0.448249 -0.117970
C48   C     C_R   0.012688 0.405417 0.548337 -0.118692
C49   C     C_R   0.532502 0.899276 0.392578 0.352050
C50   C     C_R   0.474871 0.857422 0.603489 0.359519
C51   C     C_R   0.970174 0.365172 0.602857 0.356912
C52   C     C_R   0.028644 0.389229 0.392159 0.355446
C53   C     C_R   0.598599 0.924437 0.434126 -0.313056
C54   C     C_R   0.408160 0.861058 0.562773 -0.311671
C55   C     C_R   0.903602 0.380113 0.561768 -0.311128
C56   C     C_R   0.095144 0.402487 0.433565 -0.314796
H5    H     H_    0.630903 0.915741 0.390968 0.180071
H6    H     H_    0.377053 0.825133 0.605261 0.179123
H7    H     H_    0.871582 0.351355 0.603838 0.177801
H8    H     H_    0.127051 0.385691 0.390209 0.180264
H9    H     H_    0.418617 0.021310 0.267985 0.161917
H10   H     H_    0.581569 0.003179 0.732384 0.167144
H11   H     H_    0.080523 0.492688 0.732637 0.164753
H12   H     H_    0.918626 0.533082 0.268746 0.166907
H13   H     H_    0.233349 0.933403 0.305632 0.128147
H14   H     H_    0.768571 0.030987 0.694423 0.130130
H15   H     H_    0.267666 0.474056 0.694072 0.128294
H16   H     H_    0.731262 0.486994 0.304405 0.129741
H17   H     H_    0.721900 0.988290 0.524421 0.126825
H18   H     H_    0.282818 0.881537 0.474282 0.127146
H19   H     H_    0.778907 0.424080 0.472678 0.127536
H20   H     H_    0.219700 0.441323 0.523822 0.126528
N1    N     N_R   0.933433 0.664347 0.998625 0.230149
O21   O     O_R   0.930262 0.591707 0.077207 -0.393337
O22   O     O_R   0.899226 0.595712 0.918715 -0.387770
N2    N     N_R   0.067040 0.336170 0.002938 0.229867
O23   O     O_R   0.070485 0.409356 0.924617 -0.386240
O24   O     O_R   0.101910 0.402682 0.082962 -0.377366
N3    N     N_R   0.566651 0.164371 0.000948 0.230254
O25   O     O_R   0.569122 0.092503 0.921995 -0.400568
O26   O     O_R   0.601175 0.094274 0.080526 -0.381223
N4    N     N_R   0.432318 0.836147 0.994627 0.229700
O27   O     O_R   0.426657 0.908253 0.071824 -0.377074
O28   O     O_R   0.399569 0.904509 0.913633 -0.382332
N5    N     N_R   0.511989 0.830664 0.297747 0.231108
O29   O     O_R   0.472976 0.689867 0.276692 -0.395119
O30   O     O_R   0.540807 0.885629 0.237200 -0.359861
N6    N     N_R   0.499103 0.775709 0.695450 0.226626
O31   O     O_R   0.543741 0.649022 0.711042 -0.402559
O32   O     O_R   0.470160 0.806162 0.759090 -0.366538
N7    N     N_R   0.992389 0.281306 0.694579 0.231274
O33   O     O_R   0.035059 0.149002 0.710301 -0.397811
O34   O     O_R   0.962166 0.312672 0.756624 -0.368592
N8    N     N_R   0.006382 0.322137 0.297126 0.228207
O35   O     O_R   0.964717 0.187618 0.275891 -0.402542
O36   O     O_R   0.034790 0.374203 0.235602 -0.355519

loop_
_geom_bond_atom_site_label_1
_geom_bond_atom_site_label_2
_geom_bond_distance
_ccdc_geom_bond_type
O17   V3    1.761532 S    
C55   H7    1.084730 S    
O1    C5    1.326763 A    
N1    O21   1.301140 A    
C27   C31   1.393231 A    
O19   V1    1.763392 S    
O13   V1    2.011126 S    
C45   C46   1.431151 A    
O3    C7    1.326895 A    
C10   C14   1.400068 A    
C48   C51   1.427967 A    
C52   C56   1.396440 A    
O4    V2    2.009600 S    
O15   V3    2.013249 S    
N2    O24   1.301013 A    
C4    C21   1.461894 S    
C21   C29   1.395175 A    
C52   N8    1.438186 S    
O7    C3    1.337819 A    
C8    C17   1.501228 S    
C36   C40   1.415724 A    
O9    V1    2.018856 S    
C30   H13   1.083587 S    
O16   V4    2.013247 S    
O4    C8    1.327498 A    
C2    C23   1.462342 S    
C38   C46   1.432240 A    
C34   H9    1.079237 S    
O1    V3    2.009077 S    
C37   C45   1.430643 A    
N6    O31   1.301891 A    
C12   C19   1.399139 A    
O2    V4    2.009074 S    
C14   C18   1.418405 A    
O3    V1    2.009597 S    
N4    O27   1.301078 A    
C24   C32   1.395541 A    
C1    O15   1.339731 A    
C2    O16   1.336353 A    
C28   C44   1.405207 A    
C46   C49   1.427716 A    
C51   N7    1.438566 S    
C35   H12   1.079397 S    
O2    C6    1.327392 A    
N3    O25   1.301286 A    
O14   V2    2.011127 S    
C11   C15   1.399433 A    
C47   C52   1.426890 A    
C43   C55   1.392402 A    
C23   C35   1.399113 A    
C40   C44   1.417963 A    
C5    C20   1.500647 S    
O11   C7    1.343657 A    
C6    C19   1.501406 S    
C25   C41   1.405705 A    
O12   C8    1.343409 A    
C7    C18   1.500536 S    
C9    C18   1.398745 A    
N3    O26   1.301076 A    
C27   H19   1.084274 S    
C1    C24   1.462864 S    
O10   V2    2.018852 S    
C49   N5    1.438035 S    
C11   C20   1.398526 A    
N2    O23   1.301066 A    
C53   H5    1.084517 S    
O5    V1    2.014847 S    
N7    O34   1.301945 A    
C35   C39   1.414903 A    
C21   C33   1.398711 A    
C34   C38   1.416634 A    
C22   C30   1.395668 A    
C12   H4    1.071535 S    
O7    V3    2.018768 S    
C24   C36   1.400476 A    
C25   C29   1.393137 A    
O18   V4    1.761532 S    
C25   H17   1.084085 S    
C54   H6    1.084629 S    
C45   C50   1.426687 A    
C9    H1    1.071888 S    
C28   C32   1.392592 A    
O8    V4    2.018768 S    
C11   H3    1.071855 S    
C47   C48   1.430845 A    
O5    C1    1.338575 A    
C50   C54   1.395985 A    
C26   C42   1.404633 A    
C49   C53   1.397510 A    
O8    C4    1.340551 A    
O9    C5    1.344223 A    
C10   C17   1.399289 A    
C15   N3    1.424444 S    
C40   C48   1.431829 A    
C44   C56   1.392534 A    
N6    O32   1.301702 A    
O6    V2    2.014846 S    
C29   H14   1.083544 S    
C22   C34   1.400858 A    
C12   C16   1.400156 A    
C23   C31   1.395695 A    
C31   H16   1.083611 S    
C28   H20   1.084302 S    
N8    O36   1.301588 A    
C33   H10   1.079247 S    
N5    O29   1.301880 A    
C26   C30   1.392039 A    
C3    O13   1.340645 A    
C10   H2    1.071532 S    
C50   N6    1.438196 S    
C56   H8    1.084791 S    
C14   N2    1.425261 S    
O6    C2    1.341702 A    
N7    O33   1.302036 A    
O11   V3    2.017693 S    
O12   V4    2.017698 S    
C9    C13   1.399448 A    
O10   C6    1.343983 A    
O20   V2    1.763392 S    
C3    C22   1.463715 S    
C51   C55   1.397731 A    
C38   C42   1.417816 A    
C37   C41   1.416799 A    
C13   N1    1.424428 S    
C39   C43   1.416943 A    
C42   C54   1.392470 A    
N4    O28   1.300985 A    
C41   C53   1.391968 A    
C32   H15   1.083655 S    
C33   C37   1.414441 A    
C39   C47   1.430636 A    
N1    O22   1.301130 A    
C4    O14   1.337102 A    
C13   C17   1.418081 A    
C26   H18   1.084103 S    
C36   H11   1.079588 S    
N8    O35   1.302069 A    
C15   C19   1.418386 A    
C27   C43   1.405584 A    
C16   C20   1.418700 A    
N5    O30   1.301683 A    
C16   N4    1.425339 S    
