data_mof_unit_11975.cif
_audit_creation_date              2012-12-11T15:12:41-0500
_audit_creation_method            fapswitch 2.2
_symmetry_space_group_name_H-M    P1
_symmetry_Int_Tables_number       1
_space_group_crystal_system       triclinic
_cell_length_a                    22.338641
_cell_length_b                    6.9432
_cell_length_c                    19.372922
_cell_angle_alpha                 90.000933
_cell_angle_beta                  99.169439
_cell_angle_gamma                 90.000283
_cell_volume                      2966.3754384

loop_
_atom_site_label
_atom_site_type_symbol
_atom_type_description
_atom_site_fract_x
_atom_site_fract_y
_atom_site_fract_z
_atom_type_partial_charge
O1    O     O_R   0.448420 0.506120 0.415750 -0.535600
O2    O     O_R   0.551580 0.006120 0.584250 -0.535600
O3    O     O_R   0.436490 0.174470 0.555610 -0.536972
O4    O     O_R   0.563510 0.674470 0.444390 -0.536973
C1    C     C_R   0.421067 0.344690 0.575790 0.719196
C2    C     C_R   0.578933 0.844689 0.424210 0.719195
O5    O     O_R   0.441310 0.176330 0.414520 -0.536638
O6    O     O_R   0.558690 0.676330 0.585480 -0.536639
O7    O     O_R   0.556430 0.007110 0.442150 -0.535283
O8    O     O_R   0.443570 0.507110 0.557850 -0.535285
C3    C     C_R   0.426772 0.345068 0.388375 0.685889
C4    C     C_R   0.573228 0.845072 0.611625 0.685892
O9    O     O_3   0.537770 0.339560 0.509230 -0.365318
O10   O     O_3   0.462230 0.839560 0.490770 -0.365319
V1    V     V_3+5 0.492990 0.064280 0.498290 1.425989
V2    V     V_3+5 0.507010 0.564280 0.501710 1.425985
C5    C     C_R   0.867115 0.976688 0.695643 -0.163055
C6    C     C_R   0.132891 0.476826 0.304353 -0.163057
H1    H     H_    0.954265 0.003577 0.759674 0.102020
H2    H     H_    0.045742 0.503720 0.240322 0.102023
H3    H     H_    0.784893 0.972912 0.580887 0.119315
H4    H     H_    0.215116 0.473113 0.419107 0.119315
H5    H     H_    0.885525 0.003663 0.648060 0.107831
H6    H     H_    0.114484 0.503864 0.351935 0.107832
C7    C     C_R   0.884467 0.941239 0.821494 -0.038700
C8    C     C_R   0.115534 0.441257 0.178506 -0.038705
C9    C     C_R   0.590045 0.818227 0.739830 -0.163641
C10   C     C_R   0.409950 0.318118 0.260173 -0.163636
C11   C     C_R   0.626649 0.816384 0.804954 -0.123995
C12   C     C_R   0.373343 0.316232 0.195050 -0.123998
C13   C     C_R   0.688945 0.846523 0.810991 -0.158112
C14   C     C_R   0.311049 0.346412 0.189012 -0.158114
C15   C     C_R   0.716619 0.880093 0.751303 0.078585
C16   C     C_R   0.283380 0.380069 0.248698 0.078586
C17   C     C_R   0.678484 0.883603 0.684344 0.069070
C18   C     C_R   0.321517 0.383627 0.315655 0.069070
C19   C     C_R   0.780747 0.909974 0.755843 0.073549
C20   C     C_R   0.219254 0.409987 0.244157 0.073548
C21   C     C_R   0.804777 0.944346 0.693290 0.141822
C22   C     C_R   0.195228 0.444442 0.306707 0.141823
C23   C     C_R   0.766592 0.947062 0.628628 -0.204068
C24   C     C_R   0.233415 0.447201 0.371368 -0.204068
C25   C     C_R   0.704586 0.916866 0.624102 -0.194697
C26   C     C_R   0.295418 0.416970 0.375895 -0.194704
C27   C     C_R   0.822122 0.907813 0.820004 -0.216567
C28   C     C_R   0.177876 0.407785 0.179997 -0.216570
C29   C     C_R   0.906437 0.976254 0.759140 -0.170202
C30   C     C_R   0.093568 0.476357 0.240857 -0.170199
C31   C     C_R   0.614926 0.852001 0.679168 -0.083587
C32   C     C_R   0.385072 0.351982 0.320832 -0.083593
H7    H     H_    0.807487 0.882900 0.869623 0.091564
H8    H     H_    0.192509 0.382813 0.130380 0.091567
H9    H     H_    0.541819 0.792713 0.736672 0.100916
H10   H     H_    0.458174 0.292565 0.263332 0.100919
H11   H     H_    0.714138 0.842458 0.863207 0.104355
H12   H     H_    0.285854 0.342303 0.136798 0.104356
H13   H     H_    0.606542 0.790435 0.851389 0.112872
H14   H     H_    0.393447 0.290214 0.148617 0.112873
H15   H     H_    0.677131 0.920165 0.572732 0.109436
H16   H     H_    0.322875 0.420304 0.427263 0.109447
C33   C     C_3   0.808427 0.749570 0.262316 -0.327553
C34   C     C_3   0.191585 0.249518 0.737700 -0.327552
C35   C     C_3   0.786203 0.103346 0.247915 -0.330896
C36   C     C_3   0.213781 0.603319 0.752067 -0.330892
C37   C     C_3   0.738161 0.085916 0.297681 -0.328031
C38   C     C_3   0.261823 0.585890 0.702301 -0.328030
H17   H     H_    0.782678 0.753957 0.367041 0.137017
H18   H     H_    0.217332 0.253851 0.632973 0.137020
H19   H     H_    0.853660 0.779775 0.293677 0.136359
H20   H     H_    0.146349 0.279668 0.706337 0.136360
H21   H     H_    0.773326 0.222913 0.210196 0.135195
H22   H     H_    0.226649 0.722921 0.789774 0.135193
H23   H     H_    0.830999 0.140848 0.278923 0.136653
H24   H     H_    0.168981 0.640766 0.721057 0.136654
H25   H     H_    0.760105 0.115007 0.352381 0.136868
H26   H     H_    0.239875 0.614926 0.647599 0.136868
H27   H     H_    0.702468 0.197325 0.283660 0.135397
H28   H     H_    0.297507 0.697335 0.716310 0.135395
C39   C     C_1   0.624809 0.854899 0.378858 -0.191293
C40   C     C_1   0.375191 0.354901 0.621142 -0.191293
C41   C     C_3   0.791248 0.912145 0.207707 0.293099
C42   C     C_3   0.208752 0.412144 0.792293 0.293096
C43   C     C_3   0.760337 0.732117 0.312027 -0.328774
C44   C     C_3   0.239675 0.232067 0.687989 -0.328773
C45   C     C_3   0.708961 0.882404 0.292840 0.291420
C46   C     C_3   0.291039 0.382405 0.707160 0.291418
C47   C     C_3   0.679680 0.847587 0.215685 -0.328166
C48   C     C_3   0.320325 0.347665 0.784317 -0.328166
C49   C     C_3   0.727754 0.864921 0.165952 -0.328914
C50   C     C_3   0.272250 0.364997 0.834051 -0.328916
C51   C     C_1   0.662779 0.866245 0.340412 -0.101485
C52   C     C_1   0.337221 0.366248 0.659588 -0.101485
C53   C     C_1   0.837391 0.928268 0.160076 -0.102196
C54   C     C_1   0.162608 0.428266 0.839924 -0.102196
C55   C     C_1   0.875271 0.939576 0.121505 -0.194532
C56   C     C_1   0.124728 0.439574 0.878495 -0.194532
H29   H     H_    0.729677 0.727388 0.136876 0.136114
H30   H     H_    0.270338 0.227484 0.863139 0.136115
H31   H     H_    0.713765 0.979719 0.126590 0.136307
H32   H     H_    0.286230 0.479832 0.873401 0.136308
H33   H     H_    0.658717 0.701837 0.210245 0.135600
H34   H     H_    0.341299 0.201935 0.789771 0.135601
H35   H     H_    0.811937 0.609767 0.235124 0.135981
H36   H     H_    0.188087 0.109733 0.764905 0.135979
H37   H     H_    0.740939 0.584107 0.308408 0.137530
H38   H     H_    0.259085 0.084075 0.691621 0.137526
H39   H     H_    0.642814 0.954181 0.199999 0.136466
H40   H     H_    0.357182 0.454297 0.799993 0.136467
O11   O     O_R   0.056480 0.288780 0.942210 -0.535574
O12   O     O_R   0.943520 0.788780 0.057790 -0.535574
O13   O     O_R   0.058700 0.616820 0.085490 -0.538075
O14   O     O_R   0.941300 0.116820 0.914510 -0.538074
C57   C     C_R   0.073216 0.448392 0.111714 0.693379
C58   C     C_R   0.926784 0.948388 0.888286 0.693379
O15   O     O_R   0.063520 0.618570 0.944410 -0.537709
O16   O     O_R   0.936480 0.118570 0.055590 -0.537710
O17   O     O_R   0.948420 0.787670 0.915740 -0.535997
O18   O     O_R   0.051580 0.287670 0.084260 -0.535996
C59   C     C_R   0.078976 0.449778 0.924024 0.726423
C60   C     C_R   0.921024 0.949779 0.075976 0.726422
O19   O     O_3   0.962260 0.453430 0.990800 -0.366461
O20   O     O_3   0.037740 0.953430 0.009200 -0.366463
V3    V     V_3+5 0.007000 0.728750 0.001710 1.419877
V4    V     V_3+5 0.993000 0.228750 0.998290 1.419876

loop_
_geom_bond_atom_site_label_1
_geom_bond_atom_site_label_2
_ccdc_geom_bond_type
C12   C14   A    
C35   C37   S    
H17   C43   S    
C42   C54   S    
C9    C11   A    
C56   C59   S    
O1    C3    A    
O2    C4    A    
C2    O7    A    
O14   C58   A    
C4    C31   S    
C45   C51   S    
O3    V1    S    
C21   C23   A    
O5    C3    A    
C5    H5    S    
C35   C41   S    
C6    H6    S    
C33   H35   S    
C44   C46   S    
O14   V4    S    
C48   H40   S    
C46   C48   S    
C27   H7    S    
C28   H8    S    
C34   H20   S    
C5    C21   A    
C6    C22   A    
C53   C55   T    
O19   V4    S    
C47   H33   S    
C10   C32   A    
C17   C31   A    
C44   H38   S    
C13   C15   A    
C17   C25   A    
C7    C29   A    
C39   C51   T    
C8    C30   A    
C41   C49   S    
C22   C24   A    
C34   C42   S    
O6    V2    S    
C23   C25   A    
C24   C26   A    
C50   H32   S    
O4    V2    S    
C34   H36   S    
C45   C47   S    
C38   H28   S    
O15   V3    S    
O13   V3    S    
H18   C44   S    
C37   H27   S    
O4    C2    A    
C33   C43   S    
O12   C60   A    
C10   H10   S    
C35   H23   S    
O3    C1    A    
C15   C19   A    
C43   H37   S    
C49   H29   S    
C14   C16   A    
C40   C52   T    
O12   V3    S    
C41   C53   S    
O6    C4    A    
C38   H26   S    
H1    C29   S    
O13   C57   A    
O1    V2    S    
O18   V4    S    
C1    C40   S    
C54   C56   T    
O2    V1    S    
C36   C42   S    
H2    C30   S    
H3    C23   S    
C43   C45   S    
C48   C50   S    
O15   C59   A    
O9    V1    S    
O10   V2    S    
C18   C26   A    
O20   V4    S    
C46   C52   S    
C7    C27   A    
O19   V3    S    
C18   C32   A    
O11   C59   A    
C33   H19   S    
C34   C44   S    
O16   V4    S    
C16   C20   A    
C5    C29   A    
C11   H13   S    
C49   H31   S    
C6    C30   A    
C38   C46   S    
C48   H34   S    
C9    H9    S    
O11   V4    S    
C37   C45   S    
C25   H15   S    
C55   C60   S    
C42   C50   S    
C10   C12   A    
O17   V3    S    
C8    C57   S    
C1    O8    A    
C11   C13   A    
C3    C32   S    
C33   C41   S    
C7    C58   S    
C20   C22   A    
C2    C39   S    
H4    C24   S    
C26   H16   S    
C12   H14   S    
O5    V1    S    
C15   C17   A    
C14   H12   S    
C16   C18   A    
C36   H22   S    
O7    V1    S    
C20   C28   A    
C58   O17   A    
C8    C28   A    
C57   O18   A    
O16   C60   A    
C47   H39   S    
C19   C21   A    
O9    V2    S    
C47   C49   S    
C36   H24   S    
O10   V1    S    
O8    V2    S    
C13   H11   S    
O20   V3    S    
C19   C27   A    
C35   H21   S    
C50   H30   S    
C37   H25   S    
C9    C31   A    
C36   C38   S    
