data_mof_unit_30220.cif
_audit_creation_date              2012-12-10T20:05:44-0500
_audit_creation_method            fapswitch 2.2
_symmetry_space_group_name_H-M    P1
_symmetry_Int_Tables_number       1
_space_group_crystal_system       triclinic
_cell_length_a                    12.752432
_cell_length_b                    18.810508
_cell_length_c                    18.516409
_cell_angle_alpha                 89.183177
_cell_angle_beta                  99.773958
_cell_angle_gamma                 91.588882
_cell_volume                      4375.35181396

loop_
_atom_site_label
_atom_site_type_symbol
_atom_type_description
_atom_site_fract_x
_atom_site_fract_y
_atom_site_fract_z
_atom_type_partial_charge
C1    C     C_R   0.501309 0.364767 0.500728 0.992604
C2    C     C_R   0.477858 0.288801 0.499984 -0.162104
C3    C     C_R   0.302821 0.961268 0.520851 0.394495
C4    C     C_R   0.429900 0.035343 0.432679 0.443154
C5    C     C_R   0.316845 0.035268 0.526073 -0.206641
C6    C     C_R   0.425511 0.961843 0.433626 -0.181018
C7    C     C_R   0.384702 0.071817 0.485180 -0.033062
C8    C     C_R   0.363762 0.923778 0.477644 -0.036890
C9    C     C_R   0.563801 0.545368 0.737840 0.568924
C10   C     C_R   0.436979 0.453247 0.263336 0.584287
C11   C     C_R   0.559756 0.541672 0.812870 -0.265248
C12   C     C_R   0.497565 0.635870 0.498788 0.977914
C13   C     C_R   0.433914 0.459275 0.187416 -0.292027
C14   C     C_R   0.493748 0.492808 0.841521 0.014568
C15   C     C_R   0.498185 0.508516 0.157551 0.023929
C16   C     C_R   0.296722 0.501823 0.483913 0.929778
C17   C     C_R   0.702959 0.497946 0.516427 1.032177
C18   C     C_R   0.428519 0.447669 0.791997 -0.193719
C19   C     C_R   0.567230 0.552133 0.206392 -0.200725
C20   C     C_R   0.433579 0.451795 0.716323 0.035051
C21   C     C_R   0.566592 0.547017 0.282499 0.043156
C22   C     C_R   0.398898 0.489943 0.951306 -0.132572
C23   C     C_R   0.377661 0.846233 0.482385 -0.012195
C24   C     C_R   0.591929 0.510615 0.047586 -0.139444
C25   C     C_R   0.400250 0.497680 0.026893 -0.138652
C26   C     C_R   0.590592 0.502775 0.972139 -0.143268
C27   C     C_R   0.496833 0.508048 0.076250 0.137477
C28   C     C_R   0.494074 0.492757 0.922697 0.131043
C29   C     C_R   0.817737 0.499866 0.531310 -0.242184
C30   C     C_R   0.182055 0.508579 0.472963 -0.246006
C31   C     C_R   0.023249 0.576018 0.431310 0.366852
C32   C     C_R   0.991159 0.470215 0.599036 0.383827
C33   C     C_R   0.124584 0.554698 0.419998 0.313760
C34   C     C_R   0.416540 0.145777 0.502419 0.005172
C35   C     C_R   0.879343 0.465755 0.592932 0.354467
C36   C     C_R   0.135566 0.479208 0.529529 -0.183135
C37   C     C_R   0.865940 0.540042 0.481779 -0.191670
C38   C     C_R   0.034268 0.496141 0.538086 -0.062102
C39   C     C_R   0.974522 0.538900 0.484254 -0.060523
C40   C     C_R   0.446523 0.747377 0.424103 0.361281
C41   C     C_R   0.557399 0.237031 0.513147 0.263072
C42   C     C_R   0.382781 0.807724 0.418372 0.320169
C43   C     C_R   0.525259 0.165577 0.523773 0.369984
C44   C     C_R   0.414316 0.815485 0.551025 -0.087443
C45   C     C_R   0.339465 0.197521 0.488205 -0.123939
C46   C     C_R   0.452595 0.746924 0.555974 -0.201847
C47   C     C_R   0.370004 0.268676 0.490794 -0.186148
C48   C     C_R   0.471017 0.712092 0.493084 -0.222641
H1    H     H_    0.816814 0.567775 0.437277 0.224040
H2    H     H_    0.473794 0.934135 0.400897 0.217647
H3    H     H_    0.729129 0.660573 0.630513 0.390610
H4    H     H_    0.249045 0.346520 0.353317 0.378499
H5    H     H_    0.606992 0.579263 0.849510 0.199661
H6    H     H_    0.386220 0.421877 0.151020 0.200432
H7    H     H_    0.383650 0.416295 0.678946 0.169751
H8    H     H_    0.620625 0.580344 0.319286 0.189863
H9    H     H_    0.323198 0.483641 0.915041 0.161228
H10   H     H_    0.667737 0.516801 0.083734 0.159734
H11   H     H_    0.325178 0.495724 0.046863 0.164903
H12   H     H_    0.179872 0.441754 0.567118 0.217846
H13   H     H_    0.665782 0.504511 0.952314 0.167716
H14   H     H_    0.864264 0.329442 0.736129 0.395851
H15   H     H_    0.127699 0.638139 0.237883 0.403680
H16   H     H_    0.025671 0.757289 0.354834 0.402777
H17   H     H_    0.073096 0.453769 0.799409 0.382024
H18   H     H_    0.680907 0.704695 0.348450 0.402418
H19   H     H_    0.687380 0.337852 0.418044 0.375510
H20   H     H_    0.151596 0.883382 0.301824 0.401441
H21   H     H_    0.610698 0.997225 0.617132 0.402389
H22   H     H_    0.127337 0.849562 0.484717 0.398567
H23   H     H_    0.375074 0.409053 0.811538 0.178882
H24   H     H_    0.514090 0.184989 0.325154 0.419690
H25   H     H_    0.620863 0.590086 0.186066 0.181836
H26   H     H_    0.414387 0.844641 0.600944 0.218742
H27   H     H_    0.255866 0.182705 0.473925 0.186019
H28   H     H_    0.470882 0.722157 0.609380 0.245315
H29   H     H_    0.309039 0.308377 0.482404 0.160434
H30   H     H_    0.278059 0.064135 0.563927 0.205961
N1    N     N_R   0.500010 0.499980 0.689440 -0.157684
N2    N     N_R   0.499990 0.500020 0.310560 -0.153903
O1    O     O_R   0.500000 0.398180 0.560840 -0.621354
O2    O     O_2   0.748869 0.615920 0.772029 -0.239144
O3    O     O_3   0.688325 0.615328 0.633333 -0.521924
O4    O     O_2   0.301608 0.342014 0.227173 -0.280969
O5    O     O_2   0.458555 0.321860 0.318908 -0.292676
O6    O     O_3   0.300312 0.387365 0.356947 -0.523986
O7    O     O_2   0.798112 0.463631 0.717521 -0.231331
O8    O     O_2   0.716356 0.379655 0.624177 -0.260627
O9    O     O_3   0.899433 0.349833 0.696492 -0.431290
O10   O     O_2   0.268438 0.632949 0.362709 -0.258369
O11   O     O_2   0.215665 0.518063 0.305507 -0.251909
O12   O     O_R   0.500000 0.601820 0.439160 -0.554050
O13   O     O_3   0.086641 0.620134 0.275498 -0.443652
O14   O     O_2   0.894865 0.641583 0.321673 -0.280294
O15   O     O_2   0.903670 0.689900 0.444662 -0.270144
O16   O     O_3   0.063674 0.715898 0.379178 -0.446165
O17   O     O_2   0.112359 0.376972 0.685104 -0.270654
O18   O     O_2   0.176177 0.500938 0.688865 -0.313397
O19   O     O_3   0.020622 0.468554 0.756447 -0.447421
O20   O     O_2   0.453555 0.677605 0.299540 -0.223719
O21   O     O_2   0.535547 0.796903 0.310780 -0.219948
O22   O     O_3   0.636110 0.695983 0.386619 -0.567177
O23   O     O_R   0.499960 0.398180 0.439210 -0.550646
O24   O     O_2   0.764529 0.248285 0.575214 -0.131082
O25   O     O_2   0.724045 0.206710 0.449410 -0.207504
O26   O     O_3   0.708503 0.340581 0.471964 -0.572963
O27   O     O_2   0.362594 0.880975 0.289639 -0.204700
O28   O     O_2   0.266651 0.766677 0.289480 -0.186100
O29   O     O_3   0.194243 0.873795 0.350696 -0.564526
O30   O     O_2   0.697948 0.083960 0.527656 -0.167576
O31   O     O_2   0.671730 0.138487 0.642040 -0.212019
O32   O     O_3   0.553215 0.029630 0.596181 -0.575924
O33   O     O_2   0.260894 0.908885 0.647930 -0.222023
O34   O     O_R   0.500040 0.601820 0.560790 -0.586249
O35   O     O_2   0.114797 0.964678 0.566599 -0.225860
O36   O     O_3   0.169727 0.838862 0.533401 -0.473915
O37   O     O_2   0.609495 0.069361 0.382095 -0.207281
O38   O     O_2   0.450992 0.042537 0.291974 -0.197528
O39   O     O_3   0.463595 0.164808 0.355617 -0.525134
O40   O     O_R   0.346380 0.499990 0.550760 -0.639395
O41   O     O_R   0.653620 0.500010 0.449240 -0.652597
O42   O     O_R   0.346330 0.499980 0.429130 -0.511081
O43   O     O_R   0.653670 0.500020 0.570870 -0.516557
O44   O     O_2   0.594160 0.684330 0.722040 -0.316802
S1    S     S_3+6 0.649494 0.615918 0.715148 0.083901
S2    S     S_3+6 0.616170 0.104016 0.572762 0.109292
S3    S     S_3+6 0.209985 0.918721 0.569231 0.093473
S4    S     S_3+6 0.491192 0.077957 0.363983 0.095171
S5    S     S_3+6 0.373920 0.374372 0.291706 0.085214
S6    S     S_3+6 0.819443 0.414728 0.658502 0.140160
S7    S     S_3+6 0.176781 0.581787 0.340017 0.119514
S8    S     S_3+6 0.967140 0.656979 0.392984 0.085921
S9    S     S_3+6 0.078803 0.453041 0.683441 0.071878
S10   S     S_3+6 0.516887 0.729438 0.351688 0.095241
S11   S     S_3+6 0.691698 0.257426 0.503157 0.130459
S12   S     S_3+6 0.302212 0.832009 0.333630 0.114837
Zn1   Zn    Zn3+2 0.500030 0.500000 0.581210 1.073956
Zn2   Zn    Zn3+2 0.499970 0.500000 0.418790 1.104831

loop_
_geom_bond_atom_site_label_1
_geom_bond_atom_site_label_2
_ccdc_geom_bond_type
O24   S11   D    
C17   C29   S    
H18   O22   S    
C24   C27   A    
O8    S6    D    
C12   C48   S    
O12   Zn2   S    
C22   H9    S    
C46   H28   S    
O21   S10   D    
O1    Zn1   S    
O18   S9    D    
C31   S8    S    
C23   C42   A    
O7    S6    D    
C19   C21   A    
C26   H13   S    
C24   C26   A    
O28   S12   D    
C16   O40   A    
C32   S9    S    
C11   C14   A    
C3    S3    S    
O11   S7    D    
C2    C41   A    
C1    O1    A    
H14   O9    S    
O4    S5    D    
C8    C23   S    
O35   S3    D    
O19   S9    S    
C42   S12   S    
C1    C2    S    
C9    N1    A    
O34   Zn1   S    
C14   C18   A    
C16   O42   A    
O5    S5    D    
C17   O43   A    
C44   C46   A    
O36   S3    S    
O43   Zn1   S    
C31   C33   A    
O17   S9    D    
C1    O23   A    
O32   S2    S    
C11   H5    S    
O25   S11   D    
O39   S4    S    
C33   S7    S    
C40   C42   A    
C30   C33   A    
C22   C28   A    
O29   S12   S    
C41   C43   A    
O38   S4    D    
O3    S1    S    
C20   H7    S    
C43   S2    S    
O20   S10   D    
C12   O34   A    
C45   C47   A    
C46   C48   A    
C4    S4    S    
C32   C35   A    
C19   H25   S    
O42   Zn2   S    
C4    C6    A    
C3    C8    A    
O23   Zn2   S    
C5    C7    A    
C10   N2    A    
C6    C8    A    
H22   O36   S    
C40   S10   S    
C22   C25   A    
O14   S8    D    
C23   C44   A    
O41   Zn2   S    
C15   C19   A    
O22   S10   S    
O2    S1    D    
O27   S12   D    
C37   H1    S    
C15   C27   S    
O31   S2    D    
H19   O26   S    
C34   C45   A    
C6    H2    S    
C44   H26   S    
C9    C11   A    
C35   S6    S    
H17   O19   S    
O30   S2    D    
O10   S7    D    
C17   O41   A    
O26   S11   S    
N1    Zn1   S    
C32   C38   A    
C13   C15   A    
O15   S8    D    
C7    C34   S    
C47   H29   S    
H3    O3    S    
C41   S11   S    
C13   H6    S    
C18   H23   S    
C40   C48   A    
C29   C35   A    
C4    C7    A    
C20   N1    A    
C12   O12   A    
C34   C43   A    
C3    C5    A    
C10   C13   A    
C21   H8    S    
O6    S5    S    
O33   S3    D    
C30   C36   A    
C2    C47   A    
C25   C27   A    
H15   O13   S    
C26   C28   A    
O16   S8    S    
C45   H27   S    
H4    O6    S    
C10   S5    S    
C37   C39   A    
C38   C39   A    
N2    Zn2   S    
C21   N2    A    
C36   C38   A    
H21   O32   S    
C31   C39   A    
H16   O16   S    
C18   C20   A    
H20   O29   S    
O37   S4    D    
C9    S1    S    
H24   O39   S    
O9    S6    S    
C24   H10   S    
C29   C37   A    
C36   H12   S    
O40   Zn1   S    
C25   H11   S    
C14   C28   S    
C5    H30   S    
O13   S7    S    
C16   C30   S    
O44   S1    D    
