data_mof_unit_46958.cif
_audit_creation_date              2012-12-11T15:55:47-0500
_audit_creation_method            fapswitch 2.2
_symmetry_space_group_name_H-M    P1
_symmetry_Int_Tables_number       1
_space_group_crystal_system       triclinic
_cell_length_a                    11.050189
_cell_length_b                    11.083746
_cell_length_c                    18.761112
_cell_angle_alpha                 90.512181
_cell_angle_beta                  90.918734
_cell_angle_gamma                 58.968333
_cell_volume                      1968.70279154

loop_
_atom_site_label
_atom_site_type_symbol
_atom_type_description
_atom_site_fract_x
_atom_site_fract_y
_atom_site_fract_z
_atom_type_partial_charge
C1    C     C_R   0.362005 0.764055 0.394946 0.534934
C2    C     C_R   0.619679 0.149870 0.159683 0.044352
C3    C     C_R   0.359010 0.343386 0.159576 -0.014027
C4    C     C_R   0.493351 0.271519 0.269352 -0.158738
C5    C     C_R   0.490610 0.262554 0.195443 -0.040208
C6    C     C_R   0.085407 0.691125 0.326287 -0.091283
C7    C     C_R   0.965510 0.788453 0.363073 -0.101625
C8    C     C_R   0.666802 0.177742 0.096227 -0.059971
C9    C     C_R   0.775980 0.067489 0.057919 -0.079916
C10   C     C_R   0.240715 0.445927 0.197457 -0.153058
C11   C     C_R   0.242431 0.452237 0.271575 -0.032460
C12   C     C_R   0.388662 0.358478 0.385862 0.556971
C13   C     C_R   0.854142 0.764778 0.371903 0.276386
C14   C     C_R   0.867936 0.642712 0.342676 -0.065979
C15   C     C_R   0.995663 0.536579 0.313491 -0.152385
C16   C     C_R   0.108715 0.558568 0.307018 0.019113
C17   C     C_R   0.369947 0.356803 0.308403 -0.004282
C18   C     C_R   0.867870 0.329797 0.183783 0.026672
C19   C     C_R   0.952193 0.221580 0.232022 0.002543
C20   C     C_R   0.922878 0.236979 0.303846 -0.019403
C21   C     C_R   0.723979 0.469190 0.280201 -0.167513
C22   C     C_R   0.756230 0.456613 0.208429 -0.167200
C23   C     C_R   0.772244 0.381245 0.402072 0.544129
C24   C     C_3   0.984285 0.073194 0.232438 -0.250690
C25   C     C_3   0.950130 0.091780 0.310748 -0.292600
C26   C     C_R   0.808282 0.360209 0.328291 0.020752
C27   C     C_R   0.367641 0.835270 0.173316 0.011359
C28   C     C_R   0.396576 0.911819 0.223345 0.015783
C29   C     C_R   0.397549 0.888478 0.295656 0.027129
C30   C     C_R   0.376124 0.688736 0.269505 -0.184835
C31   C     C_R   0.369067 0.715086 0.196368 -0.174789
C32   C     C_3   0.328714 0.066309 0.233935 -0.262539
C33   C     C_3   0.330779 0.040754 0.313406 -0.282133
C34   C     C_R   0.342364 0.772789 0.603378 0.538474
C35   C     C_R   0.366935 0.789015 0.319474 0.000191
C36   C     C_R   0.323824 0.337316 0.820736 0.017070
C37   C     C_R   0.461394 0.266206 0.793560 0.023948
C38   C     C_R   0.483844 0.278195 0.722746 0.018545
C39   C     C_R   0.233886 0.440107 0.704752 -0.167285
C40   C     C_R   0.210765 0.430094 0.776632 -0.173535
C41   C     C_3   0.568057 0.111004 0.793308 -0.261692
C42   C     C_3   0.586175 0.123748 0.715151 -0.267761
C43   C     C_R   0.371240 0.362490 0.677560 0.021674
C44   C     C_R   0.866820 0.310891 0.825403 0.018895
C45   C     C_R   0.402970 0.375734 0.605049 0.570848
C46   C     C_R   0.874645 0.415101 0.788418 0.040296
C47   C     C_R   0.864639 0.424028 0.716007 0.025718
C48   C     C_R   0.865337 0.206891 0.710956 -0.154528
C49   C     C_R   0.874597 0.198792 0.785895 -0.154374
C50   C     C_3   0.795177 0.570514 0.799357 -0.276980
C51   C     C_3   0.783181 0.582076 0.719228 -0.271818
C52   C     C_R   0.842575 0.329155 0.676703 0.018832
C53   C     C_R   0.292975 0.862581 0.821325 0.019230
C54   C     C_R   0.177895 0.881242 0.780956 0.036467
C55   C     C_R   0.183109 0.874231 0.707481 0.027734
C56   C     C_R   0.768587 0.374456 0.608650 0.543047
C57   C     C_R   0.409019 0.857215 0.710669 -0.168807
C58   C     C_R   0.405338 0.859986 0.785059 -0.161837
C59   C     C_3   0.099242 0.805680 0.785678 -0.282438
C60   C     C_3   0.100482 0.801700 0.705048 -0.270755
C61   C     C_R   0.305981 0.846189 0.671738 0.019728
C62   C     C_R   0.912748 0.314686 0.111620 0.540633
C63   C     C_R   0.329715 0.296920 0.091201 0.533506
C64   C     C_R   0.310861 0.896340 0.104062 0.537881
C65   C     C_R   0.893602 0.304631 0.901581 0.544757
C66   C     C_R   0.297293 0.290399 0.886886 0.551133
C67   C     C_R   0.842844 0.929718 0.083819 -0.108926
C68   C     C_R   0.273696 0.897653 0.896782 0.542717
C69   C     C_R   0.799774 0.901333 0.147890 -0.126422
C70   C     C_R   0.688737 0.010514 0.185667 -0.108091
Cr1   Cr    Cr6+3 0.601740 0.606840 0.505840 1.024223
Cr2   Cr    Cr6+3 0.291500 0.601560 0.495070 1.003002
Cr3   Cr    Cr6+3 0.606780 0.291630 0.499130 0.974171
Cr4   Cr    Cr6+3 0.062440 0.063060 0.008240 0.984259
Cr5   Cr    Cr6+3 0.062950 0.375000 0.998920 1.000965
Cr6   Cr    Cr6+3 0.374550 0.061770 0.992470 1.016121
H1    H     H_    0.593685 0.207120 0.296697 0.147861
H2    H     H_    0.776801 0.633968 0.343220 0.170742
H3    H     H_    0.005136 0.440415 0.293588 0.132080
H4    H     H_    0.635815 0.565833 0.299214 0.141743
H5    H     H_    0.693210 0.543530 0.172440 0.132065
H6    H     H_    0.096761 0.995554 0.222479 0.162853
H7    H     H_    0.908956 0.058926 0.199484 0.173837
H8    H     H_    0.852385 0.091057 0.322887 0.146206
H9    H     H_    0.043126 0.025662 0.345702 0.135962
H10   H     H_    0.382852 0.593243 0.287305 0.134081
H11   H     H_    0.808268 0.088695 0.007841 0.135395
H12   H     H_    0.356586 0.647308 0.158849 0.127120
H13   H     H_    0.222006 0.127778 0.209439 0.144900
H14   H     H_    0.401578 0.100107 0.218599 0.162729
H15   H     H_    0.403975 0.063438 0.343840 0.178155
H16   H     H_    0.224121 0.086274 0.336489 0.134410
H17   H     H_    0.143872 0.503530 0.670115 0.132239
H18   H     H_    0.103778 0.484764 0.795894 0.133118
H19   H     H_    0.522910 0.043837 0.803020 0.159985
H20   H     H_    0.663559 0.084427 0.825892 0.123650
H21   H     H_    0.693679 0.096771 0.701778 0.127063
H22   H     H_    0.958520 0.883200 0.382505 0.097340
H23   H     H_    0.544190 0.070409 0.681125 0.146493
H24   H     H_    0.867106 0.123531 0.680133 0.116582
H25   H     H_    0.883308 0.108915 0.812699 0.125433
H26   H     H_    0.861447 0.609680 0.822871 0.137241
H27   H     H_    0.692400 0.608712 0.825922 0.136487
H28   H     H_    0.672881 0.627680 0.700307 0.168221
H29   H     H_    0.842001 0.628576 0.695993 0.128397
H30   H     H_    0.498829 0.850221 0.684367 0.117041
H31   H     H_    0.491826 0.857422 0.814188 0.122921
H32   H     H_    0.991788 0.871185 0.807734 0.126084
H33   H     H_    0.927969 0.845014 0.054219 0.106825
H34   H     H_    0.163809 0.700252 0.810720 0.142771
H35   H     H_    0.162628 0.694545 0.683385 0.167696
H36   H     H_    0.994131 0.867764 0.680293 0.118150
H37   H     H_    0.851674 0.794634 0.168068 0.120578
H38   H     H_    0.654959 0.985387 0.234316 0.128777
H39   H     H_    0.156553 0.722841 0.311649 0.145067
H40   H     H_    0.615364 0.283765 0.075124 0.095337
H41   H     H_    0.141223 0.513550 0.169928 0.144019
O1    O     O_R   0.748670 0.497520 0.427970 -0.523677
O2    O     O_R   0.300170 0.471020 0.567120 -0.507543
O3    O     O_R   0.491630 0.259030 0.574940 -0.527661
O4    O     O_R   0.718640 0.304340 0.577850 -0.525013
O5    O     O_3   0.500010 0.500010 0.500020 -0.271435
O6    O     O_R   0.186620 0.923750 0.087000 -0.525204
O7    O     O_R   0.957350 0.194160 0.084660 -0.507287
O8    O     O_R   0.935120 0.407280 0.085350 -0.521174
O9    O     O_R   0.203800 0.365060 0.067090 -0.511908
O10   O     O_R   0.417470 0.174910 0.067830 -0.503094
O11   O     O_R   0.375160 0.946380 0.070880 -0.492967
O12   O     O_R   0.476470 0.723930 0.429450 -0.478373
O13   O     O_R   0.160500 0.919670 0.926690 -0.522174
O14   O     O_R   0.933140 0.190380 0.936050 -0.524534
O15   O     O_R   0.909010 0.403210 0.925030 -0.520443
O16   O     O_R   0.179590 0.361290 0.918480 -0.510468
O17   O     O_R   0.391360 0.170840 0.907510 -0.528969
O18   O     O_R   0.350950 0.942600 0.922260 -0.511944
O19   O     O_3   0.166650 0.166610 0.999880 -0.248090
O20   O     O_R   0.264730 0.744140 0.416740 -0.542701
O21   O     O_R   0.309440 0.472410 0.418220 -0.486700
O22   O     O_R   0.501630 0.260530 0.414310 -0.529499
O23   O     O_R   0.727920 0.305730 0.428950 -0.516627
O24   O     O_R   0.738670 0.496020 0.588600 -0.518809
O25   O     O_R   0.467190 0.722540 0.578350 -0.507194
O26   O     O_R   0.254720 0.742640 0.577370 -0.533853
O27   O     O_3   0.724914 0.863385 0.400887 -0.581538
C71   C     C_3   0.742247 0.927519 0.462420 -0.090276
H42   H     H_    0.642969 0.975730 0.493104 0.157433
H43   H     H_    0.760239 0.013760 0.447582 0.133753
H44   H     H_    0.828554 0.850103 0.498180 0.087007

loop_
_geom_bond_atom_site_label_1
_geom_bond_atom_site_label_2
_ccdc_geom_bond_type
C44   C49   A    
Cr2   O26   S    
Cr4   O7    S    
C21   C26   A    
C7    H22   S    
C41   C42   S    
C54   C55   A    
Cr1   O5    S    
C19   C20   A    
C65   O15   A    
C23   O1    A    
C62   O7    A    
C71   H42   S    
Cr6   O19   S    
C53   C54   A    
C70   H38   S    
C69   H37   S    
C30   C35   A    
C21   C22   A    
C36   C37   A    
C24   H7    S    
C38   C42   S    
C1    O12   A    
C33   H15   S    
C49   H25   S    
C30   C31   A    
C36   C66   S    
C23   C26   S    
C41   H20   S    
C20   C25   S    
C15   C16   A    
C29   C33   S    
C59   H34   S    
C21   H4    S    
C18   C19   A    
C13   O27   S    
C4    H1    S    
C53   C68   S    
C24   H6    S    
C39   H17   S    
C7    C13   A    
C71   H43   S    
C66   O17   A    
C67   H33   S    
C15   H3    S    
C8    C9    A    
C64   O11   A    
Cr4   O19   S    
C12   C17   S    
C25   H8    S    
C30   H10   S    
Cr1   O24   S    
C45   O2    A    
Cr2   O21   S    
C57   H30   S    
C50   H27   S    
Cr3   O3    S    
C55   C60   S    
C44   C65   S    
C65   O14   A    
Cr6   O18   S    
C44   C46   A    
C54   C59   S    
C48   H24   S    
C32   H14   S    
C34   O26   A    
C27   C31   A    
C22   H5    S    
C23   O23   A    
C28   C32   S    
C24   C25   S    
C10   C11   A    
C42   H21   S    
C39   C40   A    
Cr6   O17   S    
Cr5   O19   S    
C4    C5    A    
C39   C43   A    
Cr3   O22   S    
C51   H28   S    
C34   C61   S    
Cr5   O8    S    
C9    C67   A    
C59   C60   S    
C37   C38   A    
C60   H36   S    
Cr1   O12   S    
C66   O16   A    
C34   O25   A    
C11   C16   S    
C32   H13   S    
C36   C40   A    
C51   H29   S    
C25   H9    S    
C50   C51   S    
C12   O22   A    
C68   O13   A    
C43   C45   S    
C47   C52   A    
Cr1   O25   S    
C56   O24   A    
C45   O3    A    
Cr2   O20   S    
C50   H26   S    
Cr3   O4    S    
Cr4   O13   S    
Cr6   O11   S    
C12   O21   A    
C33   H16   S    
C2    C5    S    
C4    C17   A    
C58   H31   S    
C71   H44   S    
C1    O20   A    
Cr5   O15   S    
C1    C35   S    
Cr4   O14   S    
C46   C50   S    
C46   C47   A    
C28   C29   A    
C31   H12   S    
Cr1   O1    S    
Cr2   O5    S    
C18   C22   A    
C68   O18   A    
C2    C8    A    
C40   H18   S    
O27   C71   S    
C3    C5    A    
C11   C17   A    
C62   O8    A    
C47   C51   S    
C53   C58   A    
Cr5   O16   S    
C57   C61   A    
C6    C7    A    
Cr3   O23   S    
C3    C63   S    
C64   O6    A    
C29   C35   A    
C59   H32   S    
C10   H41   S    
Cr5   O9    S    
C32   C33   S    
C19   C24   S    
C38   C43   A    
C60   H35   S    
C2    C70   A    
C42   H23   S    
C56   O4    A    
C57   C58   A    
C41   H19   S    
C20   C26   A    
C48   C49   A    
C55   C61   A    
Cr2   O2    S    
Cr4   O6    S    
C14   H2    S    
C37   C41   S    
C69   C70   A    
C63   O10   A    
C6    H39   S    
C63   O9    A    
C27   C64   S    
C8    H40   S    
C6    C16   A    
C48   C52   A    
Cr3   O5    S    
C27   C28   A    
C3    C10   A    
Cr6   O10   S    
C14   C15   A    
C18   C62   S    
C67   C69   A    
C13   C14   A    
C9    H11   S    
C52   C56   S    
