data_mof_unit_57534.cif
_audit_creation_date              2012-12-11T15:13:43-0500
_audit_creation_method            fapswitch 2.2
_symmetry_space_group_name_H-M    P1
_symmetry_Int_Tables_number       1
_space_group_crystal_system       triclinic
_cell_length_a                    6.944077
_cell_length_b                    13.485127
_cell_length_c                    20.107821
_cell_angle_alpha                 104.023
_cell_angle_beta                  89.592793
_cell_angle_gamma                 90.736831
_cell_volume                      1826.65110968

loop_
_atom_site_label
_atom_site_type_symbol
_atom_type_description
_atom_site_fract_x
_atom_site_fract_y
_atom_site_fract_z
_atom_type_partial_charge
O1    O     O_R   0.506780 0.600060 0.449950 -0.539434
O2    O     O_R   0.179840 0.597110 0.589410 -0.545594
O3    O     O_R   0.004570 0.399940 0.550050 -0.538300
C1    C     C_R   0.347944 0.618846 0.616904 0.694265
O4    O     O_R   0.177380 0.612160 0.452890 -0.540493
O5    O     O_R   0.002100 0.415100 0.412560 -0.541743
C2    C     C_R   0.347414 0.638814 0.436064 0.718360
O6    O     O_R   0.509250 0.584900 0.587440 -0.539416
O7    O     O_3   0.337570 0.435330 0.486930 -0.369328
V1    V     V_3+5 0.064650 0.512000 0.502430 1.418176
O8    O     O_R   0.672090 0.402890 0.410590 -0.541289
C3    C     C_R   0.840916 0.381410 0.383030 0.696802
O9    O     O_R   0.674540 0.387840 0.547110 -0.540149
C4    C     C_R   0.842163 0.360693 0.563442 0.699556
V2    V     V_3+5 0.564040 0.488000 0.497570 1.422648
O10   O     O_3   0.840990 0.564670 0.513070 -0.371276
C5    C     C_R   0.813049 0.106814 0.608443 -0.142384
H1    H     H_    0.804858 0.156392 0.514875 0.129239
H2    H     H_    0.801938 0.981269 0.691411 0.116504
C6    C     C_R   0.845863 0.282942 0.602829 -0.046720
C7    C     C_R   0.888908 0.319308 0.932472 -0.263658
C8    C     C_R   0.895847 0.396999 0.897242 0.418196
C9    C     C_R   0.882250 0.371778 0.825870 -0.164696
C10   C     C_R   0.862055 0.268933 0.787818 0.002750
C11   C     C_R   0.852461 0.190862 0.824502 0.062309
C12   C     C_R   0.851445 0.240982 0.714624 0.096795
C13   C     C_R   0.828096 0.136156 0.680166 0.136085
C14   C     C_R   0.818895 0.061286 0.717374 -0.210646
C15   C     C_R   0.831490 0.087941 0.788304 -0.184463
C16   C     C_R   0.862396 0.313315 0.674148 -0.216978
C17   C     C_R   0.820069 0.179967 0.570078 -0.153542
C18   C     C_R   0.866463 0.217216 0.896862 -0.117119
H3    H     H_    0.880506 0.394037 0.696150 0.090037
C19   C     C_3   0.676737 0.218633 0.230119 -0.155778
C20   C     C_3   0.779094 0.199630 0.294254 -0.129324
H4    H     H_    0.716401 0.159603 0.331588 0.111747
H5    H     H_    0.528557 0.192330 0.213629 0.127668
C21   C     C_3   0.850545 0.311622 0.312441 -0.064860
C22   C     C_3   0.747629 0.331708 0.249211 -0.189941
C23   C     C_3   0.932205 0.298835 0.207435 0.386359
C24   C     C_3   0.037241 0.281045 0.270478 -0.167266
C25   C     C_3   0.964982 0.168197 0.251247 -0.193422
C26   C     C_3   0.862602 0.187817 0.187792 -0.027382
H6    H     H_    0.660372 0.399677 0.248241 0.132817
H7    H     H_    0.053522 0.100414 0.251776 0.123398
C27   C     C_3   0.454617 0.794344 0.706312 -0.127526
C28   C     C_3   0.274333 0.839827 0.748528 -0.193842
H8    H     H_    0.206909 0.913800 0.747870 0.126070
H9    H     H_    0.535566 0.829901 0.670109 0.107043
C29   C     C_3   0.359534 0.812145 0.812273 -0.024209
C30   C     C_3   0.540022 0.767247 0.770757 -0.158729
C31   C     C_3   0.439352 0.660654 0.750999 -0.192021
C32   C     C_3   0.261074 0.707524 0.792000 0.386088
C33   C     C_3   0.172356 0.733589 0.728639 -0.181157
C34   C     C_3   0.353648 0.688829 0.687443 -0.056478
H10   H     H_    0.505247 0.586531 0.752204 0.118629
C35   C     C_R   0.452915 0.889694 0.392641 0.349573
H11   H     H_    0.455221 0.834850 0.484343 0.120297
C36   C     C_R   0.363308 0.717494 0.397396 -0.117154
C37   C     C_R   0.309321 0.683196 0.069415 -0.238682
C38   C     C_R   0.313378 0.605448 0.103717 -0.102049
C39   C     C_R   0.356719 0.626508 0.173481 0.326846
C40   C     C_R   0.373116 0.730318 0.212496 -0.001922
C41   C     C_R   0.385999 0.808142 0.175634 0.036339
C42   C     C_R   0.379901 0.759800 0.285971 0.040850
C43   C     C_R   0.431323 0.862336 0.320040 0.057769
C44   C     C_R   0.462281 0.934315 0.280953 -0.200761
C45   C     C_R   0.432842 0.908785 0.210742 -0.178831
C46   C     C_R   0.330106 0.691673 0.326934 -0.251850
C47   C     C_R   0.429113 0.815196 0.429587 -0.163885
C48   C     C_R   0.354034 0.783517 0.103969 -0.088026
H12   H     H_    0.266324 0.617573 0.305259 0.158514
H13   H     H_    0.281354 0.664197 0.014794 0.166219
H14   H     H_    0.294147 0.527010 0.074846 0.156438
H15   H     H_    0.450589 0.969004 0.183977 0.111515
O11   O     O_R   0.203580 0.914920 0.912610 -0.533431
O12   O     O_R   0.535710 0.887810 0.047120 -0.540692
O13   O     O_R   0.710730 0.084950 0.087430 -0.549317
C49   C     C_R   0.365924 0.861283 0.064104 0.714687
O14   O     O_R   0.533010 0.902850 0.910600 -0.549402
O15   O     O_R   0.708010 0.100090 0.949930 -0.541697
C50   C     C_R   0.364961 0.881390 0.883037 0.717010
O16   O     O_R   0.206300 0.899780 0.050100 -0.538970
O17   O     O_3   0.375170 0.064580 0.013100 -0.372135
V3    V     V_3+5 0.648200 0.988020 0.997570 1.455626
O18   O     O_R   0.038030 0.112330 0.952840 -0.540673
C51   C     C_R   0.870401 0.138981 0.936205 0.718553
O19   O     O_R   0.040730 0.097300 0.089360 -0.535905
C52   C     C_R   0.871984 0.118542 0.116998 0.714014
V4    V     V_3+5 0.148780 0.012220 0.002360 1.478160
O20   O     O_3   0.871930 0.935430 0.986900 -0.366446
O21   O     O_3   0.012493 0.349689 0.160814 -0.646192
H16   H     H_    0.040547 0.420160 0.187865 0.302123
H17   H     H_    0.185632 0.307711 0.286400 0.126242
H18   H     H_    0.691528 0.781746 0.788067 0.133107
O22   O     O_3   0.159545 0.663357 0.837999 -0.635475
H19   H     H_    0.111077 0.596754 0.810291 0.288651
H20   H     H_    0.020406 0.718775 0.711945 0.117417
H21   H     H_    0.506816 0.011960 0.303840 0.119549
O23   O     O_3   0.501226 0.987002 0.429375 -0.655744
H22   H     H_    0.433058 0.036665 0.409272 0.274396
O24   O     O_3   0.402268 0.543760 0.198915 -0.661041
H23   H     H_    0.512714 0.564449 0.230428 0.278539
H24   H     H_    0.793853 0.027133 0.582042 0.129800
H25   H     H_    0.901691 0.338261 0.987846 0.131140
H26   H     H_    0.888180 0.435060 0.801980 0.122457
O25   O     O_3   0.917327 0.498566 0.931020 -0.633096
H27   H     H_    0.926128 0.503906 0.980984 0.291131
H28   H     H_    0.824124 0.026725 0.814548 0.114043

loop_
_geom_bond_atom_site_label_1
_geom_bond_atom_site_label_2
_ccdc_geom_bond_type
C40   C42   A    
C19   H5    S    
C24   C25   S    
C20   H4    S    
C35   C43   A    
C1    O6    A    
C48   C49   S    
V3    O20   S    
C6    C16   A    
C32   C33   S    
C45   H15   S    
C27   H9    S    
C12   C13   A    
C26   C52   S    
C41   C45   A    
C15   H28   S    
C14   C15   A    
C5    H24   S    
C10   C12   A    
O5    C3    A    
C21   C22   S    
C8    O25   S    
C37   H13   S    
C9    H26   S    
C19   C20   S    
C41   C48   A    
C20   C25   S    
O21   H16   S    
C27   C28   S    
O8    V2    S    
C19   C22   S    
C23   C26   S    
C28   H8    S    
C27   C34   S    
O25   H27   S    
O1    V2    S    
C35   C47   A    
O7    V1    S    
C31   C34   S    
C44   H21   S    
C11   C18   A    
C43   C44   A    
O12   V3    S    
O9    C4    A    
C32   O22   S    
C38   C39   A    
O17   V4    S    
C2    C36   S    
C28   C29   S    
O12   C49   A    
O13   C52   A    
C11   C15   A    
C7    C18   A    
C29   C32   S    
C19   C26   S    
C30   C31   S    
C5    C13   A    
C4    C6    S    
C20   C21   S    
C10   C11   A    
C21   C24   S    
O14   C50   A    
O18   V4    S    
O11   C50   A    
C22   C23   S    
O4    C2    A    
O18   C51   A    
H11   C47   S    
C37   C48   A    
C18   C51   S    
C27   C30   S    
C44   C45   A    
C37   C38   A    
C25   H7    S    
C46   H12   S    
O2    C1    A    
O14   V3    S    
C24   H17   S    
C9    C10   A    
O22   H19   S    
C39   C40   A    
C29   C30   S    
C23   O21   S    
H2    C14   S    
O15   C51   A    
O3    C4    A    
C36   C46   A    
C28   C33   S    
O13   V3    S    
C23   C24   S    
O19   V4    S    
C12   C16   A    
O6    V2    S    
O9    V2    S    
C1    C34   S    
C5    C17   A    
C25   C26   S    
O2    V1    S    
C31   C32   S    
C29   C50   S    
O16   V4    S    
C33   C34   S    
C16   H3    S    
O1    C2    A    
O17   V3    S    
O5    V1    S    
O8    C3    A    
C22   H6    S    
C38   H14   S    
O7    V2    S    
O4    V1    S    
O3    V1    S    
V1    O10   S    
C49   O16   A    
C35   O23   S    
V4    O20   S    
C42   C46   A    
O23   H22   S    
C3    C21   S    
O24   H23   S    
C7    H25   S    
C36   C47   A    
C40   C41   A    
C31   H10   S    
O19   C52   A    
C42   C43   A    
O11   V4    S    
C13   C14   A    
C8    C9    A    
C33   H20   S    
H1    C17   S    
C7    C8    A    
O15   V3    S    
V2    O10   S    
C30   H18   S    
C39   O24   S    
C6    C17   A    
