data_mof_unit_64777.cif
_audit_creation_date              2012-12-10T20:37:20-0500
_audit_creation_method            fapswitch 2.2
_symmetry_space_group_name_H-M    P1
_symmetry_Int_Tables_number       1
_space_group_crystal_system       triclinic
_cell_length_a                    36.016962
_cell_length_b                    39.795211
_cell_length_c                    26.767435
_cell_angle_alpha                 89.999137
_cell_angle_beta                  132.05389
_cell_angle_gamma                 90.000436
_cell_volume                      28487.2128108

loop_
_atom_site_label
_atom_site_type_symbol
_atom_type_description
_atom_site_fract_x
_atom_site_fract_y
_atom_site_fract_z
_atom_type_partial_charge
C1    C     C_R   0.400180 0.749921 0.000048 0.828204
C2    C     C_3   0.751791 0.721171 0.028361 -0.163812
C3    C     C_R   0.188016 0.278912 0.361568 -0.171847
C4    C     C_R   0.712811 0.244133 0.361348 -0.171620
C5    C     C_R   0.311970 0.778910 0.638431 -0.171854
C6    C     C_R   0.287199 0.243907 0.638664 -0.171729
C7    C     C_R   0.688041 0.778911 0.361567 -0.171859
C8    C     C_R   0.198286 0.749555 0.397565 0.119574
C9    C     C_R   0.800617 0.249470 0.602385 0.119484
C10   C     C_R   0.801717 0.749559 0.602436 0.119576
C11   C     C_R   0.199318 0.249464 0.397603 0.119505
C12   C     C_R   0.698218 0.249556 0.397543 0.119525
C13   C     C_3   0.751128 0.278536 0.027092 -0.163770
C14   C     C_R   0.300684 0.749465 0.602396 0.119509
C15   C     C_R   0.301716 0.249554 0.602436 0.119570
C16   C     C_R   0.699318 0.749469 0.397605 0.119512
C17   C     C_1   0.234940 0.749943 0.469727 -0.062462
C18   C     C_1   0.764992 0.250016 0.530212 -0.062425
C19   C     C_1   0.765064 0.749948 0.530274 -0.062461
C20   C     C_1   0.234926 0.250006 0.469772 -0.062430
C21   C     C_1   0.734853 0.249951 0.469710 -0.062435
C22   C     C_1   0.265077 0.750008 0.530228 -0.062431
C23   C     C_1   0.265063 0.249942 0.530273 -0.062460
C24   C     C_3   0.247233 0.721665 0.969672 -0.163855
C25   C     C_1   0.734927 0.750013 0.469773 -0.062432
C26   C     C_R   0.498022 0.431264 0.043427 -0.170281
C27   C     C_R   0.496115 0.568807 0.951401 -0.169847
C28   C     C_R   0.501977 0.431264 0.956571 -0.170282
C29   C     C_R   0.503884 0.568806 0.048598 -0.169841
C30   C     C_R   0.998025 0.931264 0.043430 -0.170284
C31   C     C_R   0.996109 0.068807 0.951397 -0.169845
C32   C     C_R   0.001976 0.931265 0.956570 -0.170278
C33   C     C_R   0.003891 0.068806 0.048604 -0.169842
C34   C     C_R   0.498019 0.396161 0.043477 -0.198389
C35   C     C_3   0.748906 0.778554 0.972978 -0.163763
C36   C     C_R   0.496176 0.603905 0.951398 -0.203450
C37   C     C_R   0.501981 0.396161 0.956521 -0.198416
C38   C     C_R   0.503823 0.603904 0.048602 -0.203451
C39   C     C_R   0.998021 0.896161 0.043480 -0.198415
C40   C     C_R   0.996170 0.103905 0.951394 -0.203452
C41   C     C_R   0.001980 0.896161 0.956519 -0.198408
C42   C     C_R   0.003830 0.103904 0.048607 -0.203445
C43   C     C_R   0.500000 0.378253 0.999999 -0.009997
C44   C     C_R   0.500000 0.621792 0.000000 -0.004847
C45   C     C_R   0.000000 0.878253 1.000000 -0.009991
C46   C     C_3   0.252150 0.221342 0.029086 -0.163812
C47   C     C_R   1.000000 0.121792 0.000000 -0.004845
C48   C     C_R   0.500000 0.448842 0.999999 0.160602
C49   C     C_R   0.499999 0.551230 1.000000 0.160958
C50   C     C_R   0.000000 0.948842 1.000000 0.160605
C51   C     C_R   0.000000 0.051230 0.000000 0.160959
C52   C     C_1   0.499999 0.484916 0.999999 -0.069621
C53   C     C_1   0.499999 0.515157 0.999999 -0.070202
C54   C     C_1   0.000000 0.984916 0.000000 -0.069625
C55   C     C_1   0.000000 0.015158 0.000000 -0.070203
C56   C     C_R   0.500000 0.658872 0.000000 0.784534
C57   C     C_3   0.252067 0.778057 0.028983 -0.163798
C58   C     C_R   0.500000 0.341143 1.000000 0.791972
C59   C     C_R   1.000000 0.158872 0.000000 0.784530
C60   C     C_R   1.000000 0.841143 1.000000 0.791986
C61   C     C_R   0.500000 0.841016 1.000000 0.807088
C62   C     C_R   0.500000 0.158983 0.000000 0.805776
C63   C     C_R   1.000000 0.341016 1.000000 0.807085
C64   C     C_R   0.000000 0.658983 0.000000 0.805788
C65   C     C_R   0.453904 0.068848 0.957995 0.108109
C66   C     C_R   0.545779 0.931146 0.046674 0.108397
C67   C     C_R   0.546096 0.068848 0.042007 0.108110
C68   C     C_3   0.748174 0.221188 0.971568 -0.163814
C69   C     C_R   0.454220 0.931146 0.953327 0.108398
C70   C     C_R   0.953904 0.568848 0.957994 0.108111
C71   C     C_R   0.045779 0.431146 0.046673 0.108397
C72   C     C_R   0.046096 0.568848 0.042005 0.108111
C73   C     C_R   0.954220 0.431146 0.953326 0.108398
C74   C     C_R   0.454743 0.104181 0.958704 -0.216500
C75   C     C_R   0.544956 0.895814 0.045754 -0.217331
C76   C     C_R   0.545258 0.104180 0.041298 -0.216492
C77   C     C_R   0.455044 0.895814 0.954246 -0.217339
C78   C     C_R   0.954743 0.604181 0.958704 -0.216495
C79   C     C_3   0.706371 0.752186 0.937044 -0.162778
C80   C     C_R   0.044956 0.395814 0.045754 -0.217336
C81   C     C_R   0.045258 0.604180 0.041296 -0.216502
C82   C     C_R   0.955044 0.395814 0.954246 -0.217333
C83   C     C_R   0.500000 0.121874 0.000001 -0.080917
C84   C     C_R   0.500000 0.878122 1.000000 -0.081102
C85   C     C_R   0.000000 0.621874 0.000000 -0.080918
C86   C     C_R   1.000000 0.378122 1.000000 -0.081103
C87   C     C_R   0.500000 0.051335 0.000001 0.060241
C88   C     C_R   0.500000 0.948659 0.000000 0.060142
C89   C     C_R   0.000000 0.551335 1.000000 0.060240
C90   C     C_3   0.294373 0.247934 0.064363 -0.164293
C91   C     C_R   1.000000 0.448659 1.000000 0.060143
C92   C     C_1   0.500000 0.015090 0.000001 -0.092506
C93   C     C_1   0.500000 0.984904 0.000001 -0.092748
C94   C     C_1   0.000000 0.515090 1.000000 -0.092507
C95   C     C_1   1.000000 0.484904 1.000000 -0.092747
C96   C     C_3   0.404965 0.049057 0.913456 -0.412923
C97   C     C_3   0.356696 0.070036 0.869919 -0.358861
C98   C     C_3   0.310510 0.047527 0.828047 -0.883369
C99   C     C_3   0.594372 0.950935 0.096308 -0.412452
C100  C     C_3   0.642242 0.929953 0.145627 -0.359635
C101  C     C_3   0.293687 0.751086 0.063078 -0.162679
C102  C     C_3   0.688077 0.952459 0.192637 -0.883701
C103  C     C_3   0.595036 0.049057 0.086546 -0.412933
C104  C     C_3   0.643305 0.070035 0.130082 -0.358848
C105  C     C_3   0.689490 0.047526 0.171954 -0.883353
C106  C     C_3   0.405628 0.950936 0.903693 -0.412455
C107  C     C_3   0.357758 0.929955 0.854374 -0.359633
C108  C     C_3   0.311923 0.952461 0.807365 -0.883704
C109  C     C_3   0.904964 0.549057 0.913456 -0.412924
C110  C     C_3   0.856696 0.570036 0.869920 -0.358861
C111  C     C_3   0.810510 0.547527 0.828048 -0.883363
C112  C     C_R   0.599768 0.250047 0.999859 0.825489
C113  C     C_3   0.705654 0.247581 0.935694 -0.164293
C114  C     C_3   0.094372 0.450935 0.096308 -0.412455
C115  C     C_3   0.142241 0.429953 0.145627 -0.359631
C116  C     C_3   0.188077 0.452459 0.192637 -0.883700
C117  C     C_3   0.095036 0.549057 0.086543 -0.412923
C118  C     C_3   0.143305 0.570035 0.130078 -0.358863
C119  C     C_3   0.189490 0.547526 0.171949 -0.883368
C120  C     C_3   0.905627 0.450936 0.903692 -0.412457
C121  C     C_3   0.857758 0.429954 0.854373 -0.359632
C122  C     C_3   0.811922 0.452461 0.807364 -0.883697
C123  C     C_3   0.055615 0.757919 0.256016 -0.383022
C124  C     C_3   0.206350 0.251783 0.936998 -0.162737
C125  C     C_3   0.041993 0.755198 0.299407 -0.385657
C126  C     C_3   0.985374 0.755946 0.255791 -0.873299
C127  C     C_3   0.882037 0.184527 0.744357 -0.384702
C128  C     C_3   0.858191 0.152502 0.701300 -0.386362
C129  C     C_3   0.881863 0.121049 0.745237 -0.873184
C130  C     C_3   0.944391 0.757899 0.743990 -0.383039
C131  C     C_3   0.958016 0.755166 0.700604 -0.385563
C132  C     C_3   0.014635 0.755904 0.744224 -0.873457
C133  C     C_3   0.117968 0.184520 0.255623 -0.384703
C134  C     C_3   0.141821 0.152495 0.298679 -0.386371
C135  C     C_3   0.794343 0.747542 0.064299 -0.164296
C136  C     C_3   0.118172 0.121042 0.254738 -0.873170
C137  C     C_3   0.555477 0.257363 0.255877 -0.383310
C138  C     C_3   0.541819 0.254260 0.299182 -0.385197
C139  C     C_3   0.485184 0.254684 0.255490 -0.873621
C140  C     C_3   0.382063 0.684524 0.744375 -0.384681
C141  C     C_3   0.358229 0.652498 0.701317 -0.386383
C142  C     C_3   0.381895 0.621045 0.745256 -0.873186
C143  C     C_3   0.444392 0.257881 0.743991 -0.383047
C144  C     C_3   0.458016 0.255134 0.700606 -0.385622
C145  C     C_3   0.514636 0.255861 0.744227 -0.873319
C146  C     C_3   0.793632 0.252145 0.062962 -0.162774
C147  C     C_3   0.617914 0.684528 0.255636 -0.384682
C148  C     C_3   0.641728 0.652503 0.298702 -0.386384
C149  C     C_3   0.618048 0.621049 0.254768 -0.873202
C150  C     C_3   0.205596 0.748638 0.935575 -0.164229
C151  C     C_1   0.639587 0.749807 0.000030 -0.149696
C152  C     C_1   0.360692 0.250025 0.000498 -0.151892
C153  C     C_1   0.360413 0.749807 0.999970 -0.149701
C154  C     C_1   0.639310 0.250028 0.999506 -0.151916
C155  C     C_1   0.139588 0.249806 0.000032 -0.149694
C156  C     C_R   0.599820 0.749921 0.999952 0.828198
C157  C     C_1   0.860690 0.750028 0.000493 -0.151920
C158  C     C_1   0.860414 0.249807 0.999971 -0.149698
C159  C     C_1   0.139309 0.750027 0.999505 -0.151918
C160  C     C_3   0.755717 0.776173 0.036476 -0.160764
C161  C     C_3   0.245315 0.223328 0.965533 -0.161506
C162  C     C_3   0.245197 0.776774 0.965361 -0.160814
C163  C     C_3   0.754986 0.223532 0.035073 -0.161483
C164  C     C_3   0.255392 0.276390 0.035822 -0.160806
C165  C     C_3   0.744981 0.723555 0.964861 -0.161486
C166  C     C_3   0.744316 0.276195 0.963588 -0.160764
C167  C     C_R   0.400232 0.250046 0.000141 0.825494
C168  C     C_3   0.254102 0.722950 0.033296 -0.161551
C169  C     C_3   0.713816 0.749804 0.000533 0.203227
C170  C     C_3   0.286879 0.249918 0.000800 0.203361
C171  C     C_3   0.286182 0.749802 0.999464 0.203236
C172  C     C_3   0.713126 0.249923 0.999209 0.203361
C173  C     C_3   0.213820 0.249799 0.000540 0.203233
C174  C     C_3   0.786873 0.749923 0.000789 0.203364
C175  C     C_3   0.786184 0.249803 0.999468 0.203225
C176  C     C_3   0.213125 0.749921 0.999209 0.203363
C177  C     C_1   0.673096 0.749776 0.000247 -0.086113
C178  C     C_R   0.900180 0.249921 0.000048 0.828204
C179  C     C_1   0.327411 0.249984 0.000726 -0.087921
C180  C     C_1   0.326903 0.749775 0.999751 -0.086113
C181  C     C_1   0.672593 0.249988 0.999281 -0.087934
C182  C     C_1   0.173099 0.249773 0.000252 -0.086114
C183  C     C_1   0.827406 0.749988 0.000717 -0.087933
C184  C     C_1   0.826904 0.249775 0.999754 -0.086113
C185  C     C_1   0.172593 0.749987 0.999280 -0.087930
C186  C     C_R   0.147932 0.754420 0.363951 -0.171208
C187  C     C_R   0.823369 0.219177 0.636196 -0.171322
C188  C     C_R   0.852074 0.754413 0.636052 -0.171209
C189  C     C_R   0.099768 0.750047 0.999859 0.825505
C190  C     C_R   0.176588 0.219169 0.363787 -0.171329
C191  C     C_R   0.647810 0.254169 0.363886 -0.171274
C192  C     C_R   0.323427 0.719173 0.636212 -0.171327
C193  C     C_R   0.352074 0.254402 0.636052 -0.171210
C194  C     C_R   0.676563 0.719178 0.363793 -0.171323
C195  C     C_R   0.110955 0.753979 0.293054 0.080108
C196  C     C_R   0.858400 0.217789 0.707110 0.081531
C197  C     C_R   0.889049 0.753970 0.706949 0.080100
C198  C     C_R   0.141584 0.217783 0.292875 0.081542
C199  C     C_R   0.610864 0.253711 0.292986 0.080155
C200  C     C_R   0.099820 0.249921 0.999952 0.828194
C201  C     C_R   0.358432 0.717785 0.707124 0.081537
C202  C     C_R   0.389049 0.253961 0.706949 0.080109
C203  C     C_R   0.641557 0.717789 0.292882 0.081533
C204  C     C_R   0.126345 0.749125 0.256426 -0.045233
C205  C     C_R   0.870763 0.248227 0.743555 -0.045421
C206  C     C_R   0.873656 0.749127 0.743575 -0.045212
C207  C     C_R   0.129226 0.248224 0.256439 -0.045380
C208  C     C_R   0.626332 0.249113 0.256407 -0.044808
C209  C     C_R   0.370774 0.748224 0.743560 -0.045400
C210  C     C_R   0.373655 0.249126 0.743575 -0.045207
C211  C     C_R   0.900231 0.750047 0.000140 0.825495
C212  C     C_R   0.629225 0.748225 0.256441 -0.045421
C213  C     C_R   0.177083 0.743604 0.291286 -0.221404
C214  C     C_R   0.846649 0.278288 0.708485 -0.221607
C215  C     C_R   0.822916 0.743616 0.708714 -0.221406
C216  C     C_R   0.153320 0.278286 0.291515 -0.221638
C217  C     C_R   0.677121 0.243838 0.291296 -0.221457
C218  C     C_R   0.346665 0.778284 0.708484 -0.221635
C219  C     C_R   0.322913 0.243621 0.708714 -0.221404
C220  C     C_R   0.653344 0.778284 0.291514 -0.221633
C221  C     C_R   0.591438 0.749412 0.182108 0.775623
C222  C     C_3   0.248557 0.278373 0.972271 -0.163781
C223  C     C_R   0.409535 0.249703 0.817898 0.775530
C224  C     C_R   0.408562 0.749412 0.817893 0.775608
C225  C     C_R   0.590468 0.249705 0.182095 0.775403
C226  C     C_R   0.091438 0.249412 0.182107 0.775606
C227  C     C_R   0.909535 0.749703 0.817898 0.775533
C228  C     C_R   0.908561 0.249413 0.817891 0.775588
C229  C     C_R   0.090465 0.749703 0.182102 0.775530
C230  C     C_R   0.212798 0.743890 0.361336 -0.171736
C231  C     C_R   0.811927 0.278915 0.638431 -0.171839
C232  C     C_R   0.787201 0.743904 0.638664 -0.171732
H1    H     H_    0.496485 0.444685 0.077229 0.133082
H2    H     H_    0.493031 0.617013 0.913245 0.158060
H3    H     H_    0.409370 0.967493 0.873805 0.203838
H4    H     H_    0.810082 0.531620 0.793582 0.262969
H5    H     H_    0.810119 0.531205 0.861353 0.259147
H6    H     H_    0.776287 0.563324 0.797422 0.251343
H7    H     H_    0.855364 0.586086 0.902690 0.224137
H8    H     H_    0.855539 0.586243 0.835065 0.224837
H9    H     H_    0.904746 0.532747 0.879527 0.204480
H10   H     H_    0.904404 0.532506 0.946424 0.203880
H11   H     H_    0.192894 0.468369 0.163239 0.262927
H12   H     H_    0.184131 0.468780 0.222511 0.259292
H13   H     H_    0.503528 0.383071 0.922480 0.159294
H14   H     H_    0.221985 0.436660 0.227814 0.251200
H15   H     H_    0.139184 0.413901 0.176729 0.223106
H16   H     H_    0.147744 0.413749 0.117203 0.224541
H17   H     H_    0.098925 0.467239 0.066978 0.204361
H18   H     H_    0.090629 0.467492 0.126195 0.203837
H19   H     H_    0.189919 0.531618 0.206416 0.262970
H20   H     H_    0.189881 0.531204 0.138643 0.259145
H21   H     H_    0.223713 0.563323 0.202575 0.251344
H22   H     H_    0.144636 0.586086 0.097307 0.224127
H23   H     H_    0.144462 0.586241 0.164934 0.224838
H24   H     H_    0.506968 0.617011 0.086756 0.158065
H25   H     H_    0.095255 0.532746 0.120473 0.204480
H26   H     H_    0.095595 0.532506 0.053575 0.203879
H27   H     H_    0.807106 0.468370 0.836763 0.262926
H28   H     H_    0.815868 0.468782 0.777490 0.259294
H29   H     H_    0.778014 0.436662 0.772188 0.251199
H30   H     H_    0.860815 0.413902 0.823271 0.223106
H31   H     H_    0.852256 0.413749 0.882798 0.224543
H32   H     H_    0.901075 0.467240 0.933022 0.204362
H33   H     H_    0.909370 0.467493 0.873805 0.203838
H34   H     H_    0.969533 0.779716 0.226568 0.264512
H35   H     H_    0.996475 0.883070 0.077522 0.159292
H36   H     H_    0.967586 0.734312 0.220464 0.258790
H37   H     H_    0.976604 0.754340 0.288362 0.247634
H38   H     H_    0.056715 0.731259 0.328248 0.227663
H39   H     H_    0.058393 0.776682 0.335058 0.221843
H40   H     H_    0.042688 0.782789 0.230603 0.227894
H41   H     H_    0.034525 0.737967 0.216926 0.200895
H42   H     H_    0.922596 0.120414 0.773849 0.257776
H43   H     H_    0.876108 0.120546 0.781149 0.262162
H44   H     H_    0.864272 0.098318 0.712956 0.250275
H45   H     H_    0.817447 0.152240 0.672838 0.228193
H46   H     H_    0.993020 0.117013 0.913235 0.158065
H47   H     H_    0.863893 0.151663 0.665327 0.222226
H48   H     H_    0.922126 0.184780 0.769579 0.227891
H49   H     H_    0.879620 0.182751 0.783584 0.201987
H50   H     H_    0.030483 0.779675 0.773440 0.264439
H51   H     H_    0.032415 0.734271 0.779557 0.258876
H52   H     H_    0.023408 0.754287 0.711656 0.247642
H53   H     H_    0.943286 0.731226 0.671767 0.227665
H54   H     H_    0.941624 0.776648 0.664949 0.221833
H55   H     H_    0.957326 0.782770 0.769401 0.227890
H56   H     H_    0.965474 0.737948 0.783084 0.200887
H57   H     H_    0.003525 0.883071 0.922477 0.159294
H58   H     H_    0.077437 0.120396 0.226108 0.257769
H59   H     H_    0.123944 0.120551 0.218843 0.262164
H60   H     H_    0.135767 0.098311 0.287019 0.250273
H61   H     H_    0.182568 0.152244 0.327160 0.228201
H62   H     H_    0.136103 0.151644 0.334635 0.222219
H63   H     H_    0.077875 0.184762 0.230383 0.227903
H64   H     H_    0.120400 0.182754 0.216410 0.201961
H65   H     H_    0.469105 0.278468 0.226361 0.264474
H66   H     H_    0.467654 0.233084 0.220075 0.258815
H67   H     H_    0.476382 0.252781 0.287998 0.247655
H68   H     H_    0.006979 0.117011 0.086765 0.158052
H69   H     H_    0.556787 0.230307 0.327963 0.227671
H70   H     H_    0.557958 0.275705 0.334888 0.221780
H71   H     H_    0.542346 0.282256 0.230566 0.227744
H72   H     H_    0.534584 0.237444 0.216688 0.200614
H73   H     H_    0.422632 0.620414 0.773891 0.257772
H74   H     H_    0.376120 0.620540 0.781147 0.262165
H75   H     H_    0.364317 0.598314 0.712974 0.250276
H76   H     H_    0.317482 0.652235 0.672833 0.228201
H77   H     H_    0.363950 0.651660 0.665363 0.222221
H78   H     H_    0.422157 0.684778 0.769618 0.227912
H79   H     H_    0.420308 0.118345 0.927316 0.161976
H80   H     H_    0.379628 0.682746 0.783584 0.201978
H81   H     H_    0.530493 0.279632 0.773441 0.264508
H82   H     H_    0.532407 0.234229 0.779561 0.258793
H83   H     H_    0.523409 0.254235 0.711659 0.247635
H84   H     H_    0.443278 0.231195 0.671769 0.227663
H85   H     H_    0.441633 0.276616 0.664950 0.221839
H86   H     H_    0.457334 0.282753 0.769397 0.227884
H87   H     H_    0.465469 0.237931 0.783088 0.200876
H88   H     H_    0.577309 0.620431 0.226121 0.257774
H89   H     H_    0.623834 0.620529 0.218888 0.262166
H90   H     H_    0.579152 0.881646 0.080617 0.160947
H91   H     H_    0.635609 0.598319 0.287056 0.250279
H92   H     H_    0.682476 0.652226 0.327192 0.228201
H93   H     H_    0.636000 0.651678 0.334649 0.222223
H94   H     H_    0.577819 0.684793 0.230384 0.227921
H95   H     H_    0.620357 0.682739 0.216436 0.201991
H96   H     H_    0.579692 0.118345 0.072686 0.161984
H97   H     H_    0.493037 0.555391 0.913536 0.133665
H98   H     H_    0.420848 0.881647 0.919383 0.160947
H99   H     H_    0.920308 0.618345 0.927317 0.161975
H100  H     H_    0.079152 0.381646 0.080617 0.160948
H101  H     H_    0.079692 0.618345 0.072683 0.161973
H102  H     H_    0.920848 0.381647 0.919383 0.160947
H103  H     H_    0.669722 0.754091 0.884744 0.133075
H104  H     H_    0.331070 0.246361 0.116689 0.133793
H105  H     H_    0.330385 0.752089 0.115479 0.133119
H106  H     H_    0.668976 0.245715 0.883406 0.133702
H107  H     H_    0.169681 0.253362 0.884655 0.133091
H108  H     H_    0.503514 0.444686 0.922768 0.133072
H109  H     H_    0.831019 0.745643 0.116582 0.133692
H110  H     H_    0.830282 0.254018 0.115266 0.133077
H111  H     H_    0.168871 0.747639 0.883190 0.133803
H112  H     H_    0.247588 0.301813 0.948934 0.132514
H113  H     H_    0.752470 0.697587 0.051112 0.132455
H114  H     H_    0.751834 0.302106 0.049898 0.132519
H115  H     H_    0.245752 0.698488 0.945306 0.132424
H116  H     H_    0.748228 0.802138 0.950228 0.132523
H117  H     H_    0.253119 0.197903 0.052424 0.132444
H118  H     H_    0.253548 0.801234 0.053349 0.132493
H119  H     H_    0.506962 0.555389 0.086464 0.133670
H120  H     H_    0.747467 0.197619 0.948762 0.132455
H121  H     H_    0.241681 0.201521 0.936650 0.133260
H122  H     H_    0.759629 0.797796 0.065910 0.133618
H123  H     H_    0.758865 0.201890 0.064449 0.133274
H124  H     H_    0.242038 0.798892 0.937442 0.133591
H125  H     H_    0.741072 0.701932 0.935429 0.133270
H126  H     H_    0.259029 0.298197 0.064707 0.133611
H127  H     H_    0.257258 0.700832 0.061215 0.133246
H128  H     H_    0.740434 0.297837 0.934211 0.133618
H129  H     H_    0.138256 0.758493 0.393975 0.128206
H130  H     H_    0.996489 0.944685 0.077233 0.133071
H131  H     H_    0.813267 0.196893 0.606311 0.128318
H132  H     H_    0.861753 0.758479 0.606030 0.128202
H133  H     H_    0.186688 0.196883 0.393667 0.128315
H134  H     H_    0.638064 0.258061 0.393871 0.128217
H135  H     H_    0.313339 0.696890 0.606333 0.128315
H136  H     H_    0.361754 0.258462 0.606030 0.128206
H137  H     H_    0.686645 0.696896 0.393677 0.128313
H138  H     H_    0.189252 0.739619 0.264103 0.158087
H139  H     H_    0.855389 0.301551 0.735494 0.156840
H140  H     H_    0.810744 0.739638 0.735895 0.158069
H141  H     H_    0.993026 0.055391 0.913527 0.133666
H142  H     H_    0.144581 0.301552 0.264511 0.156829
H143  H     H_    0.689343 0.240046 0.264133 0.157800
H144  H     H_    0.355391 0.801547 0.735487 0.156846
H145  H     H_    0.310741 0.239650 0.735896 0.158063
H146  H     H_    0.644625 0.801545 0.264508 0.156856
H147  H     H_    0.251792 0.739872 0.387247 0.139988
H148  H     H_    0.794096 0.302424 0.612369 0.139803
H149  H     H_    0.748205 0.739894 0.612752 0.139985
H150  H     H_    0.205834 0.302421 0.387637 0.139792
H151  H     H_    0.751847 0.240310 0.387288 0.139997
H152  H     H_    0.003511 0.944686 0.922766 0.133074
H153  H     H_    0.294140 0.802418 0.612361 0.139791
H154  H     H_    0.248203 0.239902 0.612753 0.139988
H155  H     H_    0.705878 0.802418 0.387633 0.139790
H156  H     H_    0.310082 0.031620 0.793581 0.262969
H157  H     H_    0.310118 0.031205 0.861352 0.259147
H158  H     H_    0.276287 0.063324 0.797419 0.251344
H159  H     H_    0.355363 0.086087 0.902689 0.224132
H160  H     H_    0.355539 0.086243 0.835064 0.224838
H161  H     H_    0.404747 0.032747 0.879527 0.204480
H162  H     H_    0.404404 0.032507 0.946424 0.203879
H163  H     H_    0.006974 0.055389 0.086473 0.133661
H164  H     H_    0.692894 0.968369 0.163239 0.262928
H165  H     H_    0.684131 0.968780 0.222511 0.259294
H166  H     H_    0.721985 0.936660 0.227814 0.251197
H167  H     H_    0.639184 0.913900 0.176729 0.223105
H168  H     H_    0.647744 0.913749 0.117203 0.224543
H169  H     H_    0.598924 0.967239 0.066979 0.204361
H170  H     H_    0.590630 0.967492 0.126195 0.203837
H171  H     H_    0.689918 0.031618 0.206421 0.262967
H172  H     H_    0.689882 0.031204 0.138650 0.259145
H173  H     H_    0.723713 0.063323 0.202581 0.251351
H174  H     H_    0.496471 0.383070 0.077518 0.159327
H175  H     H_    0.644637 0.086086 0.097312 0.224140
H176  H     H_    0.644462 0.086241 0.164937 0.224847
H177  H     H_    0.595254 0.032746 0.120476 0.204480
H178  H     H_    0.595596 0.032506 0.053579 0.203881
H179  H     H_    0.307107 0.968370 0.836763 0.262926
H180  H     H_    0.315868 0.968782 0.777490 0.259294
H181  H     H_    0.278014 0.936662 0.772189 0.251200
H182  H     H_    0.360815 0.913902 0.823272 0.223107
H183  H     H_    0.352256 0.913749 0.882799 0.224536
H184  H     H_    0.401076 0.967240 0.933022 0.204360
O1    O     O_3   0.500000 0.749970 0.000000 -0.464521
O2    O     O_R   0.101800 0.730420 0.039220 -0.638467
O3    O     O_R   0.101800 0.269580 0.039220 -0.637460
O4    O     O_R   0.898200 0.730420 0.960780 -0.638469
O5    O     O_R   0.553280 0.730340 0.149660 -0.654464
O6    O     O_R   0.446720 0.269660 0.850340 -0.654086
O7    O     O_R   0.446720 0.730340 0.850340 -0.654450
O8    O     O_R   0.553280 0.269660 0.149660 -0.653899
O9    O     O_R   0.053280 0.230340 0.149660 -0.654441
O10   O     O_R   0.946720 0.769660 0.850340 -0.654097
O11   O     O_R   0.946720 0.230340 0.850340 -0.654434
O12   O     O_3   0.500000 0.250030 0.000000 -0.464374
O13   O     O_R   0.053280 0.769660 0.149660 -0.654100
O14   O     O_R   0.498080 0.675140 0.039250 -0.647526
O15   O     O_R   0.501920 0.324860 0.960750 -0.643929
O16   O     O_R   0.501920 0.675140 0.960750 -0.647525
O17   O     O_R   0.498080 0.324860 0.039250 -0.643887
O18   O     O_R   0.998080 0.175140 0.039250 -0.647527
O19   O     O_R   0.001920 0.824860 0.960750 -0.643920
O20   O     O_R   0.001920 0.175140 0.960750 -0.647520
O21   O     O_R   0.998080 0.824860 0.039250 -0.643922
O22   O     O_R   0.458830 0.824790 0.960760 -0.647540
O23   O     O_3   0.000000 0.249970 0.000000 -0.464525
O24   O     O_R   0.541170 0.175210 0.039240 -0.647293
O25   O     O_R   0.541170 0.824790 0.039240 -0.647538
O26   O     O_R   0.458830 0.175210 0.960760 -0.647303
O27   O     O_R   0.958830 0.324790 0.960760 -0.647540
O28   O     O_R   0.041170 0.675210 0.039240 -0.647303
O29   O     O_R   0.041170 0.324790 0.039240 -0.647538
O30   O     O_R   0.958830 0.675210 0.960760 -0.647300
O31   O     O_R   0.596370 0.769570 0.149640 -0.637189
O32   O     O_R   0.403630 0.230430 0.850360 -0.636686
O33   O     O_R   0.403630 0.769570 0.850360 -0.637187
O34   O     O_3   0.000000 0.750030 0.000000 -0.464340
O35   O     O_R   0.596370 0.230430 0.149640 -0.636659
O36   O     O_R   0.096370 0.269570 0.149640 -0.637185
O37   O     O_R   0.903630 0.730430 0.850360 -0.636691
O38   O     O_R   0.903630 0.269570 0.850360 -0.637183
O39   O     O_R   0.096370 0.730430 0.149640 -0.636692
O40   O     O_R   0.437440 0.730340 0.039250 -0.637317
O41   O     O_R   0.562560 0.269660 0.960750 -0.641533
O42   O     O_R   0.562560 0.730340 0.960750 -0.637311
O43   O     O_R   0.437440 0.269660 0.039250 -0.641522
O44   O     O_R   0.937440 0.230340 0.039250 -0.637311
O45   O     O_R   0.398200 0.769580 0.960780 -0.637456
O46   O     O_R   0.062560 0.769660 0.960750 -0.641531
O47   O     O_R   0.062560 0.230340 0.960750 -0.637310
O48   O     O_R   0.937440 0.769660 0.039250 -0.641530
O49   O     O_R   0.601800 0.230420 0.039220 -0.638460
O50   O     O_R   0.601800 0.769580 0.039220 -0.637462
O51   O     O_R   0.398200 0.230420 0.960780 -0.638479
O52   O     O_R   0.898200 0.269580 0.960780 -0.637459
Zn1   Zn    Zn3+2 0.558810 0.777990 0.056050 0.966660
Zn2   Zn    Zn3+2 0.502750 0.278070 0.943930 0.959531
Zn3   Zn    Zn3+2 0.502750 0.721930 0.943930 0.957690
Zn4   Zn    Zn3+2 0.497250 0.278070 0.056070 0.959628
Zn5   Zn    Zn3+2 0.997250 0.221930 0.056070 0.957697
Zn6   Zn    Zn3+2 0.002750 0.778070 0.943930 0.959548
Zn7   Zn    Zn3+2 0.002750 0.221930 0.943930 0.957697
Zn8   Zn    Zn3+2 0.997250 0.778070 0.056070 0.959539
Zn9   Zn    Zn3+2 0.441190 0.222010 0.943950 0.964238
Zn10  Zn    Zn3+2 0.441190 0.777990 0.943950 0.966663
Zn11  Zn    Zn3+2 0.558810 0.222010 0.056050 0.964264
Zn12  Zn    Zn3+2 0.058810 0.277990 0.056050 0.966659
Zn13  Zn    Zn3+2 0.941190 0.722010 0.943950 0.964259
Zn14  Zn    Zn3+2 0.941190 0.277990 0.943950 0.966660
Zn15  Zn    Zn3+2 0.058810 0.722010 0.056050 0.964261
Zn16  Zn    Zn3+2 0.497250 0.721930 0.056070 0.957685

loop_
_geom_bond_atom_site_label_1
_geom_bond_atom_site_label_2
_ccdc_geom_bond_type
C123  H40   S    
C2    H113  S    
C38   H24   S    
C62   C83   S    
C18   C21   T    
C74   C83   A    
C114  C115  S    
C155  C182  T    
O34   Zn6   S    
C102  H164  S    
O3    Zn12  S    
C64   O28   A    
C125  H39   S    
C79   H103  S    
C13   C146  S    
C124  C161  S    
C200  O47   A    
C63   O27   A    
C57   H118  S    
C221  O31   A    
C39   H35   S    
C106  C107  S    
C97   H159  S    
C143  C144  S    
C75   H90   S    
O45   Zn10  S    
C208  C217  A    
C37   H13   S    
O40   Zn16  S    
C201  C209  A    
C89   C94   S    
O13   Zn8   S    
C143  H87   S    
C110  C111  S    
C213  H138  S    
C80   C86   A    
C43   C58   S    
C13   C172  S    
C162  C171  S    
C100  H167  S    
C135  C160  S    
C127  H48   S    
C4    C12   A    
C128  H47   S    
C147  H95   S    
C58   O17   A    
C186  H129  S    
C153  C180  T    
C226  O36   A    
O17   Zn4   S    
C28   C48   A    
C129  H42   S    
C214  C231  A    
C76   C83   A    
C104  C105  S    
C65   C87   A    
C11   C20   S    
O22   Zn10  S    
C62   O24   A    
C140  C141  S    
C130  H56   S    
C98   H156  S    
C113  C166  S    
C131  H53   S    
C214  H139  S    
C149  H88   S    
C212  C220  A    
C61   C84   S    
C90   C164  S    
C13   H114  S    
O43   Zn4   S    
C119  H19   S    
C156  O42   A    
O1    Zn10  S    
C10   C232  A    
C111  H4    S    
C164  C173  S    
C111  H5    S    
C163  C172  S    
C2    C165  S    
C69   C88   A    
C124  C222  S    
C173  C182  S    
O19   Zn6   S    
O2    Zn15  S    
O49   Zn11  S    
C36   C44   A    
C107  C108  S    
C58   O15   A    
C64   C85   S    
C152  C167  S    
C115  H16   S    
C16   C25   S    
O1    Zn1   S    
C103  H177  S    
C17   C22   T    
C144  C145  S    
C136  H59   S    
C134  C136  S    
C167  O43   A    
C1    O45   A    
C7    H155  S    
C8    C17   S    
O44   Zn5   S    
C11   C190  A    
C77   H98   S    
C138  H69   S    
C147  C203  S    
C130  C131  S    
C158  C178  S    
C50   C54   S    
C227  O10   A    
C150  H111  S    
O31   Zn1   S    
O35   Zn11  S    
C232  H149  S    
O8    Zn4   S    
C13   C166  S    
C109  H10   S    
C49   C53   S    
C204  C213  A    
C5    H153  S    
C207  C216  A    
C51   C55   S    
C3    C11   A    
C118  H23   S    
C210  C219  A    
C2    C169  S    
C47   C59   S    
C122  H27   S    
C48   C52   S    
C132  H51   S    
C209  C224  S    
C41   C45   A    
C129  H44   S    
C127  C196  S    
O39   Zn15  S    
O10   Zn6   S    
O37   Zn13  S    
O48   Zn8   S    
O29   Zn12  S    
C116  H12   S    
C69   C77   A    
C147  C148  S    
C108  H180  S    
C128  C129  S    
C97   C98   S    
C221  O5    A    
C29   C49   A    
O46   Zn6   S    
C228  O11   A    
C165  H125  S    
C142  H74   S    
C190  H133  S    
C33   C42   A    
C112  O41   A    
C160  H122  S    
O32   Zn9   S    
C161  H121  S    
C66   C88   A    
C110  H8    S    
C75   C84   A    
C151  C177  T    
C36   H2    S    
C115  C116  S    
C24   H115  S    
C107  H182  S    
C137  H72   S    
C24   C171  S    
O14   Zn16  S    
C74   H79   S    
C31   C40   A    
C170  C222  S    
C172  C181  S    
C137  C199  S    
C29   C38   A    
C10   C188  A    
C32   C41   A    
C137  H71   S    
C194  H137  S    
C39   C45   A    
C14   C192  A    
O1    Zn3   S    
C112  C154  S    
C126  H36   S    
C106  H184  S    
O23   Zn14  S    
C169  C177  S    
C224  O33   A    
C113  C172  S    
C65   C96   S    
C34   H174  S    
C215  C232  A    
C139  H66   S    
C144  H84   S    
O27   Zn14  S    
C77   C84   A    
C8    C186  A    
C165  C174  S    
C114  H17   S    
C216  H142  S    
C65   C74   A    
C217  H143  S    
O34   Zn15  S    
C101  C168  S    
C134  H62   S    
C178  O44   A    
C121  H30   S    
C207  C226  S    
C107  H183  S    
C188  H132  S    
C20   C23   T    
C145  H82   S    
C192  C201  A    
C225  O35   A    
C79   C165  S    
O36   Zn12  S    
C24   C150  S    
O6    Zn2   S    
C7    C220  A    
C104  H175  S    
O33   Zn10  S    
O26   Zn9   S    
C116  H14   S    
C157  C211  S    
C141  H77   S    
C141  C142  S    
C70   C89   A    
C231  H148  S    
C105  H171  S    
C52   C53   T    
C78   C85   A    
C76   H96   S    
C168  C176  S    
C54   C55   T    
C31   H141  S    
C198  C207  A    
C200  O3    A    
C187  H131  S    
C34   C43   A    
C31   C51   A    
C218  H144  S    
C193  H136  S    
C102  H165  S    
C220  H146  S    
C141  H76   S    
C57   C101  S    
O47   Zn7   S    
C2    C135  S    
C170  C179  S    
C14   C22   S    
C136  H58   S    
C117  C118  S    
C30   H130  S    
C117  H26   S    
C32   H152  S    
C215  H140  S    
C42   H68   S    
C28   C37   A    
C35   C79   S    
C199  C208  A    
C30   C39   A    
C171  C180  S    
O41   Zn2   S    
C16   C194  A    
C144  H85   S    
C167  O51   A    
C9    C18   S    
C100  H168  S    
C96   H161  S    
C29   H119  S    
C126  H34   S    
C149  H89   S    
C63   O29   A    
C81   C85   A    
C123  H41   S    
C206  C215  A    
C132  H50   S    
C187  C196  A    
O24   Zn11  S    
O30   Zn13  S    
O18   Zn5   S    
O9    Zn5   S    
O7    Zn3   S    
C189  O46   A    
O28   Zn15  S    
C197  C206  A    
C176  C185  S    
C120  C121  S    
C168  H127  S    
C166  C175  S    
C80   H100  S    
O34   Zn13  S    
C99   H170  S    
O15   Zn2   S    
C123  C125  S    
C1    O40   A    
O51   Zn9   S    
C154  C181  T    
C78   H99   S    
C219  H145  S    
C133  H64   S    
C204  C229  S    
C35   C160  S    
O12   Zn9   S    
C103  H178  S    
C140  H78   S    
O23   Zn12  S    
C46   C161  S    
C64   O30   A    
C160  C169  S    
C211  O48   A    
C130  C197  S    
C105  H173  S    
C98   H158  S    
C222  H112  S    
C72   C81   A    
C26   C48   A    
C68   C113  S    
C227  O37   A    
C30   C50   A    
C40   H46   S    
C73   C120  S    
C87   C92   S    
C123  C195  S    
C146  H110  S    
C46   H117  S    
C33   H163  S    
O12   Zn2   S    
C68   C175  S    
C115  H15   S    
C150  C162  S    
C111  H6    S    
C67   C103  S    
C223  O6    A    
C164  H126  S    
C136  H60   S    
C166  H128  S    
C195  C204  A    
C97   H160  S    
C3    C216  A    
C27   H97   S    
O5    Zn16  S    
C193  C202  A    
C71   C114  S    
C156  O50   A    
C138  H70   S    
C162  H124  S    
C135  C174  S    
C38   C44   A    
C124  H107  S    
C225  O8    A    
C44   C56   S    
C5    C218  A    
C109  H9    S    
C10   C19   S    
C146  C175  S    
O21   Zn8   S    
C46   C173  S    
C151  C156  S    
C149  H91   S    
C60   O19   A    
C1    C153  S    
C121  C122  S    
C163  H123  S    
C122  H28   S    
C59   O20   A    
C132  H52   S    
C63   C86   S    
C133  C134  S    
C129  H43   S    
C131  C132  S    
C73   C82   A    
C190  C198  A    
C137  C138  S    
C68   C163  S    
C12   C191  A    
C192  H135  S    
O23   Zn7   S    
C210  C223  S    
C130  H55   S    
C228  O38   A    
C174  C183  S    
C131  H54   S    
C69   C106  S    
C122  H29   S    
C46   C90   S    
C27   C36   A    
C33   C51   A    
O50   Zn1   S    
C125  H38   S    
C229  O13   A    
C142  H75   S    
C9    C231  A    
C79   C169  S    
C152  C179  T    
O12   Zn11  S    
C82   C86   A    
C140  C201  S    
C159  C185  T    
C140  H80   S    
C188  C197  A    
C66   C75   A    
C92   C93   T    
O25   Zn1   S    
C101  C171  S    
C94   C95   T    
C148  H93   S    
C138  C139  S    
C15   C193  A    
C71   C91   A    
C81   H101  S    
C103  C104  S    
C157  C183  T    
O12   Zn4   S    
C226  O9    A    
C158  C184  T    
O11   Zn7   S    
C213  C230  A    
O38   Zn14  S    
C56   O14   A    
C175  C184  S    
C40   C47   A    
C150  C176  S    
C45   C60   S    
C37   C43   A    
C133  C198  S    
C70   C78   A    
C159  C189  S    
C126  H37   S    
C191  H134  S    
C61   O25   A    
C178  O52   A    
C139  H67   S    
C135  H109  S    
C205  C228  S    
C209  C218  A    
C24   C168  S    
C143  H86   S    
C191  C199  A    
C139  H65   S    
C189  O2    A    
C114  H18   S    
C60   O21   A    
C196  C205  A    
C118  C119  S    
C147  H94   S    
C118  H22   S    
C4    H151  S    
C6    C15   A    
C8    C230  A    
C26   C34   A    
C59   O18   A    
C57   C162  S    
C145  H81   S    
C120  H32   S    
C72   C117  S    
O4    Zn13  S    
O42   Zn3   S    
O1    Zn16  S    
O52   Zn14  S    
C112  O49   A    
C104  H176  S    
C15   C23   S    
C224  O7    A    
O23   Zn5   S    
C108  H179  S    
C223  O32   A    
C202  C210  A    
C90   H104  S    
C119  H21   S    
C71   C80   A    
C113  H106  S    
C212  C221  S    
O16   Zn3   S    
C142  H73   S    
C106  H3    S    
C186  C195  A    
C82   H102  S    
C148  C149  S    
C73   C91   A    
C110  H7    S    
O34   Zn8   S    
C124  C173  S    
C102  H166  S    
C91   C95   S    
C12   C21   S    
C6    C219  A    
C66   C99   S    
C229  O39   A    
C70   C109  S    
C164  C222  S    
C208  C225  S    
C28   H108  S    
C57   C176  S    
C117  H25   S    
C99   C100  S    
C98   H157  S    
C6    H154  S    
C96   C97   S    
C90   C170  S    
C100  C102  S    
C5    C14   A    
C3    H150  S    
C32   C50   A    
C68   H120  S    
C56   O16   A    
C161  C170  S    
C26   H1    S    
C96   H162  S    
C203  C212  A    
C128  H45   S    
C206  C227  S    
C88   C93   S    
C7    C16   A    
C120  H33   S    
C101  H105  S    
C35   C174  S    
C9    C187  A    
C205  C214  A    
C211  O4    A    
C108  H181  S    
C41   H57   S    
C146  C163  S    
C67   C87   A    
C62   O26   A    
C35   H116  S    
C127  H49   S    
C99   H169  S    
C134  H61   S    
C119  H20   S    
C121  H31   S    
C72   C89   A    
C125  C126  S    
C145  H83   S    
C194  C203  A    
C42   C47   A    
C133  H63   S    
C19   C25   T    
C116  H11   S    
C61   O22   A    
C230  H147  S    
C27   C49   A    
C143  C202  S    
C4    C217  A    
C109  C110  S    
O20   Zn7   S    
C67   C76   A    
C105  H172  S    
C148  H92   S    
C155  C200  S    
C127  C128  S    
