data_mof_unit_62886.cif
_audit_creation_date              2012-10-26T20:59:52-0400
_audit_creation_method            fapswitch 2.2
_symmetry_space_group_name_H-M    P1
_symmetry_Int_Tables_number       1
_space_group_crystal_system       triclinic
_cell_length_a                    14.423347
_cell_length_b                    13.143865
_cell_length_c                    10.692085
_cell_angle_alpha                 89.964389
_cell_angle_beta                  90.361877
_cell_angle_gamma                 90.033333
_cell_volume                      2026.94855293

loop_
_atom_site_label
_atom_site_type_symbol
_atom_type_description
_atom_site_fract_x
_atom_site_fract_y
_atom_site_fract_z
_atom_type_partial_charge
C1    C     C_R   0.328719 0.499976 0.500565 0.544587
C2    C     C_3   0.540908 0.413025 0.961881 -0.119609
C3    C     C_3   0.550182 0.581066 0.962175 -0.121562
C4    C     C_3   0.449818 0.418934 0.037825 -0.121562
C5    C     C_3   0.414786 0.505685 0.952742 0.000397
C6    C     C_3   0.585214 0.494315 0.047258 0.000397
C7    C     C_3   0.504766 0.499858 0.878433 0.028541
C8    C     C_3   0.495234 0.500142 0.121567 0.028541
C9    C     C_1   0.500000 0.173626 0.500000 0.116018
C10   C     C_1   0.499999 0.826374 0.500000 0.116018
C11   C     C_1   0.227148 0.499944 0.500603 -0.058573
C12   C     C_R   0.671281 0.500024 0.499435 0.544586
C13   C     C_1   0.772852 0.500056 0.499397 -0.058574
C14   C     C_1   0.142323 0.499956 0.500504 -0.052650
C15   C     C_1   0.857677 0.500044 0.499496 -0.052650
C16   C     C_3   0.318459 0.511922 0.892900 -0.247185
C17   C     C_3   0.242573 0.516040 0.992320 -0.303133
C18   C     C_3   0.146519 0.521809 0.932078 -0.448113
C19   C     C_3   0.681541 0.488078 0.107100 -0.247184
C20   C     C_3   0.757427 0.483962 0.007680 -0.303133
C21   C     C_3   0.853481 0.478191 0.067922 -0.448114
C22   C     C_1   0.042414 0.499986 0.500175 -0.010150
C23   C     C_1   0.957585 0.500014 0.499825 -0.010150
C24   C     C_1   0.500000 0.050682 0.500000 -0.051979
C25   C     C_1   0.500000 0.949318 0.500000 -0.051979
C26   C     C_R   0.491212 0.500035 0.256873 0.552123
C27   C     C_R   0.508787 0.499965 0.743127 0.552123
C28   C     C_3   0.459091 0.586975 0.038119 -0.119609
Cu1   Cu    Cu3+1 0.500000 0.592680 0.500000 0.958435
Cu2   Cu    Cu3+1 0.500000 0.407320 0.500000 0.958435
H1    H     H_    0.140446 0.591299 0.873406 0.157955
H2    H     H_    0.907051 0.475203 0.993877 0.142960
H3    H     H_    0.747018 0.416047 0.947278 0.162757
H4    H     H_    0.753773 0.553071 0.947868 0.162287
H5    H     H_    0.692012 0.555868 0.167668 0.150399
H6    H     H_    0.684974 0.418820 0.166639 0.152797
H7    H     H_    0.425051 0.657375 0.072090 0.113804
H8    H     H_    0.574949 0.342626 0.927910 0.113804
H9    H     H_    0.591683 0.646587 0.928363 0.111895
H10   H     H_    0.408317 0.353413 0.071637 0.111895
H11   H     H_    0.133644 0.453676 0.873016 0.157106
H12   H     H_    0.092949 0.524800 0.006122 0.142960
H13   H     H_    0.246227 0.446933 0.052135 0.162287
H14   H     H_    0.252982 0.583957 0.052719 0.162756
H15   H     H_    0.315026 0.581178 0.833359 0.152797
H16   H     H_    0.307987 0.444131 0.832334 0.150399
H17   H     H_    0.866355 0.546321 0.126988 0.157106
H18   H     H_    0.859554 0.408699 0.126589 0.157954
N1    N     N_1   0.500000 0.268070 0.500000 -0.168655
N2    N     N_1   0.500000 0.731930 0.500000 -0.168655
O1    O     O_R   0.376050 0.578280 0.500000 -0.473842
O2    O     O_R   0.623950 0.421720 0.500000 -0.473842
O3    O     O_R   0.623950 0.578280 0.500000 -0.473070
O4    O     O_R   0.376050 0.421720 0.500000 -0.473071
O5    O     O_R   0.499980 0.578250 0.316850 -0.491710
O6    O     O_R   0.500020 0.421750 0.683150 -0.491709
O7    O     O_R   0.500020 0.578250 0.683150 -0.491827
O8    O     O_R   0.499980 0.421750 0.316850 -0.491828

loop_
_geom_bond_atom_site_label_1
_geom_bond_atom_site_label_2
_ccdc_geom_bond_type
C16   H15   S    
C2    C4    S    
C1    O4    A    
C17   H13   S    
C9    C24   S    
Cu1   Cu2   S    
C1    O1    A    
C5    C28   S    
Cu2   O4    S    
C2    H8    S    
C7    C27   S    
C19   C20   S    
C1    C11   S    
C13   C15   T    
C4    C8    S    
C3    C6    S    
C20   H4    S    
C26   O5    A    
C21   H18   S    
C15   C23   S    
C17   C18   S    
C17   H14   S    
C3    H9    S    
C19   H5    S    
C24   C25   T    
C6    C19   S    
C26   O8    A    
C14   C22   S    
C2    C6    S    
Cu1   O3    S    
C28   H7    S    
C20   H3    S    
Cu2   O8    S    
C10   C25   S    
C3    C28   S    
C21   H2    S    
Cu2   N1    S    
Cu1   O7    S    
C3    C7    S    
C19   H6    S    
C18   H12   S    
Cu1   O1    S    
C8    C26   S    
C8    C28   S    
C11   C14   T    
C10   N2    T    
C4    H10   S    
C9    N1    T    
C12   C13   S    
C27   O7    A    
C18   H11   S    
C16   H16   S    
C5    C7    S    
Cu2   O2    S    
C22   C23   T    
C16   C17   S    
C5    C16   S    
C6    C8    S    
C18   H1    S    
Cu1   O5    S    
C2    C7    S    
C12   O2    A    
C20   C21   S    
C27   O6    A    
Cu2   O6    S    
C12   O3    A    
Cu1   N2    S    
C4    C5    S    
C21   H17   S    
