data_mof_unit_67192.cif
_audit_creation_date              2013-03-05T15:59:21-0500
_audit_creation_method            fapswitch 2.2
_symmetry_space_group_name_H-M    P1
_symmetry_Int_Tables_number       1
_space_group_crystal_system       triclinic
_cell_length_a                    8.60862
_cell_length_b                    13.452984
_cell_length_c                    16.371289
_cell_angle_alpha                 110.13815
_cell_angle_beta                  97.96841
_cell_angle_gamma                 82.672534
_cell_volume                      1756.38097026

loop_
_atom_site_label
_atom_site_type_symbol
_atom_site_description
_atom_site_fract_x
_atom_site_fract_y
_atom_site_fract_z
_atom_type_partial_charge
P1    P     P_3+3 0.593410 0.640600 0.698510 0.688140
O1    O     O_2   0.429050 0.611890 0.712090 -0.442209
O2    O     O_3   0.649820 0.584130 0.603850 -0.220153
O3    O     O_3   0.201480 0.401240 0.659120 -0.277830
O4    O     O_2   0.330764 0.532607 0.811397 -0.315936
O5    O     O_3   0.585570 0.779363 0.733816 -0.396649
O6    O     O_3   0.228022 0.361954 0.814357 -0.521437
C1    C     C_3   0.098858 0.264121 0.876812 -0.806243
H1    H     H_    0.204237 0.286614 0.922746 0.239112
H2    H     H_    0.996914 0.295371 0.914683 0.226733
P2    P     P_3+3 0.154920 0.233850 0.431950 0.578377
P3    P     P_3+3 0.666550 0.210035 0.618488 0.655979
O7    O     O_2   0.337150 0.224350 0.458110 -0.263064
O8    O     O_3   0.611620 0.334620 0.615460 -0.286763
O9    O     O_2   0.546870 0.147502 0.545486 -0.301252
O10   O     O_3   0.102045 0.145835 0.322839 -0.724087
O11   O     O_3   0.580983 0.209436 0.710806 -0.447800
C2    C     C_3   0.676536 0.237362 0.791822 0.638699
H3    H     H_    0.800156 0.234608 0.781809 0.013932
C3    C     C_3   0.654913 0.160329 0.842769 0.419144
C4    C     C_3   0.734183 0.207574 0.356244 1.302369
H4    H     H_    0.842410 0.247455 0.365193 -0.070371
C5    C     C_3   0.775610 0.087944 0.335865 -1.067972
H5    H     H_    0.896571 0.069385 0.361390 0.190913
H6    H     H_    0.698778 0.053575 0.366370 0.302757
H7    H     H_    0.764101 0.047117 0.264205 0.242118
Ba1   Ba    Ba6+2 0.363950 0.459210 0.542370 1.889844
C6    C     C_3   0.528907 0.821532 0.817680 0.350212
H8    H     H_    0.477647 0.765358 0.839657 0.014776
H9    H     H_    0.425193 0.878116 0.816227 0.140754
C7    C     C_3   0.656077 0.877887 0.885826 -0.773326
H10   H     H_    0.610784 0.911178 0.950999 0.234254
H11   H     H_    0.693544 0.942734 0.867965 0.302198
H12   H     H_    0.760700 0.822337 0.889748 0.239225
C8    C     C_3   0.147557 0.133116 0.238763 0.988020
C9    C     C_3   0.036728 0.050407 0.173624 0.117738
H13   H     H_    0.025532 0.987822 0.200070 0.101445
H14   H     H_    0.913984 0.086696 0.171008 0.100488
P4    P     P_3+3 0.596300 0.359310 0.301480 0.652631
O12   O     O_2   0.760640 0.388070 0.287860 -0.397286
O13   O     O_3   0.539890 0.415780 0.396140 -0.266491
O14   O     O_3   0.988230 0.598670 0.340870 -0.362935
O15   O     O_3   0.633970 0.223944 0.285942 -0.533800
P5    P     P_3+3 0.525093 0.803759 0.392045 0.557356
O16   O     O_3   0.122980 0.641570 0.544110 -0.345594
O17   O     O_3   0.578090 0.665290 0.384530 -0.357043
O18   O     O_2   0.675647 0.861726 0.433895 -0.396159
O19   O     O_3   0.512089 0.807564 0.285112 -0.597230
Ba2   Ba    Ba6+2 0.825880 0.540700 0.457630 1.893301
P6    P     P_3+3 0.190609 0.464370 0.771368 0.615409
C10   C     C_3   0.090527 0.309719 0.802961 1.282243
H15   H     H_    0.979303 0.360400 0.804551 -0.140112
H16   H     H_    0.106899 0.176803 0.852621 0.313638
O20   O     O_3   0.066730 0.358340 0.455880 -0.369262
C11   C     C_3   0.043984 0.751297 0.720581 1.221282
H17   H     H_    0.129126 0.680125 0.702355 -0.039121
C12   C     C_3   0.063748 0.803078 0.819488 -0.980103
H18   H     H_    0.987454 0.878675 0.838830 0.304877
H19   H     H_    0.031693 0.750082 0.852115 0.214696
H20   H     H_    0.187734 0.820683 0.842180 0.193791
P7    P     P_3+3 0.038941 0.777746 0.568135 0.617149
O21   O     O_2   0.852540 0.775600 0.541830 -0.243147
O22   O     O_3   0.069579 0.826859 0.683434 -0.590768
H21   H     H_    0.723970 0.085778 0.814114 0.158166
C13   C     C_3   0.425761 0.724580 0.227793 1.112351
H22   H     H_    0.450383 0.650328 0.244096 -0.117817
C14   C     C_3   0.465685 0.692887 0.133280 -0.983651
H23   H     H_    0.584565 0.650801 0.125699 0.224727
H24   H     H_    0.386045 0.635014 0.089166 0.247812
H25   H     H_    0.455152 0.761106 0.109651 0.283155
P8    P     P_3+3 0.990865 0.546936 0.226542 0.582980
C15   C     C_3   0.836483 0.728373 0.240710 0.624689
H26   H     H_    0.908724 0.763016 0.303341 0.109361
O23   O     O_2   0.870649 0.462578 0.188176 -0.331561
O24   O     O_3   0.914947 0.643980 0.180148 -0.513459
H27   H     H_    0.736351 0.697584 0.256009 0.060372
H28   H     H_    0.730988 0.785062 0.133334 0.261904
C16   C     C_3   0.788635 0.816293 0.200857 -0.966296
H29   H     H_    0.893346 0.852982 0.196993 0.283582
H30   H     H_    0.710051 0.879188 0.241837 0.265177
C17   C     C_2   0.309270 0.478933 0.250153 0.512057
C18   C     C_R   0.886792 0.549738 0.752602 0.478324
C19   C     C_2   0.468396 0.363262 0.135625 -0.177998
C20   C     C_2   0.452179 0.405654 0.221388 0.054191
C21   C     C_2   0.190201 0.494952 0.191004 0.198253
C22   C     C_3   0.230824 0.482915 0.100144 -0.235001
C23   C     C_3   0.347072 0.385500 0.065883 0.192978
C24   C     C_2   0.097199 0.501958 0.032606 -0.010005
C25   C     C_2   0.119199 0.543968 0.970509 -0.047979
C26   C     C_R   0.843116 0.613621 0.930281 0.296161
C27   C     C_R   0.991109 0.567519 0.904516 -0.114859
C28   C     C_R   0.719224 0.627245 0.868616 -0.388784
C29   C     C_R   0.740558 0.597982 0.778827 0.193292
C30   C     C_R   0.011881 0.539472 0.814177 -0.144503
H31   H     H_    0.564492 0.303679 0.115320 0.256856
H32   H     H_    0.606595 0.657428 0.892564 0.187871
H33   H     H_    0.981057 0.480957 0.035055 0.206705
H34   H     H_    0.238011 0.557293 0.964919 0.190145
C31   C     C_R   0.276619 0.840432 0.499558 0.205339
C32   C     C_R   0.949085 0.196287 0.541559 -0.351166
C33   C     C_R   0.914809 0.033053 0.573281 0.373751
C34   C     C_R   0.862367 0.140128 0.576016 0.159443
C35   C     C_R   0.085236 0.152554 0.498786 0.232333
C36   C     C_R   0.142583 0.042405 0.494297 -0.060678
C37   C     C_R   0.057923 0.982095 0.532127 -0.197851
C38   C     C_R   0.125125 0.875134 0.527948 0.077310
C39   C     C_R   0.346769 0.886070 0.452009 0.199712
C40   C     C_R   0.282769 0.989855 0.452930 -0.156473
H35   H     H_    0.342616 0.028521 0.420325 0.231300
H36   H     H_    0.903948 0.276178 0.544678 0.177221
F1    F     F_    0.081667 0.230192 0.722747 -0.695393
S1    S     S_3+6 0.350768 0.081844 0.228442 0.060871
O25   O     O_2   0.424723 0.128247 0.173437 -0.230709
O26   O     O_2   0.437751 0.107904 0.317198 -0.277476
O27   O     O_3   0.373662 0.950058 0.181695 -0.449897
H37   H     H_    0.476268 0.936658 0.157260 0.358416
S2    S     S_3+6 0.104244 0.252799 0.213056 -0.036828
O28   O     O_2   0.196992 0.254037 0.142602 -0.311085
O29   O     O_2   0.933824 0.262505 0.179733 -0.310691
O30   O     O_3   0.146114 0.353974 0.304143 -0.531003
H38   H     H_    0.044900 0.395807 0.318237 0.399781
S3    S     S_3+6 0.080844 0.983200 0.062673 0.045487
O31   O     O_2   0.151759 0.872108 0.052318 -0.224807
O32   O     O_2   0.928166 0.975874 0.005435 -0.257472
O33   O     O_3   0.203388 0.046134 0.030071 -0.442417
H39   H     H_    0.198760 0.010268 0.966000 0.368065
F2    F     F_    0.893778 0.720833 0.694679 -0.654241
S4    S     S_3+6 0.225968 0.767917 0.235791 -0.066851
O34   O     O_2   0.133051 0.729406 0.148042 -0.269465
O35   O     O_2   0.178478 0.724539 0.300370 -0.441271
O36   O     O_3   0.199145 0.899871 0.276524 -0.515556
H40   H     H_    0.101102 0.914122 0.305492 0.325593
S5    S     S_3+6 0.630075 0.373442 0.850853 0.011812
O37   O     O_2   0.772209 0.416301 0.909313 -0.374473
O38   O     O_2   0.591880 0.428402 0.784582 -0.250359
O39   O     O_3   0.482184 0.399026 0.913536 -0.462904
H41   H     H_    0.462708 0.329702 0.916129 0.360518
F3    F     F_    0.291901 0.520200 0.337008 -0.614691
F4    F     F_    0.909545 0.512682 0.666451 -0.667467
S6    S     S_3+6 0.823391 0.997606 0.652391 0.002471
O40   O     O_2   0.650593 0.024322 0.640369 -0.214794
O41   O     O_2   0.814667 0.903146 0.677715 -0.147112
O42   O     O_3   0.925762 0.073347 0.740791 -0.637249
H42   H     H_    0.030952 0.033839 0.741720 0.397354
S7    S     S_3+6 0.406018 0.772696 0.556840 0.066088
O43   O     O_2   0.404110 0.655192 0.511417 -0.237885
O44   O     O_2   0.569855 0.803848 0.569636 -0.145345
O45   O     O_3   0.343620 0.813602 0.654898 -0.528622
H43   H     H_    0.321482 0.747804 0.662193 0.337549
S8    S     S_3+6 0.739484 0.191045 0.955408 -0.021073
O46   O     O_2   0.726285 0.307506 0.006677 -0.271883
O47   O     O_2   0.665885 0.133336 0.001978 -0.235408
O48   O     O_3   0.930357 0.147111 0.953767 -0.511732
H44   H     H_    0.982187 0.192634 0.009444 0.434189
S9    S     S_3+6 0.464037 0.111247 0.819839 -0.012315
O49   O     O_2   0.354598 0.170949 0.771404 -0.191812
O50   O     O_2   0.478566 0.999615 0.758267 -0.228938
O51   O     O_3   0.386348 0.117217 0.910215 -0.530760
H45   H     H_    0.418049 0.047593 0.917856 0.362503
F5    F     F_    0.660320 0.246964 0.432192 -0.679607

loop_
_geom_bond_atom_site_label_1
_geom_bond_atom_site_label_2
_geom_bond_distance
_ccdc_geom_bond_type
C19   C23   1.519491 S    
C11   H17   1.108118 S    
C32   H36   1.081623 S    
C33   C34   1.440874 A    
C18   C30   1.397080 A    
C3    S9    1.792212 S    
C17   C20   1.496231 S    
S9    O50   1.493913 D    
C8    C9    1.567556 S    
S6    O42   1.664152 S    
C15   H27   1.095304 S    
S4    O34   1.498871 D    
S7    O45   1.650425 S    
S1    O26   1.486444 D    
S7    O43   1.498643 D    
O2    Ba2   2.861088 S    
Ba1   O20   2.991859 S    
P4    O13   1.586957 S    
C21   C22   1.524815 S    
O17   Ba2   2.924581 S    
C28   C29   1.416835 A    
C9    H13   1.090362 S    
S6    O41   1.479227 D    
P4    C20   1.887277 S    
P1    O1    1.576807 D    
S2    O29   1.498418 D    
O10   C8    1.430930 S    
C22   C24   1.542286 S    
C12   H19   1.105905 S    
O12   Ba2   2.861496 S    
C28   H32   1.074256 S    
C40   H35   1.075519 S    
C2    S5    1.774122 S    
C2    H3    1.093106 S    
C5    H7    1.107153 S    
P7    O22   1.765443 S    
C36   C37   1.481552 A    
C15   C16   1.525441 S    
C35   C36   1.481014 A    
C4    O15   1.402908 S    
O5    C6    1.422518 S    
C19   C20   1.341185 D    
C1    H1    1.097367 S    
C13   C14   1.532919 S    
S8    O48   1.674393 S    
C11   O22   1.404156 S    
P3    O11   1.773558 S    
S5    O39   1.673227 S    
C39   C40   1.429951 A    
C7    H11   1.106430 S    
O1    Ba1   2.861015 S    
O16   Ba2   2.990952 S    
O19   C13   1.405741 S    
C25   C27   1.516519 S    
Ba2   O20   2.998155 S    
C2    C3    1.578522 S    
C24   H33   1.082602 S    
P5    O18   1.549528 D    
C15   H26   1.106070 S    
Ba1   O16   2.998794 S    
O33   H39   0.989672 S    
C31   S7    1.729314 S    
C18   C29   1.392804 A    
P8    C21   1.860856 S    
C4    H4    1.101312 S    
S9    O51   1.679786 S    
C15   O24   1.394000 S    
O13   Ba2   3.017004 S    
S1    O25   1.501110 D    
S7    O44   1.489016 D    
C33   S6    1.824191 S    
P5    O17   1.826028 S    
C33   C37   1.462338 A    
C17   F3    1.358913 S    
C14   H23   1.105589 S    
C13   S4    1.751948 S    
S6    O40   1.487237 D    
S2    O30   1.668767 S    
P4    O12   1.577149 D    
C16   H29   1.100438 S    
P6    C30   1.814968 S    
C12   H20   1.107839 S    
P4    O15   1.743404 S    
H28   C16   1.107279 S    
C32   C35   1.406492 A    
C10   H15   1.100222 S    
O3    P6    1.749213 S    
P1    O2    1.586957 S    
C3    H21   1.086564 S    
C9    S3    1.798297 S    
P3    C34   1.918302 S    
C18   F4    1.357813 S    
P2    O10   1.804356 S    
Ba1   O13   2.860586 S    
C26   C28   1.403307 A    
C7    H10   1.110316 S    
P3    O9    1.544323 D    
P2    Ba1   3.523273 S    
C5    H5    1.098256 S    
C19   H31   1.077494 S    
C32   C34   1.414348 A    
O11   C2    1.417797 S    
C7    H12   1.104131 S    
C11   C12   1.520951 S    
O45   H43   0.977884 S    
P7    C38   1.917444 S    
C1    C10   1.522700 S    
P2    O20   1.685539 S    
P1    C29   1.879983 S    
P4    Ba2   3.453962 S    
P3    O8    1.698143 S    
C4    C5    1.531498 S    
O51   H45   0.986642 S    
O8    Ba1   2.923878 S    
C4    F5    1.382263 S    
S8    O47   1.500816 D    
O4    P6    1.541742 D    
C8    S2    1.782836 S    
C26   C27   1.397497 A    
O36   H40   0.990514 S    
S4    O36   1.665009 S    
C36   C40   1.447103 A    
O3    Ba1   2.874619 S    
C9    H14   1.107682 S    
O30   H38   0.985086 S    
S5    O38   1.491086 D    
P5    C39   1.944787 S    
C14   H24   1.099766 S    
C31   C38   1.413559 A    
C6    H8    1.100712 S    
C10   F1    1.378614 S    
Ba2   O21   3.006147 S    
P1    O5    1.749054 S    
C22   C23   1.532478 S    
C6    C7    1.519412 S    
O6    P6    1.728881 S    
C11   F2    1.372327 S    
O39   H41   0.984271 S    
S4    O35   1.493651 D    
C1    H16   1.099116 S    
P8    O23   1.543366 D    
C31   C39   1.378995 A    
C37   C38   1.463133 A    
C25   H34   1.081972 S    
C14   H25   1.101652 S    
S3    O33   1.676215 S    
O2    Ba1   3.016132 S    
O42   H42   0.990811 S    
S3    O31   1.502170 D    
O6    C10   1.410783 S    
C6    H9    1.100182 S    
S2    O28   1.496686 D    
C27   C30   1.426029 A    
P8    O24   1.742391 S    
P2    O7    1.568757 D    
C12   H18   1.109719 S    
S5    O37   1.490266 D    
O16   P7    1.810771 S    
O14   P8    1.760381 S    
C3    S8    1.811377 S    
C16   H30   1.101194 S    
C5    H6    1.108698 S    
P7    O21   1.604019 D    
O14   Ba2   2.874123 S    
P5    O19   1.756624 S    
C24   C25   1.365672 D    
C1    H2    1.099354 S    
C13   H22   1.108085 S    
S9    O49   1.483182 D    
P1    Ba1   3.453316 S    
S8    O46   1.499208 D    
O7    Ba1   3.005921 S    
P2    C35   1.981567 S    
O27   H37   0.990169 S    
O48   H44   0.988711 S    
S3    O32   1.497767 D    
S1    O27   1.669192 S    
C17   C21   1.359032 D    
C8    S1    1.805133 S    
Ba1   Ba2   4.756934 S    
