data_mof_unit_19146.cif
_audit_creation_date              2013-03-05T15:48:37-0500
_audit_creation_method            fapswitch 2.2
_symmetry_space_group_name_H-M    P1
_symmetry_Int_Tables_number       1
_space_group_crystal_system       triclinic
_cell_length_a                    11.889469
_cell_length_b                    12.920727
_cell_length_c                    13.816903
_cell_angle_alpha                 86.149775
_cell_angle_beta                  93.565538
_cell_angle_gamma                 99.521108
_cell_volume                      2085.78087328

loop_
_atom_site_label
_atom_site_type_symbol
_atom_site_description
_atom_site_fract_x
_atom_site_fract_y
_atom_site_fract_z
_atom_type_partial_charge
O1    O     O_R   0.581500 0.354430 0.495010 -0.614348
O2    O     O_R   0.418500 0.645570 0.504990 -0.583641
O3    O     O_R   0.386890 0.341450 0.506880 -0.541469
O4    O     O_R   0.613110 0.658550 0.493120 -0.540387
C1    C     C_R   0.478305 0.300390 0.495753 0.815388
C2    C     C_R   0.522035 0.699721 0.504575 0.809076
O5    O     O_R   0.611060 0.507430 0.631070 -0.616918
O6    O     O_R   0.388940 0.492570 0.368930 -0.610750
O7    O     O_R   0.416450 0.494450 0.642940 -0.527717
O8    O     O_R   0.583550 0.505550 0.357060 -0.525990
C3    C     C_R   0.520197 0.500040 0.681700 0.821338
C4    C     C_R   0.479825 0.499943 0.318350 0.816418
Cu1   Cu    Cu3+1 0.615220 0.507680 0.492970 0.985399
Cu2   Cu    Cu3+1 0.384780 0.492320 0.507030 0.992716
C5    C     C_1   0.465419 0.500244 0.215250 -0.166313
C6    C     C_1   0.534661 0.500850 0.784826 -0.149641
C7    C     C_2   0.450712 0.496726 0.023723 0.092518
C8    C     C_2   0.549191 0.506604 0.976301 0.095102
C9    C     C_1   0.543133 0.502887 0.871746 0.007706
C10   C     C_1   0.456867 0.499302 0.128310 0.010776
C11   C     C_R   0.535787 0.812508 0.516056 -0.087180
C12   C     C_R   0.466308 0.187996 0.484337 -0.088374
C13   C     C_R   0.404730 0.031725 0.393834 0.366961
C14   C     C_R   0.599695 0.969264 0.605705 0.363422
C15   C     C_R   0.401714 0.138827 0.405509 0.046051
C16   C     C_R   0.599492 0.861200 0.595555 0.049861
C17   C     C_R   0.531713 0.132057 0.549031 -0.185564
C18   C     C_R   0.475720 0.870292 0.448865 -0.193808
C19   C     C_R   0.534381 0.025887 0.538865 -0.017344
C20   C     C_R   0.471594 0.975878 0.459954 -0.015516
H1    H     H_    0.431323 0.831298 0.387711 0.183049
H2    H     H_    0.581838 0.173293 0.607031 0.187605
N1    N     N_R   0.788370 0.519230 0.482390 -0.276025
N2    N     N_R   0.211630 0.480770 0.517610 -0.267683
C21   C     C_R   0.037620 0.385149 0.581123 0.157794
C22   C     C_R   0.965757 0.614965 0.426160 0.162707
C23   C     C_R   0.157798 0.406464 0.581476 0.409393
C24   C     C_R   0.845828 0.599008 0.426046 0.411484
C25   C     C_R   0.145410 0.538005 0.454615 0.267032
C26   C     C_R   0.849456 0.452878 0.541230 0.254070
C27   C     C_R   0.028207 0.539008 0.472550 -0.184717
C28   C     C_R   0.970507 0.457232 0.531992 -0.154886
C29   C     C_3   0.665542 0.526355 0.031031 -0.354017
C30   C     C_3   0.767282 0.527846 0.968088 -0.776666
H3    H     H_    0.761816 0.450992 0.935235 0.255157
H4    H     H_    0.769668 0.591686 0.909871 0.250852
H5    H     H_    0.847865 0.542043 0.013829 0.259204
H6    H     H_    0.675208 0.603135 0.064999 0.244006
H7    H     H_    0.669394 0.463884 0.089984 0.218593
C31   C     C_3   0.334244 0.478191 0.969159 -0.349536
C32   C     C_3   0.232788 0.476152 0.032692 -0.772406
H8    H     H_    0.229446 0.410433 0.089119 0.248893
H9    H     H_    0.239435 0.551782 0.068112 0.256346
H10   H     H_    0.152123 0.464379 0.986849 0.259040
H11   H     H_    0.330659 0.541521 0.910988 0.219376
H12   H     H_    0.324030 0.401932 0.934239 0.249020
C33   C     C_3   0.659515 0.798589 0.673953 -0.373029
C34   C     C_3   0.586454 0.770428 0.761861 -0.779329
H13   H     H_    0.569413 0.842226 0.794149 0.302088
H14   H     H_    0.503739 0.721938 0.740232 0.238070
H15   H     H_    0.632185 0.725110 0.817998 0.244322
H16   H     H_    0.679833 0.725177 0.647771 0.218097
H17   H     H_    0.743319 0.844030 0.697055 0.263002
C35   C     C_3   0.338661 0.200539 0.328396 -0.371740
C36   C     C_3   0.409780 0.231101 0.239601 -0.777162
H18   H     H_    0.492500 0.279840 0.260764 0.237314
H19   H     H_    0.426890 0.160351 0.205573 0.302553
H20   H     H_    0.362525 0.276902 0.185013 0.243433
H21   H     H_    0.255391 0.153739 0.305981 0.263690
H22   H     H_    0.316672 0.272828 0.355446 0.216454
N3    N     N_R   0.340006 0.979923 0.314609 0.094408
O9    O     O_R   0.391864 0.953040 0.242305 -0.356824
O10   O     O_R   0.229960 0.952774 0.318274 -0.282441
N4    N     N_R   0.664398 0.020729 0.685064 0.097534
O11   O     O_R   0.774587 0.047328 0.681541 -0.275428
O12   O     O_R   0.612294 0.049856 0.756209 -0.347857
C37   C     C_3   0.793072 0.384598 0.625032 -0.279286
C38   C     C_3   0.835330 0.427545 0.723725 -0.772238
H23   H     H_    0.812146 0.506712 0.728975 0.246177
H24   H     H_    0.794568 0.374107 0.782423 0.255561
H25   H     H_    0.929204 0.434076 0.735448 0.268415
H26   H     H_    0.701669 0.375566 0.622827 0.237171
H27   H     H_    0.799953 0.301175 0.622229 0.237434
C39   C     C_3   0.179303 0.569764 0.350628 -0.342505
C40   C     C_3   0.257997 0.675588 0.338284 -0.572206
H28   H     H_    0.259575 0.721669 0.403221 0.273823
H29   H     H_    0.345935 0.665528 0.324320 0.213405
H30   H     H_    0.227524 0.722232 0.274446 0.267572
H31   H     H_    0.210242 0.505243 0.317565 0.200352
H32   H     H_    0.102071 0.574072 0.301996 0.184568
N5    N     N_R   0.785114 0.672065 0.371342 0.174065
O13   O     O_R   0.794594 0.767604 0.398970 -0.281117
O14   O     O_R   0.749684 0.653293 0.282313 -0.343991
N6    N     N_R   0.222149 0.340517 0.641826 0.174434
O15   O     O_R   0.221735 0.244504 0.618539 -0.279232
O16   O     O_R   0.247304 0.363316 0.731696 -0.353894
N7    N     N_R   0.987669 0.283033 0.618721 0.138271
O17   O     O_R   0.946272 0.211542 0.558340 -0.289527
O18   O     O_R   0.002365 0.255525 0.710403 -0.260732
N8    N     N_R   0.023832 0.714086 0.387999 0.146644
O19   O     O_R   0.003381 0.746058 0.298262 -0.274570
O20   O     O_R   0.079801 0.780225 0.447711 -0.291206

loop_
_geom_bond_atom_site_label_1
_geom_bond_atom_site_label_2
_geom_bond_distance
_ccdc_geom_bond_type
C11   C16   1.416944 A    
C17   C19   1.394043 A    
N2    C23   1.365016 A    
C27   C28   1.405465 A    
O7    Cu2   1.893263 S    
N7    O17   1.301368 A    
C33   H16   1.105299 S    
C25   C27   1.432732 A    
C37   C38   1.531016 S    
O5    C3    1.310143 A    
N4    O12   1.301630 A    
O1    C1    1.307749 A    
C21   C23   1.409480 A    
C14   C16   1.412226 A    
C25   C39   1.527484 S    
C38   H24   1.110102 S    
C37   H27   1.097822 S    
C34   H14   1.110733 S    
C7    C10   1.444706 S    
C8    C9    1.445562 S    
O4    Cu1   1.953799 S    
C21   C28   1.434761 A    
C14   C19   1.413921 A    
C1    C12   1.453810 S    
C36   H19   1.108704 S    
C12   C15   1.416739 A    
C35   H22   1.104660 S    
C29   H6    1.111640 S    
C30   H5    1.110460 S    
C34   H15   1.109947 S    
C26   C28   1.444282 A    
Cu1   Cu2   2.732183 S    
C22   C27   1.422225 A    
O2    C2    1.311601 A    
C39   H32   1.110375 S    
N7    O18   1.301571 A    
C30   H4    1.110953 S    
C33   H17   1.109722 S    
C40   H29   1.104840 S    
C5    C10   1.199935 T    
N1    C26   1.400849 A    
N4    O11   1.301370 A    
C32   H8    1.110968 S    
C13   C20   1.413569 A    
C13   N3    1.435844 S    
C39   C40   1.529511 S    
O4    C2    1.305269 A    
N5    O13   1.301605 A    
N3    O10   1.300589 A    
C38   H23   1.110536 S    
C29   H7    1.111942 S    
C31   C32   1.531142 S    
C34   H13   1.108905 S    
C40   H28   1.107178 S    
C2    C11   1.457592 S    
C24   N5    1.430081 S    
C31   H12   1.111470 S    
N2    C25   1.394736 A    
C32   H9    1.111092 S    
C15   C35   1.522273 S    
C29   C30   1.529968 S    
Cu1   N1    2.052949 S    
C19   C20   1.413279 A    
N5    O14   1.300477 A    
C3    C6    1.425088 S    
C4    C5    1.423976 S    
O6    C4    1.309985 A    
C36   H20   1.109991 S    
N8    O20   1.300780 A    
C7    C8    1.360621 D    
C22   N8    1.434238 S    
C35   H21   1.109363 S    
N6    O16   1.300740 A    
O7    C3    1.306558 A    
O3    Cu2   1.953797 S    
O8    C4    1.306062 A    
C11   C18   1.389316 A    
C12   C17   1.392420 A    
O1    Cu1   1.952848 S    
C39   H31   1.101134 S    
C30   H3    1.109900 S    
C40   H30   1.110665 S    
O6    Cu2   1.911600 S    
C17   H2    1.083583 S    
C18   H1    1.077107 S    
C31   H11   1.111903 S    
O3    C1    1.307244 A    
O8    Cu1   1.893262 S    
C7    C31   1.525764 S    
Cu2   N2    2.052947 S    
N1    C24   1.364074 A    
C32   H10   1.110521 S    
C35   C36   1.526322 S    
C18   C20   1.392189 A    
N3    O9    1.301114 A    
C8    C29   1.526318 S    
C38   H25   1.107824 S    
C14   N4    1.435285 S    
C33   C34   1.526289 S    
C37   H26   1.072344 S    
C6    C9    1.200621 T    
C22   C24   1.406486 A    
N8    O19   1.301561 A    
C23   N6    1.430949 S    
C13   C15   1.410469 A    
N6    O15   1.301505 A    
O2    Cu2   1.952848 S    
C16   C33   1.521266 S    
O5    Cu1   1.911601 S    
C36   H18   1.110591 S    
C26   C37   1.527123 S    
C21   N7    1.431961 S    
