data_mof_unit_16213.cif
_audit_creation_date              2012-12-11T14:08:28-0500
_audit_creation_method            fapswitch 2.2
_symmetry_space_group_name_H-M    P1
_symmetry_Int_Tables_number       1
_space_group_crystal_system       triclinic
_cell_length_a                    28.673292
_cell_length_b                    28.675818
_cell_length_c                    28.480542
_cell_angle_alpha                 88.608358
_cell_angle_beta                  88.600484
_cell_angle_gamma                 88.568847
_cell_volume                      23396.702169

loop_
_atom_site_label
_atom_site_type_symbol
_atom_type_description
_atom_site_fract_x
_atom_site_fract_y
_atom_site_fract_z
_atom_type_partial_charge
C1    C     C_R   0.986940 0.045133 0.987027 0.090166
C2    C     C_R   0.987226 0.987265 0.045736 0.090146
C3    C     C_R   0.045114 0.986985 0.987033 0.090161
C4    C     C_R   0.899655 0.703934 0.197663 0.060431
C5    C     C_R   0.198152 0.899874 0.703638 0.057268
C6    C     C_R   0.704317 0.197722 0.899594 0.060877
C7    C     C_R   0.899871 0.198148 0.703641 0.057334
C8    C     C_R   0.197727 0.704311 0.899603 0.060894
C9    C     C_R   0.703938 0.899650 0.197662 0.060360
C10   C     C_R   0.706253 0.706245 0.199712 0.037853
C11   C     C_R   0.199737 0.705836 0.706119 0.031611
C12   C     C_R   0.705800 0.199780 0.706079 0.031670
C13   C     C_R   0.905248 0.905238 0.208932 -0.090902
C14   C     C_R   0.208085 0.904760 0.905335 -0.092026
C15   C     C_R   0.904755 0.208082 0.905321 -0.091984
C16   C     C_R   0.915510 0.860464 0.376434 -0.074857
C17   C     C_R   0.376511 0.915454 0.860152 -0.075887
C18   C     C_R   0.860321 0.377012 0.915414 -0.075922
C19   C     C_R   0.915463 0.376489 0.860165 -0.076064
C20   C     C_R   0.377030 0.860323 0.915403 -0.075777
C21   C     C_R   0.860449 0.915511 0.376437 -0.074706
C22   C     C_R   0.685192 0.740099 0.372196 0.270881
C23   C     C_R   0.369474 0.685271 0.737982 0.260962
C24   C     C_R   0.739897 0.366598 0.683594 0.281791
C25   C     C_R   0.685249 0.369473 0.738049 0.259729
C26   C     C_R   0.366686 0.739969 0.683589 0.280686
C27   C     C_R   0.740091 0.685225 0.372315 0.269203
C28   C     C_R   0.857854 0.691793 0.386576 -0.082861
C29   C     C_R   0.386389 0.857290 0.691497 -0.084646
C30   C     C_R   0.692785 0.387707 0.856461 -0.082284
C31   C     C_R   0.857199 0.386481 0.691571 -0.085556
C32   C     C_R   0.387697 0.692777 0.856454 -0.081812
C33   C     C_R   0.691682 0.857921 0.386443 -0.082791
C34   C     C_R   0.745802 0.912363 0.383760 -0.097362
C35   C     C_R   0.384664 0.746683 0.911773 -0.096316
C36   C     C_R   0.912333 0.383281 0.745772 -0.100525
C37   C     C_R   0.746680 0.384649 0.911782 -0.096349
C38   C     C_R   0.383204 0.912386 0.745716 -0.100582
C39   C     C_R   0.912309 0.745889 0.383855 -0.097117
C40   C     C_R   0.904959 0.904973 0.391921 0.118082
C41   C     C_R   0.392688 0.904736 0.904397 0.120258
C42   C     C_R   0.904739 0.392661 0.904415 0.120380
C43   C     C_R   0.693101 0.693157 0.386450 0.010357
C44   C     C_R   0.379290 0.693217 0.689727 0.027333
C45   C     C_R   0.693162 0.379290 0.689794 0.026453
C46   C     C_R   0.899962 0.704453 0.405163 0.022568
C47   C     C_R   0.404722 0.899650 0.704364 0.025026
C48   C     C_R   0.706078 0.406827 0.898293 0.024041
C49   C     C_R   0.899525 0.404867 0.704481 0.025373
C50   C     C_R   0.406833 0.706072 0.898286 0.024210
C51   C     C_R   0.704303 0.900066 0.404981 0.022794
C52   C     C_R   0.925951 0.106416 0.987118 -0.174171
C53   C     C_R   0.986267 0.925595 0.106479 -0.174275
C54   C     C_R   0.105023 0.984857 0.924385 -0.173128
C55   C     C_R   0.925515 0.986231 0.106452 -0.174233
C56   C     C_R   0.984855 0.105041 0.924396 -0.173159
C57   C     C_R   0.106424 0.926021 0.987155 -0.174188
C58   C     C_R   0.620451 0.970445 0.028535 -0.012220
C59   C     C_R   0.030911 0.619801 0.968325 -0.015976
C60   C     C_R   0.969311 0.029360 0.621261 -0.015177
C61   C     C_R   0.619867 0.030915 0.968306 -0.016037
C62   C     C_R   0.029332 0.969349 0.621255 -0.015146
C63   C     C_R   0.970429 0.620390 0.028559 -0.012196
C64   C     C_R   0.556051 0.979373 0.976434 -0.121230
C65   C     C_R   0.979362 0.555991 0.976463 -0.121384
C66   C     C_R   0.977998 0.978039 0.556548 -0.120489
C67   C     C_R   0.645891 0.998691 0.996114 -0.289070
C68   C     C_R   0.998689 0.645823 0.996145 -0.289176
C69   C     C_R   0.996844 0.996877 0.647192 -0.289522
C70   C     C_R   0.572695 0.022326 0.961226 0.502941
C71   C     C_R   0.963873 0.572917 0.019817 0.498618
C72   C     C_R   0.021096 0.962851 0.573426 0.505313
C73   C     C_R   0.572969 0.963903 0.019800 0.498629
C74   C     C_R   0.962798 0.021125 0.573436 0.505289
C75   C     C_R   0.022319 0.572630 0.961251 0.502962
C76   C     C_R   0.676493 0.978161 0.093101 -0.195683
C77   C     C_R   0.094908 0.675137 0.978242 -0.193613
C78   C     C_R   0.977354 0.093330 0.677751 -0.191972
C79   C     C_R   0.675212 0.094894 0.978210 -0.193492
C80   C     C_R   0.093302 0.977348 0.677775 -0.192044
C81   C     C_R   0.978199 0.676394 0.093143 -0.195744
C82   C     C_R   0.697003 0.961492 0.134224 -0.150378
C83   C     C_R   0.135029 0.696410 0.961446 -0.152530
C84   C     C_R   0.961052 0.134449 0.697857 -0.151635
C85   C     C_R   0.696467 0.135018 0.961415 -0.152574
C86   C     C_R   0.134433 0.961048 0.697874 -0.151568
C87   C     C_R   0.961528 0.696929 0.134250 -0.150379
C88   C     C_R   0.679681 0.921844 0.157865 0.074922
C89   C     C_R   0.158190 0.679903 0.921095 0.076765
C90   C     C_R   0.922033 0.158497 0.679514 0.075644
C91   C     C_R   0.679923 0.158185 0.921084 0.076749
C92   C     C_R   0.158500 0.922048 0.679513 0.075629
C93   C     C_R   0.921842 0.679661 0.157869 0.074941
C94   C     C_R   0.642910 0.898680 0.138982 -0.244766
C95   C     C_R   0.139470 0.643577 0.896557 -0.247373
C96   C     C_R   0.899055 0.140072 0.642035 -0.242728
C97   C     C_R   0.643591 0.139460 0.896557 -0.247190
C98   C     C_R   0.140095 0.899105 0.642009 -0.242792
C99   C     C_R   0.898630 0.642920 0.138969 -0.244825
C100  C     C_R   0.626917 0.911323 0.095296 0.557686
C101  C     C_R   0.096246 0.627475 0.909027 0.555710
C102  C     C_R   0.911210 0.096403 0.626560 0.554035
C103  C     C_R   0.627524 0.096225 0.909016 0.555657
C104  C     C_R   0.096429 0.911267 0.626510 0.554062
C105  C     C_R   0.911279 0.626922 0.095291 0.557631
C106  C     C_R   0.641425 0.953249 0.072492 0.034069
C107  C     C_R   0.074747 0.640500 0.951936 0.034121
C108  C     C_R   0.952580 0.073373 0.641969 0.034161
C109  C     C_R   0.640567 0.074738 0.951918 0.034100
C110  C     C_R   0.073353 0.952607 0.641966 0.034163
C111  C     C_R   0.953240 0.641360 0.072521 0.034120
C112  C     C_R   0.906296 0.146352 0.967629 -0.122755
C113  C     C_R   0.966613 0.905965 0.146471 -0.121809
C114  C     C_R   0.144984 0.965160 0.904951 -0.120901
C115  C     C_R   0.905898 0.966563 0.146444 -0.121757
C116  C     C_R   0.965168 0.145000 0.904958 -0.120936
C117  C     C_R   0.146363 0.906355 0.967671 -0.122762
C118  C     C_R   0.498003 0.915984 0.973004 0.538802
C119  C     C_R   0.973902 0.497995 0.912468 0.542998
C120  C     C_R   0.915820 0.975082 0.496363 0.536924
C121  C     C_R   0.497999 0.973937 0.912471 0.543016
C122  C     C_R   0.975078 0.915887 0.496341 0.536802
C123  C     C_R   0.915914 0.498021 0.972972 0.538849
C124  C     C_R   0.452653 0.904948 0.963326 -0.237595
C125  C     C_R   0.964768 0.452159 0.902531 -0.238905
C126  C     C_R   0.905577 0.965767 0.450420 -0.235476
C127  C     C_R   0.452158 0.964798 0.902537 -0.238772
C128  C     C_R   0.965738 0.905622 0.450412 -0.235547
C129  C     C_R   0.904894 0.452664 0.963322 -0.237666
C130  C     C_R   0.429333 0.928771 0.927336 0.013365
C131  C     C_R   0.928748 0.429328 0.927343 0.013420
C132  C     C_R   0.929407 0.929437 0.427444 0.014587
C133  C     C_R   0.517403 0.956290 0.953638 -0.113847
C134  C     C_R   0.956246 0.517389 0.953638 -0.113856
C135  C     C_R   0.956225 0.956268 0.516354 -0.112352
C136  C     C_R   0.992915 0.617978 0.559243 0.101558
C137  C     C_R   0.558116 0.992743 0.620016 0.100894
C138  C     C_R   0.624181 0.564074 0.987301 0.102778
C139  C     C_R   0.992371 0.558473 0.620376 0.101047
C140  C     C_R   0.564074 0.624146 0.987316 0.102927
C141  C     C_R   0.617663 0.993277 0.558884 0.101444
C142  C     C_R   0.052434 0.616181 0.618163 0.108993
C143  C     C_R   0.615942 0.052712 0.617901 0.108972
C144  C     C_R   0.620794 0.620772 0.048663 0.107486
C145  C     C_R   0.034924 0.633484 0.575662 -0.190774
C146  C     C_R   0.574897 0.034117 0.636615 -0.183590
C147  C     C_R   0.639051 0.579491 0.030166 -0.185971
C148  C     C_R   0.033811 0.575178 0.636911 -0.183638
C149  C     C_R   0.579487 0.639006 0.030189 -0.186074
C150  C     C_R   0.633248 0.035205 0.575389 -0.190571
C151  C     C_R   0.969836 0.583217 0.584603 -0.198651
C152  C     C_R   0.582804 0.970235 0.584170 -0.198380
C153  C     C_R   0.590136 0.590122 0.963793 -0.199678
C154  C     C_R   0.983910 0.683373 0.501190 -0.134028
C155  C     C_R   0.499757 0.983704 0.685367 -0.129760
C156  C     C_R   0.686505 0.502396 0.982059 -0.130790
C157  C     C_R   0.983511 0.499941 0.685581 -0.129775
C158  C     C_R   0.502396 0.686470 0.982073 -0.130711
C159  C     C_R   0.683205 0.984141 0.501007 -0.135202
C160  C     C_R   0.961713 0.703873 0.463230 -0.123462
C161  C     C_R   0.462238 0.961392 0.705392 -0.125041
C162  C     C_R   0.705698 0.463806 0.960990 -0.124492
C163  C     C_R   0.961266 0.462374 0.705541 -0.125166
C164  C     C_R   0.463808 0.705672 0.961000 -0.124428
C165  C     C_R   0.703737 0.961819 0.463040 -0.123391
C166  C     C_R   0.926772 0.167045 0.927339 0.160164
C167  C     C_R   0.927259 0.927260 0.167824 0.158650
C168  C     C_R   0.167045 0.926790 0.927355 0.160165
C169  C     C_R   0.927250 0.679951 0.440635 0.117934
C170  C     C_R   0.440058 0.926942 0.680570 0.119685
C171  C     C_R   0.682843 0.443636 0.923956 0.118677
C172  C     C_R   0.926713 0.440298 0.680762 0.119653
C173  C     C_R   0.443637 0.682826 0.923958 0.118397
C174  C     C_R   0.679768 0.927482 0.440394 0.118241
C175  C     C_R   0.917547 0.633822 0.453692 -0.124612
C176  C     C_R   0.453517 0.917681 0.634393 -0.129628
C177  C     C_R   0.638988 0.460352 0.910555 -0.123156
C178  C     C_R   0.917265 0.453940 0.634689 -0.129690
C179  C     C_R   0.460347 0.638969 0.910560 -0.122062
C180  C     C_R   0.633536 0.917941 0.453250 -0.124670
C181  C     C_R   0.941199 0.612489 0.490526 -0.140860
C182  C     C_R   0.489931 0.941475 0.613534 -0.143012
C183  C     C_R   0.618473 0.497550 0.933348 -0.139886
C184  C     C_R   0.941011 0.490379 0.613866 -0.143185
C185  C     C_R   0.497544 0.618445 0.933356 -0.139619
C186  C     C_R   0.612191 0.941655 0.490098 -0.140629
C187  C     C_R   0.972931 0.637805 0.515925 0.113079
C188  C     C_R   0.515059 0.973001 0.639656 0.113531
C189  C     C_R   0.643078 0.520600 0.967739 0.114082
C190  C     C_R   0.972655 0.515401 0.639964 0.113562
C191  C     C_R   0.520596 0.643042 0.967754 0.113890
C192  C     C_R   0.637533 0.973254 0.515569 0.113519
C193  C     C_R   0.108009 0.681476 0.622393 -0.129332
C194  C     C_R   0.621013 0.108816 0.683623 -0.125947
C195  C     C_R   0.684945 0.624153 0.106030 -0.128675
C196  C     C_R   0.108618 0.621186 0.683818 -0.126009
C197  C     C_R   0.624153 0.684891 0.106055 -0.128677
C198  C     C_R   0.681339 0.108180 0.622221 -0.129300
C199  C     C_R   0.144876 0.701927 0.642454 -0.119922
C200  C     C_R   0.641977 0.145276 0.703971 -0.119604
C201  C     C_R   0.704584 0.643915 0.143594 -0.123465
C202  C     C_R   0.145127 0.642105 0.704117 -0.119772
C203  C     C_R   0.643906 0.704530 0.143622 -0.123498
C204  C     C_R   0.701837 0.144995 0.642338 -0.119799
C205  C     C_R   0.163814 0.682121 0.683062 0.122588
C206  C     C_R   0.682037 0.163917 0.682960 0.122626
C207  C     C_R   0.683721 0.683700 0.162860 0.123870
C208  C     C_R   0.090710 0.639257 0.641207 0.114169
C209  C     C_R   0.639080 0.090918 0.641001 0.114171
C210  C     C_R   0.642908 0.642881 0.088053 0.116317
C211  C     C_R   0.607470 0.607191 0.553464 0.158378
C212  C     C_R   0.534293 0.595032 0.600006 0.152190
C213  C     C_R   0.594772 0.534122 0.600163 0.151645
C214  C     C_R   0.623464 0.563646 0.572215 -0.103501
C215  C     C_R   0.563948 0.623482 0.571940 -0.101789
C216  C     C_R   0.548456 0.548650 0.610878 -0.011606
C217  C     C_R   0.965813 0.086200 0.966020 0.151789
C218  C     C_R   0.966260 0.966293 0.086977 0.153053
C219  C     C_R   0.086191 0.965856 0.966030 0.151778
C220  C     C_R   0.672560 0.612191 0.488170 0.348234
C221  C     C_R   0.458607 0.641985 0.588472 0.370380
C222  C     C_R   0.605920 0.471004 0.664438 0.364878
C223  C     C_R   0.641958 0.458651 0.588606 0.370948
C224  C     C_R   0.472228 0.607651 0.664703 0.366501
C225  C     C_R   0.612982 0.672672 0.488811 0.345296
C226  C     C_R   0.681658 0.622332 0.440631 0.290484
C227  C     C_R   0.422293 0.670180 0.608973 0.284680
C228  C     C_R   0.619321 0.425275 0.676872 0.289355
C229  C     C_R   0.670384 0.422414 0.609130 0.284593
C230  C     C_R   0.426420 0.620014 0.677426 0.286158
C231  C     C_R   0.622684 0.682154 0.441231 0.289800
C232  C     C_R   0.662411 0.662581 0.418556 -0.165934
C233  C     C_R   0.406913 0.660656 0.656846 -0.182686
C234  C     C_R   0.660500 0.406658 0.656758 -0.185699
C235  C     C_R   0.633594 0.633224 0.512589 -0.189471
C236  C     C_R   0.487736 0.614176 0.617671 -0.257379
C237  C     C_R   0.613632 0.487269 0.617687 -0.259479
C238  C     C_R   0.911889 0.745854 0.216911 -0.106853
C239  C     C_R   0.217397 0.912127 0.745697 -0.109461
C240  C     C_R   0.746371 0.216553 0.911804 -0.106575
C241  C     C_R   0.912124 0.217389 0.745701 -0.109405
C242  C     C_R   0.216551 0.746369 0.911808 -0.106539
C243  C     C_R   0.745852 0.911888 0.216922 -0.106951
C244  C     C_R   0.691095 0.858645 0.220313 -0.104366
C245  C     C_R   0.220614 0.691065 0.858794 -0.104303
C246  C     C_R   0.858683 0.220471 0.690815 -0.098675
C247  C     C_R   0.691069 0.220602 0.858785 -0.104058
C248  C     C_R   0.220474 0.858683 0.690814 -0.098631
C249  C     C_R   0.858653 0.691090 0.220325 -0.104436
C250  C     C_R   0.747419 0.691852 0.219783 -0.074377
C251  C     C_R   0.219328 0.747382 0.691886 -0.054017
C252  C     C_R   0.691567 0.220260 0.747236 -0.075289
C253  C     C_R   0.747366 0.219350 0.691867 -0.053918
C254  C     C_R   0.220233 0.691590 0.747258 -0.075407
C255  C     C_R   0.691859 0.747418 0.219772 -0.073530
C256  C     C_R   0.861144 0.916279 0.226455 0.344267
C257  C     C_R   0.225860 0.860772 0.916417 0.343824
C258  C     C_R   0.916096 0.226015 0.861208 0.344638
C259  C     C_R   0.860770 0.225863 0.916413 0.343795
C260  C     C_R   0.226025 0.916096 0.861222 0.344677
C261  C     C_R   0.916283 0.861131 0.226441 0.344239
H1    H     H_    0.874739 0.159817 0.984144 0.181174
H2    H     H_    0.982163 0.873686 0.159338 0.179004
H3    H     H_    0.157334 0.979780 0.871873 0.175673
H4    H     H_    0.873578 0.982051 0.159286 0.178852
H5    H     H_    0.979822 0.157360 0.871898 0.175740
H6    H     H_    0.159841 0.874820 0.984213 0.181255
H7    H     H_    0.763274 0.945061 0.385050 0.107683
H8    H     H_    0.386285 0.764145 0.944645 0.105572
H9    H     H_    0.945385 0.383993 0.762867 0.107257
H10   H     H_    0.764131 0.386256 0.944662 0.105598
H11   H     H_    0.383889 0.945438 0.762813 0.107363
H12   H     H_    0.944994 0.763365 0.385193 0.107574
H13   H     H_    0.683816 0.001026 0.998689 0.160638
H14   H     H_    0.001042 0.683739 0.998737 0.160672
H15   H     H_    0.998772 0.998805 0.685446 0.159897
H16   H     H_    0.726563 0.979526 0.146737 0.138071
H17   H     H_    0.147429 0.725759 0.980057 0.138561
H18   H     H_    0.978767 0.146692 0.727887 0.138116
H19   H     H_    0.725823 0.147422 0.980009 0.138553
H20   H     H_    0.146668 0.978748 0.727917 0.138094
H21   H     H_    0.979594 0.726469 0.146769 0.138105
H22   H     H_    0.630197 0.866360 0.154313 0.157753
H23   H     H_    0.154448 0.631918 0.863495 0.155606
H24   H     H_    0.867309 0.155906 0.628452 0.158010
H25   H     H_    0.631909 0.154440 0.863505 0.155613
H26   H     H_    0.155948 0.867384 0.628396 0.158088
H27   H     H_    0.866276 0.630262 0.154280 0.157673
H28   H     H_    0.689306 0.009898 0.076825 0.141354
H29   H     H_    0.078858 0.687117 0.010596 0.142609
H30   H     H_    0.008573 0.076446 0.691253 0.141309
H31   H     H_    0.687211 0.078838 0.010554 0.142600
H32   H     H_    0.076407 0.008549 0.691298 0.141291
H33   H     H_    0.009964 0.689165 0.076882 0.141385
H34   H     H_    0.439081 0.873216 0.979369 0.166008
H35   H     H_    0.980399 0.437884 0.870680 0.164776
H36   H     H_    0.873891 0.981723 0.436406 0.166664
H37   H     H_    0.437881 0.980421 0.870683 0.164786
H38   H     H_    0.981707 0.873944 0.436400 0.166700
H39   H     H_    0.873155 0.439094 0.979359 0.165963
H40   H     H_    0.055076 0.656801 0.553785 0.112185
H41   H     H_    0.554225 0.053185 0.661689 0.109206
H42   H     H_    0.661944 0.557590 0.050637 0.109105
H43   H     H_    0.052915 0.554458 0.661912 0.109190
H44   H     H_    0.557570 0.661875 0.050675 0.109121
H45   H     H_    0.656667 0.055309 0.553577 0.112181
H46   H     H_    0.909884 0.091539 0.018612 0.135643
H47   H     H_    0.017000 0.908852 0.090996 0.134888
H48   H     H_    0.089038 0.014762 0.906688 0.134495
H49   H     H_    0.908720 0.016923 0.090945 0.134855
H50   H     H_    0.014781 0.089069 0.906721 0.134530
H51   H     H_    0.091555 0.909983 0.018669 0.135641
H52   H     H_    0.934943 0.574519 0.575576 0.123860
H53   H     H_    0.574019 0.935407 0.575059 0.124154
H54   H     H_    0.582880 0.582869 0.927836 0.125388
H55   H     H_    0.970064 0.739590 0.454284 0.135134
H56   H     H_    0.453017 0.969234 0.741416 0.134397
H57   H     H_    0.739771 0.452013 0.972241 0.132318
H58   H     H_    0.969239 0.453023 0.741498 0.134336
H59   H     H_    0.452019 0.739743 0.972252 0.132351
H60   H     H_    0.739513 0.970091 0.454248 0.135216
H61   H     H_    0.891877 0.614302 0.436209 0.145196
H62   H     H_    0.436088 0.891984 0.614316 0.141543
H63   H     H_    0.620242 0.444797 0.882595 0.144942
H64   H     H_    0.891468 0.436593 0.614643 0.141635
H65   H     H_    0.444790 0.620231 0.882596 0.144954
H66   H     H_    0.614006 0.892377 0.435740 0.145148
H67   H     H_    0.007386 0.704343 0.519583 0.143804
H68   H     H_    0.517842 0.007179 0.707338 0.144947
H69   H     H_    0.707541 0.518759 0.007589 0.142269
H70   H     H_    0.007066 0.517946 0.707557 0.144972
H71   H     H_    0.518762 0.707493 0.007609 0.142248
H72   H     H_    0.704130 0.007444 0.519389 0.144213
H73   H     H_    0.933792 0.576445 0.499061 0.129751
H74   H     H_    0.498815 0.934464 0.577291 0.129256
H75   H     H_    0.583675 0.508401 0.923414 0.130496
H76   H     H_    0.933879 0.499375 0.577675 0.129320
H77   H     H_    0.508394 0.583650 0.923420 0.130464
H78   H     H_    0.576089 0.934360 0.498486 0.129665
H79   H     H_    0.157138 0.734006 0.626541 0.133631
H80   H     H_    0.626986 0.157590 0.736683 0.132373
H81   H     H_    0.736693 0.628312 0.156237 0.132503
H82   H     H_    0.157450 0.627119 0.736827 0.132369
H83   H     H_    0.628274 0.736612 0.156289 0.132514
H84   H     H_    0.733947 0.157221 0.626453 0.133619
H85   H     H_    0.093214 0.700309 0.593003 0.137556
H86   H     H_    0.591584 0.094983 0.702901 0.138993
H87   H     H_    0.704248 0.595133 0.091329 0.138968
H88   H     H_    0.094746 0.591791 0.703123 0.139108
H89   H     H_    0.595112 0.704176 0.091371 0.138912
H90   H     H_    0.700166 0.093405 0.592819 0.137525
H91   H     H_    0.657989 0.550178 0.565634 0.219171
H92   H     H_    0.550299 0.657800 0.564618 0.219603
H93   H     H_    0.525078 0.525656 0.631520 0.198634
H94   H     H_    0.943551 0.764295 0.209875 0.161146
H95   H     H_    0.210801 0.944001 0.764032 0.162572
H96   H     H_    0.765039 0.208871 0.943387 0.160768
H97   H     H_    0.943996 0.210781 0.764035 0.162544
H98   H     H_    0.208861 0.765039 0.943391 0.160785
H99   H     H_    0.764291 0.943553 0.209905 0.161151
H100  H     H_    0.658092 0.842013 0.219955 0.114632
H101  H     H_    0.220561 0.657776 0.842385 0.114750
H102  H     H_    0.841857 0.219854 0.657673 0.119095
H103  H     H_    0.657787 0.220526 0.842363 0.114733
H104  H     H_    0.219861 0.841857 0.657674 0.119136
H105  H     H_    0.842034 0.658081 0.219984 0.114524
H106  H     H_    0.765547 0.658611 0.217581 0.113637
H107  H     H_    0.216614 0.765516 0.658507 0.121452
H108  H     H_    0.658058 0.218827 0.765085 0.115246
H109  H     H_    0.765495 0.216653 0.658477 0.121558
H110  H     H_    0.218781 0.658091 0.765114 0.115199
H111  H     H_    0.658621 0.765549 0.217557 0.113875
H112  H     H_    0.948788 0.842055 0.376777 0.119231
H113  H     H_    0.376901 0.948690 0.841675 0.117514
H114  H     H_    0.841998 0.378114 0.948929 0.117347
H115  H     H_    0.948708 0.376873 0.841693 0.117579
H116  H     H_    0.378131 0.842010 0.948920 0.117318
H117  H     H_    0.842021 0.948775 0.376793 0.119170
H118  H     H_    0.839684 0.659987 0.393577 0.157638
H119  H     H_    0.392842 0.838676 0.659468 0.149268
H120  H     H_    0.661513 0.395221 0.837565 0.156718
H121  H     H_    0.838537 0.392959 0.659576 0.149166
H122  H     H_    0.395164 0.661493 0.837547 0.156728
H123  H     H_    0.659829 0.839756 0.393310 0.157449
N1    N     N_R   0.967808 0.025926 0.026187 -0.115974
N2    N     N_R   0.025900 0.967862 0.026191 -0.115999
N3    N     N_R   0.025645 0.025675 0.967443 -0.115063
N4    N     N_R   0.877910 0.758550 0.247710 -0.048286
N5    N     N_R   0.247710 0.877910 0.758550 -0.049179
N6    N     N_R   0.758550 0.247710 0.877910 -0.048571
N7    N     N_R   0.877910 0.247710 0.758550 -0.049174
N8    N     N_R   0.247710 0.758550 0.877910 -0.048562
N9    N     N_R   0.758550 0.877910 0.247710 -0.048291
N10   N     N_R   0.725540 0.845080 0.247770 -0.051229
N11   N     N_R   0.247770 0.725540 0.845080 -0.051867
N12   N     N_R   0.845080 0.247770 0.725540 -0.049113
N13   N     N_R   0.725540 0.247770 0.845080 -0.051845
N14   N     N_R   0.247770 0.845080 0.725540 -0.049067
N15   N     N_R   0.845080 0.725540 0.247770 -0.051309
N16   N     N_R   0.758420 0.725600 0.247730 -0.047252
N17   N     N_R   0.247730 0.758420 0.725600 -0.043096
N18   N     N_R   0.725600 0.247730 0.758420 -0.047796
N19   N     N_R   0.758420 0.247730 0.725600 -0.043123
N20   N     N_R   0.247730 0.725600 0.758420 -0.047815
N21   N     N_R   0.725600 0.758420 0.247730 -0.047097
N22   N     N_R   0.845030 0.878030 0.247760 -0.103777
N23   N     N_R   0.247760 0.845030 0.878030 -0.103590
N24   N     N_R   0.878030 0.247760 0.845030 -0.104152
N25   N     N_R   0.845030 0.247760 0.878030 -0.103585
N26   N     N_R   0.247760 0.878030 0.845030 -0.104181
N27   N     N_R   0.878030 0.845030 0.247760 -0.103755
N28   N     N_R   0.877970 0.845080 0.355840 -0.052019
N29   N     N_R   0.355840 0.877970 0.845080 -0.052238
N30   N     N_R   0.845080 0.355840 0.877970 -0.051976
N31   N     N_R   0.877970 0.355840 0.845080 -0.052263
N32   N     N_R   0.355840 0.845080 0.877970 -0.051936
N33   N     N_R   0.845080 0.877970 0.355840 -0.052019
N34   N     N_R   0.725530 0.758500 0.355850 -0.102719
N35   N     N_R   0.355850 0.725530 0.758500 -0.102088
N36   N     N_R   0.758500 0.355850 0.725530 -0.104990
N37   N     N_R   0.725530 0.355850 0.758500 -0.102057
N38   N     N_R   0.355850 0.758500 0.725530 -0.104694
N39   N     N_R   0.758500 0.725530 0.355850 -0.102569
N40   N     N_R   0.845000 0.725590 0.355820 -0.047577
N41   N     N_R   0.355820 0.845000 0.725590 -0.045460
N42   N     N_R   0.725590 0.355820 0.845000 -0.046840
N43   N     N_R   0.845000 0.355820 0.725590 -0.045535
N44   N     N_R   0.355820 0.725590 0.845000 -0.047008
N45   N     N_R   0.725590 0.845000 0.355820 -0.047670
N46   N     N_R   0.758510 0.877990 0.355880 -0.048513
N47   N     N_R   0.355880 0.758510 0.877990 -0.048977
N48   N     N_R   0.877990 0.355880 0.758510 -0.048506
N49   N     N_R   0.758510 0.355880 0.877990 -0.048989
N50   N     N_R   0.355880 0.877990 0.758510 -0.048509
N51   N     N_R   0.877990 0.758510 0.355880 -0.048504
Ni1   Ni    Ni4+2 0.877260 0.801820 0.301780 0.282219
Ni2   Ni    Ni4+2 0.301780 0.877260 0.801820 0.282764
Ni3   Ni    Ni4+2 0.801820 0.301780 0.877260 0.284166
Ni4   Ni    Ni4+2 0.877260 0.301780 0.801820 0.282768
Ni5   Ni    Ni4+2 0.301780 0.801820 0.877260 0.284170
Ni6   Ni    Ni4+2 0.801820 0.877260 0.301780 0.282149
Ni7   Ni    Ni4+2 0.726220 0.801790 0.301810 0.273296
Ni8   Ni    Ni4+2 0.301810 0.726220 0.801790 0.275138
Ni9   Ni    Ni4+2 0.801790 0.301810 0.726220 0.279493
Ni10  Ni    Ni4+2 0.726220 0.301810 0.801790 0.275327
Ni11  Ni    Ni4+2 0.301810 0.801790 0.726220 0.279619
Ni12  Ni    Ni4+2 0.801790 0.726220 0.301810 0.273268
Cl1   Cl    Cl    0.531181 0.068081 0.950091 -0.535040
Cl2   Cl    Cl    0.956629 0.531305 0.066761 -0.536997
Cl3   Cl    Cl    0.067998 0.957499 0.531729 -0.533962
Cl4   Cl    Cl    0.531351 0.956780 0.066752 -0.537071
Cl5   Cl    Cl    0.957308 0.068018 0.531750 -0.533957
Cl6   Cl    Cl    0.068069 0.531118 0.950094 -0.535016
Cl7   Cl    Cl    0.601827 0.865798 0.066444 -0.533580
Cl8   Cl    Cl    0.066183 0.603731 0.862857 -0.532214
Cl9   Cl    Cl    0.865856 0.067784 0.600607 -0.532535
Cl10  Cl    Cl    0.603830 0.066133 0.862838 -0.532103
Cl11  Cl    Cl    0.067884 0.865925 0.600477 -0.532667
Cl12  Cl    Cl    0.865741 0.601881 0.066380 -0.533534
Cl13  Cl    Cl    0.533583 0.868630 0.989173 -0.525344
Cl14  Cl    Cl    0.989455 0.533093 0.864154 -0.524734
Cl15  Cl    Cl    0.867878 0.991221 0.531438 -0.526909
Cl16  Cl    Cl    0.533080 0.989494 0.864146 -0.524500
Cl17  Cl    Cl    0.991267 0.867958 0.531404 -0.527101
Cl18  Cl    Cl    0.868565 0.533630 0.989120 -0.525411
Br1   Br    Br    0.690600 0.567074 0.404576 -0.247462
Br2   Br    Br    0.401059 0.720317 0.568863 -0.298348
Br3   Br    Br    0.566536 0.386078 0.677771 -0.312047
Br4   Br    Br    0.721169 0.402231 0.569416 -0.299646
Br5   Br    Br    0.388414 0.566414 0.678227 -0.315760
Br6   Br    Br    0.567052 0.692803 0.406120 -0.249100
Cl19  Cl    Cl    0.719419 0.583326 0.516288 -0.549294
Cl20  Cl    Cl    0.467445 0.641978 0.526341 -0.458038
Cl21  Cl    Cl    0.580101 0.503807 0.707989 -0.495055
Cl22  Cl    Cl    0.642408 0.467617 0.526509 -0.454985
Cl23  Cl    Cl    0.507862 0.587084 0.709102 -0.497306
Cl24  Cl    Cl    0.586176 0.720091 0.518074 -0.552581
Cl25  Cl    Cl    0.843605 0.972213 0.245236 -0.667031
Cl26  Cl    Cl    0.244392 0.843497 0.972846 -0.665811
Cl27  Cl    Cl    0.972432 0.244182 0.844242 -0.663551
Cl28  Cl    Cl    0.843502 0.244401 0.972847 -0.665693
Cl29  Cl    Cl    0.244188 0.972426 0.844251 -0.663583
Cl30  Cl    Cl    0.972218 0.843590 0.245222 -0.667093
Br7   Br    Br    0.628980 0.764319 0.346316 -0.473371
Br8   Br    Br    0.347583 0.627897 0.764533 -0.474610
Br9   Br    Br    0.762486 0.325769 0.635529 -0.488183
Br10  Br    Br    0.627916 0.347738 0.764849 -0.474752
Br11  Br    Br    0.325997 0.762833 0.635549 -0.488785
Br12  Br    Br    0.764651 0.628716 0.347384 -0.473275

loop_
_geom_bond_atom_site_label_1
_geom_bond_atom_site_label_2
_ccdc_geom_bond_type
C101  C107  A    
N48   Ni4   S    
C238  N4    A    
C194  H86   S    
C18   N30   A    
C102  Cl9   S    
C196  H88   S    
C79   C85   A    
C125  H35   S    
C181  H73   S    
C181  C187  A    
C241  H97   S    
C143  C209  S    
C170  C176  A    
C176  C182  A    
C183  H75   S    
C7    C246  A    
C23   Br8   S    
N40   Ni12  S    
C57   C117  A    
N36   N37   A    
N10   Ni7   S    
C36   N48   A    
C96   C102  A    
C238  H94   S    
N46   Ni6   S    
C201  H81   S    
C173  C179  A    
N44   Ni8   S    
C84   H18   S    
C203  H83   S    
C199  C205  A    
C78   C108  A    
C253  N19   A    
N23   N26   A    
C229  C234  A    
C198  C209  A    
C114  H3    S    
C25   Br10  S    
C80   C86   A    
C164  H59   S    
C252  N18   A    
C66   C72   A    
C162  C171  A    
C39   N51   A    
C15   C166  S    
C142  C208  S    
C124  H34   S    
C37   N49   A    
C19   N31   A    
N4    N15   A    
C149  H44   S    
C200  H80   S    
C184  H76   S    
C193  C208  A    
C16   H112  S    
C116  C166  A    
N29   Ni2   S    
N41   Ni11  S    
C35   H8    S    
C183  C189  A    
C2    N2    A    
C53   C113  A    
C55   C218  A    
C227  C233  A    
C147  H42   S    
C79   C109  A    
C123  C134  A    
C10   C255  A    
N12   Ni9   S    
C53   H47   S    
C231  Br6   S    
C137  C146  A    
C78   H30   S    
N35   N38   A    
N13   Ni10  S    
C45   C234  S    
C126  H36   S    
C43   C232  S    
C186  H78   S    
C240  H96   S    
C165  H60   S    
N16   N21   A    
C56   H50   S    
C142  C148  A    
C3    N2    A    
C7    C241  A    
C96   H24   S    
C56   C116  A    
C124  C130  A    
C164  C173  A    
C118  C124  A    
C163  C172  A    
C97   C103  A    
C16   C40   A    
C239  H95   S    
C225  Cl24  S    
C8    C245  A    
C220  Cl19  S    
C221  C236  A    
C198  C204  A    
C22   N34   A    
C193  C199  A    
C71   Cl2   S    
C14   C168  S    
N41   N50   A    
C77   H29   S    
N43   N48   A    
C21   H117  S    
C30   N42   A    
C159  C192  A    
C14   C257  A    
C4    C249  A    
C121  C127  A    
C195  C201  A    
C33   N45   A    
N9    N10   A    
C221  C227  A    
C100  C106  A    
C103  C109  A    
C120  C135  A    
C252  H108  S    
C54   H48   S    
C9    C88   S    
C127  H37   S    
C104  C110  A    
C203  C207  A    
C245  H101  S    
C226  C232  A    
C54   C114  A    
C211  C235  S    
C257  N23   A    
N45   Ni7   S    
C63   C111  S    
N34   N39   A    
C58   C67   A    
C222  Cl21  S    
C27   N39   A    
C2    C218  S    
C36   H9    S    
N31   Ni4   S    
N32   Ni5   S    
C33   H123  S    
C139  C190  S    
C97   H25   S    
N22   Ni6   S    
C26   C44   A    
N23   Ni5   S    
N45   N46   A    
N20   Ni8   S    
C28   C46   A    
C34   C51   A    
C29   C47   A    
C30   C48   A    
C195  H87   S    
C55   H49   S    
C116  H5    S    
C18   C42   A    
C176  H62   S    
C113  H2    S    
C52   C112  A    
C117  C168  A    
N49   Ni3   S    
C66   C74   A    
C259  N25   A    
C11   C254  A    
C248  N14   A    
C161  H56   S    
C256  Cl25  S    
C61   C67   A    
C26   N38   A    
C254  N20   A    
C224  Cl23  S    
C228  Br3   S    
C194  C200  A    
C163  H58   S    
C64   C73   A    
C42   C131  S    
C126  C132  A    
C259  Cl28  S    
C19   C42   A    
C79   H31   S    
C175  C181  A    
C137  C188  S    
C120  Cl15  S    
C156  C189  A    
C155  H68   S    
C141  C192  S    
C84   C90   A    
C144  C147  A    
N11   Ni8   S    
C212  C236  S    
C145  H40   S    
C141  C150  A    
C83   C89   A    
C88   C94   A    
C139  C148  A    
C119  C134  A    
C27   Br12  S    
C70   Cl1   S    
C247  H103  S    
C223  C237  A    
C76   C82   A    
C242  H98   S    
C165  C174  A    
C261  N27   A    
C7    C90   S    
C59   C107  S    
C159  C165  A    
C240  N6    A    
N38   Ni11  S    
C196  C208  A    
C51   C174  S    
C81   H33   S    
C38   N50   A    
C202  H82   S    
C48   C171  S    
C125  C131  A    
N37   Ni10  S    
C22   C43   A    
C212  C215  A    
C94   C100  A    
C204  H84   S    
C38   C47   A    
C28   H118  S    
C220  C226  A    
C182  C188  A    
N30   Ni3   S    
C180  C186  A    
C3    N3    A    
C3    C219  S    
C199  H79   S    
C1    N1    A    
C184  C190  A    
C138  C189  S    
C5    C248  A    
C9    C243  A    
C25   C45   A    
N17   N20   A    
C98   H26   S    
N18   N19   A    
C241  N7    A    
C172  C178  A    
C242  N8    A    
C63   C68   A    
C76   C106  A    
C12   C253  A    
C49   C172  S    
C90   C96   A    
C119  Cl14  S    
N16   Ni12  S    
N39   Ni12  S    
C222  C237  A    
C26   Br11  S    
C67   H13   S    
C87   H21   S    
C14   C260  A    
C44   C233  S    
N6    N13   A    
C226  Br1   S    
C148  H43   S    
C68   H14   S    
C214  H91   S    
C60   C69   A    
C82   C88   A    
C87   C93   A    
C139  C151  A    
C23   N35   A    
C74   Cl5   S    
C21   N33   A    
C4    C93   S    
C122  Cl17  S    
C80   H32   S    
C211  C214  A    
N25   Ni3   S    
C151  H52   S    
C140  C191  S    
N15   Ni12  S    
C171  C177  A    
C8    C89   S    
C11   C205  S    
C38   H11   S    
C140  C149  A    
C52   C217  A    
C95   C101  A    
C141  C152  A    
C229  Br4   S    
C94   H22   S    
C104  Cl11  S    
C61   C70   A    
C143  C146  A    
C223  Cl22  S    
C103  Cl10  S    
C34   N46   A    
C174  C180  A    
N17   Ni11  S    
C220  C235  A    
C211  C215  A    
N7    Ni4   S    
C144  C210  S    
C54   C219  A    
C180  H66   S    
C213  C214  A    
C155  C161  A    
C20   H116  S    
C245  N11   A    
C31   N43   A    
C17   H113  S    
C50   C173  S    
C246  N12   A    
C31   C49   A    
C19   H115  S    
C197  H89   S    
C244  N10   A    
C41   C130  S    
C120  C126  A    
C249  H105  S    
C157  C190  A    
C243  H99   S    
C197  C210  A    
C153  H54   S    
C246  H102  S    
C118  Cl13  S    
C255  H111  S    
C136  C151  A    
C1    N3    A    
C202  C205  A    
C160  C169  A    
C137  C152  A    
C177  H63   S    
C154  H67   S    
C93   C99   A    
C65   C134  S    
C60   C108  S    
N44   N47   A    
C140  C153  A    
C35   N47   A    
C39   H12   S    
C105  C111  A    
N21   Ni7   S    
C37   H10   S    
C142  C145  A    
C185  H77   S    
N6    Ni3   S    
C123  Cl18  S    
C256  N22   A    
C56   C217  A    
C185  C191  A    
C258  N24   A    
C247  N13   A    
C28   N40   A    
C6    C247  A    
C162  H57   S    
C195  C210  A    
C31   H121  S    
C99   H27   S    
C13   C256  A    
C23   C44   A    
C261  Cl30  S    
C62   C69   A    
C100  Cl7   S    
C89   C95   A    
C224  C230  A    
C175  H61   S    
C222  C228  A    
C150  H45   S    
C112  C166  A    
C169  C175  A    
C52   H46   S    
C253  H109  S    
C91   C97   A    
N24   Ni4   S    
C81   C87   A    
C15   C258  A    
C119  C125  A    
C138  C153  A    
N29   N32   A    
N22   N27   A    
C72   Cl3   S    
N30   N31   A    
C2    N1    A    
N27   Ni1   S    
C128  H38   S    
N34   Ni7   S    
C213  C216  A    
C64   C133  S    
C5    C239  A    
C115  C167  A    
N36   Ni9   S    
C113  C167  A    
C114  C168  A    
C179  C185  A    
N19   Ni9   S    
C33   C51   A    
C17   N29   A    
C154  C187  A    
C12   C252  A    
C248  H104  S    
C257  Cl26  S    
C73   Cl4   S    
C32   N44   A    
C177  C183  A    
C158  C191  A    
N28   Ni1   S    
C55   C115  A    
C122  C128  A    
C122  C135  A    
C30   H120  S    
C160  H55   S    
C66   C135  S    
C27   C43   A    
N24   N25   A    
C221  Cl20  S    
C95   H23   S    
C121  Cl16  S    
C1    C217  S    
C36   C49   A    
C251  N17   A    
C12   C206  S    
C260  Cl29  S    
C260  N26   A    
C157  H70   S    
C83   H17   S    
C61   C109  S    
C20   C41   A    
C85   C91   A    
C92   C98   A    
C24   N36   A    
C21   C40   A    
N42   Ni10  S    
N5    N14   A    
C225  C231  A    
N43   Ni9   S    
C24   C45   A    
C34   H7    S    
C213  C237  S    
C155  C188  A    
C13   C167  S    
C77   C83   A    
C6    C91   S    
N14   Ni11  S    
N26   Ni2   S    
C230  C233  A    
C152  H53   S    
C251  H107  S    
C223  C229  A    
N33   Ni6   S    
C4    C238  A    
C143  C150  A    
C239  N5    A    
C81   C111  A    
C215  H92   S    
C101  Cl8   S    
N18   Ni10  S    
C102  C108  A    
C64   C70   A    
C157  C163  A    
C228  C234  A    
C136  C145  A    
C158  C164  A    
C40   C132  S    
C156  C162  A    
C123  C129  A    
C59   C75   A    
N8    N11   A    
C128  C132  A    
C178  H64   S    
N9    Ni6   S    
C201  C207  A    
N7    N12   A    
C99   C105  A    
C216  H93   S    
N42   N49   A    
C225  C235  A    
C212  C216  A    
C77   C107  A    
C20   N32   A    
C57   C219  A    
C29   N41   A    
C65   C71   A    
C6    C240  A    
C18   H114  S    
C11   C251  A    
C58   C106  S    
C10   C207  S    
C154  C160  A    
C144  C149  A    
C179  H65   S    
C59   C68   A    
C250  H106  S    
C62   C110  S    
C8    C242  A    
C138  C147  A    
N8    Ni5   S    
C35   C50   A    
C258  Cl27  S    
C85   H19   S    
C62   C72   A    
C117  H6    S    
C255  N21   A    
C37   C48   A    
C32   C50   A    
C76   H28   S    
C118  C133  A    
N4    Ni1   S    
C39   C46   A    
C161  C170  A    
N35   Ni8   S    
N5    Ni2   S    
C204  C206  A    
N28   N33   A    
C24   Br9   S    
C136  C187  S    
C82   H16   S    
C22   Br7   S    
C196  C202  A    
C86   C92   A    
C29   H119  S    
C146  H41   S    
C254  H110  S    
C47   C170  S    
C15   C259  A    
C32   H122  S    
C115  H4    S    
C53   C218  A    
C69   H15   S    
C200  C206  A    
C57   H51   S    
C198  H90   S    
C63   C71   A    
C244  H100  S    
C16   N28   A    
C159  H72   S    
N40   N51   A    
C158  H71   S    
C249  N15   A    
C129  H39   S    
C65   C75   A    
C46   C169  S    
C250  N16   A    
C25   N37   A    
C127  C130  A    
C156  H69   S    
C227  Br2   S    
C194  C209  A    
C193  H85   S    
C98   C104  A    
C60   C74   A    
C86   H20   S    
C197  C203  A    
C10   C250  A    
C75   Cl6   S    
C186  C192  A    
C17   C41   A    
C5    C92   S    
C105  Cl12  S    
C224  C236  A    
N51   Ni1   S    
C78   C84   A    
C182  H74   S    
C80   C110  A    
C231  C232  A    
N50   Ni2   S    
C121  C133  A    
C9    C244  A    
C13   C261  A    
C230  Br5   S    
C178  C184  A    
C243  N9    A    
C58   C73   A    
C112  H1    S    
N47   Ni5   S    
C129  C131  A    
