data_mof_unit_47570.cif
_audit_creation_date              2012-12-10T16:51:19-0500
_audit_creation_method            fapswitch 2.2
_symmetry_space_group_name_H-M    P1
_symmetry_Int_Tables_number       1
_space_group_crystal_system       triclinic
_cell_length_a                    27.696309
_cell_length_b                    8.772557
_cell_length_c                    7.54099
_cell_angle_alpha                 102.15397
_cell_angle_beta                  94.86955
_cell_angle_gamma                 95.570156
_cell_volume                      1772.21353546

loop_
_atom_site_label
_atom_site_type_symbol
_atom_type_description
_atom_site_fract_x
_atom_site_fract_y
_atom_site_fract_z
_atom_type_partial_charge
C1    C     C_R   0.498066 0.200596 0.454752 0.838422
C2    C     C_R   0.866921 0.410015 0.347329 -0.007046
C3    C     C_R   0.354910 0.493249 0.501504 -0.060375
C4    C     C_R   0.645090 0.506751 0.498496 -0.060375
C5    C     C_R   0.968104 0.389410 0.367872 0.089054
C6    C     C_R   0.031896 0.610591 0.632126 0.089054
C7    C     C_R   0.981846 0.632238 0.608605 -0.047600
C8    C     C_R   0.018154 0.367763 0.391393 -0.047600
C9    C     C_R   0.949801 0.513694 0.486019 0.058212
C10   C     C_R   0.050198 0.486307 0.513979 0.058212
C11   C     C_R   0.936216 0.299995 0.219212 -0.141632
C12   C     C_R   0.501934 0.799404 0.545248 0.838421
C13   C     C_R   0.063784 0.700005 0.780786 -0.141632
C14   C     C_R   0.886148 0.305923 0.212518 -0.100819
C15   C     C_R   0.113852 0.694077 0.787481 -0.100819
C16   C     C_R   0.407743 0.497552 0.500387 0.807972
C17   C     C_R   0.592257 0.502448 0.499613 0.807973
C18   C     C_R   0.037145 0.226352 0.312131 0.131342
C19   C     C_R   0.962855 0.773649 0.687866 0.131341
C20   C     C_2   0.491481 0.033387 0.432393 -0.050474
C21   C     C_2   0.508519 0.966613 0.567607 -0.050473
C22   C     C_R   0.170693 0.377890 0.388069 0.594384
C23   C     C_R   0.101085 0.479335 0.522079 -0.077092
C24   C     C_R   0.829307 0.622111 0.611930 0.594384
C25   C     C_R   0.183576 0.588491 0.650719 0.569263
C26   C     C_R   0.816424 0.411509 0.349280 0.569263
C27   C     C_R   0.283067 0.631141 0.512786 -0.051912
C28   C     C_R   0.716933 0.368859 0.487214 -0.051913
C29   C     C_R   0.333508 0.632661 0.511000 -0.209588
C30   C     C_R   0.666492 0.367339 0.489000 -0.209588
C31   C     C_R   0.325327 0.351396 0.491921 0.117298
C32   C     C_R   0.674673 0.648604 0.508079 0.117298
C33   C     C_R   0.275341 0.351755 0.501277 -0.092455
C34   C     C_R   0.898915 0.520665 0.477920 -0.077092
C35   C     C_R   0.724659 0.648245 0.498723 -0.092456
C36   C     C_R   0.253630 0.490638 0.510096 0.270656
C37   C     C_R   0.746370 0.509362 0.489903 0.270656
C38   C     C_R   0.120021 0.360733 0.401895 -0.113704
C39   C     C_R   0.879979 0.639267 0.598103 -0.113704
C40   C     C_R   0.088246 0.225722 0.311010 0.203118
C41   C     C_R   0.911754 0.774278 0.688988 0.203118
C42   C     C_R   0.133079 0.589985 0.652670 -0.007046
Cu1   Cu    Cu3+1 0.505380 0.517380 0.684380 1.093392
Cu2   Cu    Cu3+1 0.494620 0.482620 0.315620 1.093392
H1    H     H_    0.253062 0.242692 0.498903 0.185085
H2    H     H_    0.137528 0.770707 0.898452 0.217192
H3    H     H_    0.746938 0.757308 0.501097 0.185086
H4    H     H_    0.949862 0.227035 0.105064 0.199720
H5    H     H_    0.050138 0.772965 0.894933 0.199720
H6    H     H_    0.644159 0.257754 0.484249 0.177035
H7    H     H_    0.355841 0.742246 0.515751 0.177035
H8    H     H_    0.733059 0.260775 0.483442 0.183822
H9    H     H_    0.266941 0.739226 0.516558 0.183822
H10   H     H_    0.862472 0.229293 0.101546 0.217192
I1    I     I_    0.352148 0.130549 0.451012 -0.291124
I2    I     I_    0.552885 0.085889 0.817332 -0.187253
I3    I     I_    0.647852 0.869451 0.548988 -0.291124
I4    I     I_    0.430373 0.288023 0.903175 -0.086926
I5    I     I_    0.569627 0.711977 0.096825 -0.086926
I6    I     I_    0.117651 0.008881 0.219578 -0.246407
I7    I     I_    0.882349 0.991120 0.780420 -0.246407
I8    I     I_    0.991929 0.002249 0.250529 -0.284853
I9    I     I_    0.008071 0.997752 0.749468 -0.284853
I10   I     I_    0.447115 0.914111 0.182668 -0.187253
N1    N     N_R   0.201574 0.487379 0.514970 -0.461387
N2    N     N_R   0.798426 0.512621 0.485029 -0.461388
N3    N     N_2   0.486510 0.456430 0.038510 0.010612
N4    N     N_2   0.513490 0.543570 0.961490 0.010612
O1    O     O_R   0.503500 0.286120 0.619780 -0.569184
O2    O     O_2   0.811181 0.708390 0.755369 -0.483914
O3    O     O_2   0.785652 0.312677 0.216955 -0.511196
O4    O     O_2   0.214348 0.687323 0.783045 -0.511195
O5    O     O_R   0.496500 0.713880 0.380220 -0.569184
O6    O     O_R   0.494410 0.256780 0.308360 -0.548804
O7    O     O_R   0.505590 0.743220 0.691640 -0.548804
O8    O     O_R   0.434810 0.514700 0.655690 -0.565632
O9    O     O_R   0.565190 0.485300 0.344310 -0.565632
O10   O     O_R   0.425720 0.485350 0.344280 -0.557201
O11   O     O_R   0.574280 0.514650 0.655720 -0.557201
O12   O     O_2   0.188819 0.291611 0.244629 -0.483914

loop_
_geom_bond_atom_site_label_1
_geom_bond_atom_site_label_2
_ccdc_geom_bond_type
C40   I6    S    
C27   C29   A    
C33   H1    S    
C41   I7    S    
C35   H3    S    
C24   C39   A    
C24   O2    S    
C39   C41   A    
C23   C42   A    
C1    O6    A    
Cu2   O9    S    
C35   C37   A    
C5    C11   A    
C11   C14   A    
Cu1   O11   S    
C22   C38   A    
C17   O11   A    
C33   C36   A    
C3    C29   A    
C18   C40   A    
C19   I9    S    
Cu1   N4    S    
C31   C33   A    
C24   N2    A    
C2    C34   A    
C30   H6    S    
Cu1   O1    S    
C12   O5    A    
C26   O3    S    
C11   H4    S    
C32   I3    S    
Cu1   O7    S    
N3    N4    D    
C26   N2    A    
C32   C35   A    
C25   N1    A    
C36   N1    S    
C18   I8    S    
C12   C21   S    
C8    C18   A    
C34   C39   A    
C20   I10   S    
Cu2   O6    S    
Cu1   Cu2   S    
C22   N1    A    
C5    C9    A    
I5    N4    S    
C5    C8    A    
C37   N2    S    
C17   O9    A    
C2    C26   A    
C25   O4    S    
C3    C31   A    
C4    C32   A    
C13   H5    S    
C4    C17   S    
C14   H10   S    
C7    C19   A    
C13   C15   A    
C9    C34   A    
C10   C23   A    
C29   H7    S    
Cu1   O8    S    
C7    C9    A    
C1    C20   S    
C16   O8    A    
C15   C42   A    
C25   C42   A    
C6    C10   A    
C21   I2    S    
C27   H9    S    
C6    C7    A    
C27   C36   A    
C23   C38   A    
C28   C30   A    
C22   O12   S    
C6    C13   A    
C38   C40   A    
C28   H8    S    
C28   C37   A    
Cu2   O10   S    
C16   O10   A    
Cu2   O5    S    
C2    C14   A    
C1    O1    A    
I4    N3    S    
C20   C21   D    
C8    C10   A    
C12   O7    A    
Cu2   N3    S    
C15   H2    S    
C31   I1    S    
C4    C30   A    
C3    C16   S    
C19   C41   A    
