data_mof_unit_38430.cif
_audit_creation_date              2012-10-26T20:43:00-0400
_audit_creation_method            fapswitch 2.2
_symmetry_space_group_name_H-M    P1
_symmetry_Int_Tables_number       1
_space_group_crystal_system       triclinic
_cell_length_a                    10.945444
_cell_length_b                    9.515659
_cell_length_c                    15.068051
_cell_angle_alpha                 89.789196
_cell_angle_beta                  89.760644
_cell_angle_gamma                 89.89046
_cell_volume                      1569.35727544

loop_
_atom_site_label
_atom_site_type_symbol
_atom_type_description
_atom_site_fract_x
_atom_site_fract_y
_atom_site_fract_z
_atom_type_partial_charge
C1    C     C_R   0.262272 0.499746 0.499014 0.563217
C2    C     C_R   0.128193 0.498162 0.497577 -0.013836
C3    C     C_R   0.447064 0.074899 0.432400 0.033595
C4    C     C_R   0.552860 0.925094 0.567632 0.029787
C5    C     C_R   0.552297 0.073788 0.567814 0.035663
C6    C     C_R   0.447577 0.926202 0.432234 0.036115
C7    C     C_R   0.500564 0.500154 0.329200 0.550628
C8    C     C_R   0.500050 0.500278 0.670914 0.551462
C9    C     C_R   0.613715 0.518341 0.811970 -0.043772
C10   C     C_R   0.389695 0.503136 0.187100 -0.043561
C11   C     C_R   0.501663 0.504025 0.767796 -0.035986
C12   C     C_R   0.737668 0.499956 0.500086 0.567570
C13   C     C_R   0.500949 0.501897 0.232584 -0.035295
C14   C     C_R   0.390681 0.514372 0.814015 -0.040802
C15   C     C_R   0.612263 0.511344 0.187162 -0.044918
C16   C     C_R   0.390787 0.535834 0.906616 -0.004230
C17   C     C_R   0.612906 0.529648 0.094247 -0.009553
C18   C     C_R   0.502901 0.529364 0.953193 -0.029621
C19   C     C_R   0.501413 0.528656 0.047240 -0.029908
C20   C     C_R   0.616193 0.523110 0.906167 -0.055950
C21   C     C_R   0.388546 0.527347 0.094155 -0.052152
C22   C     C_R   0.282407 0.568258 0.954129 0.249109
C23   C     C_R   0.280125 0.557824 0.046761 -0.011014
C24   C     C_R   0.722621 0.551408 0.046886 0.253966
C25   C     C_1   0.722170 0.542723 0.758218 0.202600
C26   C     C_1   0.280464 0.462976 0.236084 0.214190
C27   C     C_1   0.277321 0.501883 0.765136 0.271846
C28   C     C_1   0.724375 0.483346 0.235499 0.263683
C29   C     C_3   0.186606 0.760034 0.895993 0.005584
C30   C     C_3   0.083033 0.807214 0.834796 -0.245683
C31   C     C_3   0.081955 0.966541 0.822849 -0.464445
C32   C     C_3   0.814454 0.741565 0.111207 0.037747
C33   C     C_3   0.859512 0.835669 0.035144 -0.280514
C34   C     C_R   0.726569 0.528934 0.955574 -0.019555
C35   C     C_3   0.853530 0.990713 0.060253 -0.465353
C36   C     C_1   0.167971 0.595129 0.091723 0.258594
C37   C     C_1   0.846237 0.503571 0.917602 0.249754
C38   C     C_1   0.127207 0.276523 0.588009 0.269884
C39   C     C_1   0.871529 0.712766 0.401850 0.258761
C40   C     C_1   0.872519 0.290134 0.599930 0.263478
C41   C     C_1   0.127728 0.706387 0.396248 0.259715
C42   C     C_R   0.063679 0.390360 0.542632 -0.031039
C43   C     C_R   0.935941 0.604973 0.452077 -0.031958
C44   C     C_R   0.936002 0.393321 0.545396 -0.027690
C45   C     C_R   0.063831 0.603675 0.450791 -0.032764
C46   C     C_R   0.871655 0.499851 0.499555 -0.008255
Cu1   Cu    Cu3+1 0.500000 0.640660 0.500000 0.999375
Cu2   Cu    Cu3+1 0.500000 0.359340 0.500000 1.008084
H1    H     H_    0.404087 0.131021 0.378337 0.128700
H2    H     H_    0.006446 0.997147 0.777684 0.183755
H3    H     H_    0.169726 0.002652 0.793436 0.177755
H4    H     H_    0.871375 0.761807 0.170610 0.200222
H5    H     H_    0.719439 0.771764 0.130489 0.117567
H6    H     H_    0.955426 0.808000 0.018705 0.193581
H7    H     H_    0.802445 0.818596 0.975374 0.153973
H8    H     H_    0.758030 0.021540 0.076181 0.159259
H9    H     H_    0.886184 0.055903 0.003712 0.160217
H10   H     H_    0.912496 0.011403 0.118554 0.175973
H11   H     H_    0.595773 0.868971 0.621726 0.125029
H12   H     H_    0.593349 0.129026 0.622530 0.144624
H13   H     H_    0.406347 0.870952 0.377589 0.144690
H14   H     H_    0.274996 0.788944 0.863652 0.125392
H15   H     H_    0.178517 0.816702 0.960289 0.128800
H16   H     H_    0.094452 0.757137 0.768795 0.205205
H17   H     H_    0.993784 0.773363 0.862732 0.185365
H18   H     H_    0.067558 0.019099 0.887769 0.152623
N1    N     N_R   0.500000 0.852070 0.500000 -0.232258
N2    N     N_1   0.820429 0.798603 0.361884 -0.292948
N3    N     N_1   0.823240 0.207903 0.643979 -0.314772
N4    N     N_1   0.177500 0.788189 0.352172 -0.303511
N5    N     N_R   0.500000 0.147930 0.500000 -0.231871
N6    N     N_1   0.807901 0.563929 0.715029 -0.293475
N7    N     N_1   0.194134 0.429466 0.275364 -0.269270
N8    N     N_1   0.186522 0.492984 0.726649 -0.268424
N9    N     N_1   0.813643 0.459450 0.273599 -0.255075
N10   N     N_1   0.079161 0.625434 0.128702 -0.228261
N11   N     N_1   0.942076 0.481552 0.888032 -0.199050
N12   N     N_1   0.177408 0.185773 0.624082 -0.283804
O1    O     O_R   0.319640 0.618740 0.499990 -0.495902
O2    O     O_3   0.827507 0.597248 0.088962 -0.534376
O3    O     O_R   0.680360 0.381260 0.500010 -0.492049
O4    O     O_R   0.680360 0.618740 0.500010 -0.490643
O5    O     O_R   0.319640 0.381260 0.499990 -0.490357
O6    O     O_R   0.499970 0.618800 0.370260 -0.503913
O7    O     O_R   0.500030 0.381200 0.629740 -0.500600
O8    O     O_R   0.500030 0.618800 0.629740 -0.514548
O9    O     O_R   0.499970 0.381200 0.370260 -0.510197
O10   O     O_3   0.178053 0.613366 0.910581 -0.533979

loop_
_geom_bond_atom_site_label_1
_geom_bond_atom_site_label_2
_ccdc_geom_bond_type
C33   H7    S    
C31   H18   S    
C29   H15   S    
C30   H16   S    
C34   C37   S    
C39   N2    T    
Cu1   O1    S    
C3    C6    A    
C3    H1    S    
C9    C25   S    
C35   H10   S    
C8    O7    A    
C6    H13   S    
C19   C21   A    
C38   C42   S    
C30   C31   S    
C11   C14   A    
C26   N7    T    
Cu2   O3    S    
C1    C2    S    
Cu1   O4    S    
C32   H4    S    
C29   O10   S    
C36   N10   T    
C33   C35   S    
C24   O2    S    
C7    O9    A    
C22   O10   S    
C14   C27   S    
C27   N8    T    
C8    O8    A    
C20   C34   A    
C10   C26   S    
C7    O6    A    
C2    C45   A    
C42   C44   A    
Cu1   N1    S    
C44   C46   A    
C10   C21   A    
C17   C24   A    
C40   N3    T    
Cu1   O8    S    
C12   C46   S    
C18   C19   A    
C39   C43   S    
C38   N12   T    
C37   N11   T    
C24   C34   A    
C3    N5    A    
C29   C30   S    
C32   O2    S    
C9    C11   A    
C9    C20   A    
Cu1   Cu2   S    
C7    C13   S    
Cu2   O9    S    
C12   O4    A    
C25   N6    T    
Cu1   O6    S    
C43   C45   A    
C6    N1    A    
C13   C15   A    
C1    O1    A    
C14   C16   A    
C31   H2    S    
C32   H5    S    
C33   H6    S    
C15   C17   A    
C29   H14   S    
C16   C22   A    
C5    H12   S    
C35   H8    S    
C22   C23   A    
C31   H3    S    
C4    C5    A    
C10   C13   A    
C4    N1    A    
C1    O5    A    
Cu2   O5    S    
C35   H9    S    
C32   C33   S    
C21   C23   A    
C5    N5    A    
C15   C28   S    
C2    C42   A    
C8    C11   S    
C4    H11   S    
C17   C19   A    
C12   O3    A    
C18   C20   A    
C43   C46   A    
C30   H17   S    
C40   C44   S    
C16   C18   A    
C23   C36   S    
C41   C45   S    
Cu2   O7    S    
Cu2   N5    S    
C28   N9    T    
C41   N4    T    
