data_mof_unit_26331.cif
_audit_creation_date              2012-12-10T17:23:10-0500
_audit_creation_method            fapswitch 2.2
_symmetry_space_group_name_H-M    P1
_symmetry_Int_Tables_number       1
_space_group_crystal_system       triclinic
_cell_length_a                    15.848067
_cell_length_b                    10.936988
_cell_length_c                    9.626687
_cell_angle_alpha                 90.698354
_cell_angle_beta                  90.468753
_cell_angle_gamma                 93.805459
_cell_volume                      1664.72454243

loop_
_atom_site_label
_atom_site_type_symbol
_atom_type_description
_atom_site_fract_x
_atom_site_fract_y
_atom_site_fract_z
_atom_type_partial_charge
C1    C     C_R   0.489505 0.263044 0.499839 0.807185
C2    C     C_3   0.082713 0.503349 0.499308 0.190126
C3    C     C_3   0.976323 0.576834 0.603938 -0.159425
C4    C     C_3   0.917399 0.503963 0.501053 0.190240
C5    C     C_3   0.033403 0.618335 0.481052 -0.155453
C6    C     C_3   0.972883 0.545481 0.378177 -0.153108
C7    C     C_1   0.174493 0.502268 0.498608 -0.077267
C8    C     C_1   0.825605 0.503425 0.501646 -0.069301
C9    C     C_R   0.454545 0.117360 0.757025 -0.199453
C10   C     C_R   0.484314 0.069747 0.879749 -0.107473
C11   C     C_R   0.533563 0.969515 0.873313 0.209828
C12   C     C_R   0.339951 0.499869 0.499500 0.816650
C13   C     C_R   0.540767 0.905977 0.747079 -0.193307
C14   C     C_R   0.502435 0.945494 0.625097 0.040825
C15   C     C_R   0.474612 0.064675 0.627680 0.099599
C16   C     C_R   0.473916 0.129036 0.501872 -0.179207
C17   C     C_R   0.468737 0.063002 0.377094 -0.170319
C18   C     C_R   0.471389 0.936154 0.376187 0.150527
C19   C     C_R   0.494381 0.874760 0.499818 -0.158097
C20   C     C_R   0.624397 0.645549 0.147895 -0.200092
C21   C     C_R   0.693284 0.702279 0.080177 0.139455
C22   C     C_R   0.696060 0.698155 0.935532 0.094449
C23   C     C_R   0.500104 0.738878 0.500282 0.768517
C24   C     C_R   0.628326 0.638732 0.862184 -0.245267
C25   C     C_R   0.562917 0.568311 0.927944 0.183857
C26   C     C_R   0.561937 0.570061 0.076785 0.152113
C27   C     C_R   0.440445 0.433919 0.072086 -0.057971
C28   C     C_R   0.439909 0.435106 0.924445 -0.054943
C29   C     C_R   0.660037 0.500794 0.500517 0.823087
C30   C     C_3   0.966726 0.389046 0.519311 -0.155638
C31   C     C_3   0.023730 0.430532 0.396442 -0.160492
C32   C     C_1   0.250122 0.501093 0.498600 -0.180946
C33   C     C_1   0.749914 0.502331 0.501519 -0.164435
C34   C     C_3   0.027186 0.461880 0.622180 -0.157724
Cu1   Cu    Cu3+1 0.499990 0.499990 0.640660 0.939525
Cu2   Cu    Cu3+1 0.500010 0.500010 0.359340 0.932776
H1    H     H_    0.044500 0.370478 0.311247 0.129560
H2    H     H_    0.581419 0.832677 0.742871 0.144874
H3    H     H_    0.621000 0.667339 0.255593 0.217896
H4    H     H_    0.390008 0.382950 0.868477 0.117945
H5    H     H_    0.461128 0.109653 0.279506 0.173776
H6    H     H_    0.417096 0.196031 0.763683 0.148172
N1    N     N_R   0.500800 0.501210 0.147910 -0.185924
N2    N     N_R   0.500830 0.501290 0.852040 -0.181526
O1    O     O_R   0.499990 0.319640 0.618810 -0.575829
O2    O     O_R   0.500000 0.319660 0.381240 -0.577786
O3    O     O_R   0.379070 0.499980 0.618770 -0.578742
O4    O     O_R   0.379080 0.500000 0.381190 -0.581204
O5    O     O_R   0.500000 0.680340 0.618760 -0.589023
O6    O     O_R   0.500010 0.680360 0.381190 -0.611441
O7    O     O_R   0.620920 0.500000 0.618810 -0.589187
O8    O     O_R   0.620930 0.500020 0.381230 -0.580120
N3    N     N_3   0.576273 0.932842 0.994909 -0.590249
H7    H     H_    0.559678 0.839842 0.006738 0.217751
H8    H     H_    0.641167 0.942739 0.975884 0.235492
N4    N     N_3   0.450455 0.874163 0.247580 -0.578710
H9    H     H_    0.503146 0.830912 0.213604 0.253406
H10   H     H_    0.399759 0.809802 0.263135 0.237752
H11   H     H_    0.391656 0.379474 0.125532 0.126627
N5    N     N_3   0.757294 0.770367 0.160398 -0.596035
H12   H     H_    0.815280 0.733425 0.141005 0.221661
H13   H     H_    0.761023 0.861084 0.126782 0.239471
N6    N     N_3   0.764158 0.763121 0.863900 -0.607007
H14   H     H_    0.818870 0.717213 0.882306 0.217582
H15   H     H_    0.753774 0.759101 0.756485 0.210610
H16   H     H_    0.626572 0.656389 0.754646 0.196912
H17   H     H_    0.938009 0.294933 0.535072 0.133371
H18   H     H_    0.949154 0.579842 0.278086 0.128802
H19   H     H_    0.062129 0.712439 0.465290 0.130782
H20   H     H_    0.955407 0.636839 0.689088 0.126426
H21   H     H_    0.050805 0.427551 0.722342 0.129423
H22   H     H_    0.473410 0.115001 0.978079 0.145653

loop_
_geom_bond_atom_site_label_1
_geom_bond_atom_site_label_2
_ccdc_geom_bond_type
N6    H15   S    
C2    C7    S    
C12   O4    A    
Cu1   O3    S    
N3    H7    S    
C9    H6    S    
C5    C6    S    
C1    O2    A    
C23   O5    A    
C28   H4    S    
C15   C16   A    
C29   C33   S    
N4    H9    S    
N5    H13   S    
C18   C19   A    
C4    C8    S    
C5    H19   S    
C22   N6    S    
Cu1   Cu2   S    
C16   C17   A    
Cu1   O5    S    
Cu2   O2    S    
C9    C10   A    
C30   H17   S    
C11   N3    S    
C18   N4    S    
C2    C34   S    
C6    H18   S    
C6    C31   S    
C13   C14   A    
C12   C32   S    
C12   O3    A    
C25   N2    A    
C26   N1    A    
N3    H8    S    
C30   C34   S    
C3    H20   S    
C24   C25   A    
C21   N5    S    
C4    C6    S    
C20   H3    S    
C23   O6    A    
C3    C34   S    
C25   C26   A    
C28   N2    A    
C31   H1    S    
C2    C31   S    
C19   C23   S    
C17   C18   A    
C1    C16   S    
Cu1   N2    S    
C13   H2    S    
Cu1   O7    S    
C22   C24   A    
C2    C5    S    
C3    C4    S    
Cu1   O1    S    
Cu2   O6    S    
C29   O7    A    
C7    C32   T    
C14   C19   A    
C3    C5    S    
Cu2   O8    S    
C24   H16   S    
C9    C15   A    
C27   H11   S    
C11   C13   A    
C1    O1    A    
C30   C31   S    
C20   C26   A    
N4    H10   S    
Cu2   O4    S    
C8    C33   T    
C17   H5    S    
C10   C11   A    
N6    H14   S    
C27   N1    A    
C20   C21   A    
C27   C28   A    
C14   C15   A    
N5    H12   S    
Cu2   N1    S    
C21   C22   A    
C34   H21   S    
C4    C30   S    
C29   O8    A    
C10   H22   S    
