data_mof_unit_27320.cif
_audit_creation_date              2012-12-11T14:15:27-0500
_audit_creation_method            fapswitch 2.2
_symmetry_space_group_name_H-M    P1
_symmetry_Int_Tables_number       1
_space_group_crystal_system       triclinic
_cell_length_a                    11.125468
_cell_length_b                    12.679787
_cell_length_c                    23.556312
_cell_angle_alpha                 91.103252
_cell_angle_beta                  96.507799
_cell_angle_gamma                 68.713885
_cell_volume                      3075.5420378

loop_
_atom_site_label
_atom_site_type_symbol
_atom_type_description
_atom_site_fract_x
_atom_site_fract_y
_atom_site_fract_z
_atom_type_partial_charge
C1    C     C_R   0.150561 0.616385 0.429414 0.539768
C2    C     C_R   0.626573 0.568403 0.317393 -0.101951
C3    C     C_R   0.659211 0.747218 0.325928 -0.139705
C4    C     C_R   0.614008 0.772197 0.267982 0.034051
C5    C     C_R   0.579413 0.691059 0.234694 0.042045
C6    C     C_R   0.544200 0.711415 0.176664 -0.144110
C7    C     C_R   0.603797 0.878474 0.181193 -0.003005
C8    C     C_R   0.612922 0.872005 0.241662 0.005609
C9    C     C_1   0.232958 0.163034 0.122776 -0.017403
C10   C     C_2   0.161457 0.228704 0.225079 -0.112108
C11   C     C_2   0.175917 0.151354 0.266384 -0.003747
C12   C     C_R   0.746356 0.604706 0.405064 0.544921
C13   C     C_1   0.142428 0.190168 0.322639 -0.044846
C14   C     C_1   0.201377 0.196536 0.169043 -0.056076
C15   C     C_1   0.119772 0.227492 0.369371 -0.022564
C16   C     C_1   0.170275 0.758645 0.125223 -0.038710
C17   C     C_2   0.150143 0.736592 0.234951 0.164053
C18   C     C_2   0.208359 0.636168 0.264172 0.166950
C19   C     C_1   0.203421 0.631803 0.325182 -0.030313
C20   C     C_1   0.160154 0.743712 0.174486 -0.025046
C21   C     C_1   0.187986 0.626517 0.374527 -0.033024
C22   C     C_1   0.626927 0.753653 0.864767 -0.034203
C23   C     C_R   0.101698 0.281494 0.423498 0.541469
C24   C     C_2   0.693921 0.700849 0.760758 -0.104847
C25   C     C_2   0.603017 0.711398 0.716053 0.004783
C26   C     C_1   0.644741 0.674803 0.660837 -0.050331
C27   C     C_1   0.660344 0.730631 0.817800 -0.063893
C28   C     C_1   0.686494 0.642637 0.616089 -0.028949
C29   C     C_R   0.253521 0.087335 0.837503 0.024908
C30   C     C_R   0.112393 0.200882 0.631289 0.002400
C31   C     C_R   0.010675 0.148046 0.705476 -0.120015
C32   C     C_R   0.002759 0.189898 0.650516 -0.144021
C33   C     C_R   0.232320 0.153079 0.662941 -0.144356
C34   C     C_R   0.151660 0.618438 0.590399 0.543620
C35   C     C_R   0.239047 0.119727 0.719141 0.008484
C36   C     C_R   0.126106 0.124730 0.743009 0.068887
C37   C     C_R   0.131315 0.112585 0.803076 -0.024079
C38   C     C_R   0.365649 0.082634 0.810745 -0.019301
C39   C     C_R   0.356163 0.095040 0.752226 -0.141556
C40   C     C_R   0.122952 0.744450 0.852199 -0.001647
C41   C     C_R   0.199860 0.644333 0.648128 -0.010223
C42   C     C_R   0.311733 0.566953 0.741316 0.137330
C43   C     C_R   0.304849 0.562896 0.681372 -0.006579
C44   C     C_R   0.119166 0.740876 0.674737 0.119826
C45   C     C_R   0.748900 0.602958 0.565773 0.544602
C46   C     C_R   0.109670 0.735260 0.733527 0.040617
C47   C     C_R   0.212054 0.651206 0.767409 -0.017254
C48   C     C_R   0.217444 0.658158 0.826772 -0.152591
C49   C     C_R   0.004526 0.807426 0.819573 0.009162
C50   C     C_R   0.999322 0.807864 0.759266 0.033866
C51   C     C_R   0.265234 0.110622 0.069326 0.547211
C52   C     C_R   0.538045 0.798980 0.085958 0.566251
C53   C     C_R   0.188703 0.788160 0.069411 0.536443
C54   C     C_R   0.269316 0.061766 0.900065 0.565831
C55   C     C_R   0.574150 0.775762 0.918257 0.546950
C56   C     C_R   0.100260 0.274988 0.583099 0.548289
C57   C     C_R   0.162884 0.785434 0.907352 0.536610
C58   C     C_R   0.565240 0.797601 0.148701 -0.003454
C59   C     C_R   0.670572 0.643949 0.349795 -0.010072
C60   C     C_R   0.586240 0.588355 0.259486 0.004691
Cr1   Cr    Cr6+3 0.189770 0.415650 0.511620 1.010260
Cr2   Cr    Cr6+3 0.930400 0.667320 0.496770 1.007764
Cr3   Cr    Cr6+3 0.879870 0.417010 0.491650 1.012800
Cr4   Cr    Cr6+3 0.149500 0.973980 0.985330 1.000673
Cr5   Cr    Cr6+3 0.457000 0.976510 0.994660 0.988534
Cr6   Cr    Cr6+3 0.411170 0.724270 0.995270 1.005295
H1    H     H_    0.506704 0.655246 0.151811 0.141355
H2    H     H_    0.796418 0.664825 0.755016 0.126664
H3    H     H_    0.924130 0.139877 0.717919 0.104527
H4    H     H_    0.440352 0.092403 0.732113 0.103867
H5    H     H_    0.909555 0.219398 0.624526 0.129188
H6    H     H_    0.318595 0.155144 0.646319 0.121435
H7    H     H_    0.300872 0.603000 0.853751 0.140543
H8    H     H_    0.635068 0.488080 0.335902 0.138001
H9    H     H_    0.695874 0.803086 0.351599 0.129963
H10   H     H_    0.117566 0.318426 0.233148 0.119081
O1    O     O_R   0.196340 0.303200 0.448500 -0.511480
O2    O     O_R   0.811960 0.658090 0.547150 -0.498420
O3    O     O_R   0.757930 0.506140 0.547110 -0.512301
O4    O     O_R   0.988670 0.321620 0.556040 -0.504873
O5    O     O_3   0.000020 0.499990 0.500010 -0.236994
O6    O     O_R   0.113660 0.883270 0.047820 -0.508075
O7    O     O_R   0.186930 0.068530 0.043990 -0.485897
O8    O     O_R   0.377770 0.089040 0.054220 -0.529334
O9    O     O_R   0.562800 0.872960 0.056970 -0.504373
O10   O     O_R   0.555390 0.700940 0.062700 -0.513571
O11   O     O_R   0.295020 0.731920 0.049950 -0.515525
O12   O     O_R   0.199310 0.519670 0.454880 -0.495370
O13   O     O_R   0.094290 0.884230 0.921550 -0.530631
O14   O     O_R   0.168980 0.069410 0.926940 -0.505232
O15   O     O_R   0.358400 0.089990 0.927950 -0.521123
O16   O     O_R   0.544850 0.873850 0.939920 -0.523139
O17   O     O_R   0.536020 0.701900 0.936430 -0.499631
O18   O     O_R   0.277070 0.732810 0.932890 -0.504587
O19   O     O_3   0.339220 0.891590 0.991750 -0.274304
O20   O     O_R   0.045660 0.691380 0.441680 -0.513323
O21   O     O_R   0.811930 0.659460 0.430950 -0.501500
O22   O     O_R   0.757900 0.507620 0.421760 -0.524497
O23   O     O_R   0.988630 0.322990 0.439840 -0.496291
O24   O     O_R   0.196380 0.301720 0.573850 -0.523400
O25   O     O_R   0.199350 0.518300 0.571080 -0.500395
O26   O     O_R   0.045700 0.689900 0.567030 -0.517456
N1    N     N_2   0.087583 0.840108 0.263265 -0.538444
H11   H     H_    0.091653 0.837648 0.307136 0.253268
C61   C     C_3   0.962804 0.913056 0.235656 -0.319551
H12   H     H_    0.923181 0.989580 0.261486 0.137955
H13   H     H_    0.894267 0.867149 0.231739 0.160666
H14   H     H_    0.972391 0.941451 0.192664 0.163003
C62   C     C_3   0.459909 0.764525 0.721196 -0.370329
H15   H     H_    0.402804 0.749746 0.682200 0.129527
H16   H     H_    0.435018 0.727499 0.758400 0.151275
H17   H     H_    0.432533 0.857049 0.726730 0.136390
C63   C     C_3   0.006894 0.141362 0.831003 -0.377306
H18   H     H_    0.003445 0.204857 0.864486 0.156632
H19   H     H_    0.916044 0.182896 0.802859 0.099408
H20   H     H_    0.002267 0.063589 0.849489 0.170971
C64   C     C_3   0.496719 0.072906 0.841704 -0.371936
H21   H     H_    0.567999 0.072976 0.812250 0.086741
H22   H     H_    0.486949 0.146270 0.869686 0.156150
H23   H     H_    0.541618 0.992658 0.865871 0.172753
C65   C     C_3   0.643669 0.964962 0.152780 -0.374696
H24   H     H_    0.692807 0.008177 0.183121 0.102012
H25   H     H_    0.716201 0.922549 0.122996 0.155539
H26   H     H_    0.557717 0.030794 0.130141 0.175840
C66   C     C_3   0.886164 0.873578 0.849066 -0.378122
H27   H     H_    0.802468 0.851866 0.831469 0.122879
H28   H     H_    0.898639 0.851568 0.895236 0.155237
H29   H     H_    0.861136 0.965902 0.843123 0.123666
N2    N     N_2   0.418390 0.484212 0.774410 -0.529155
H30   H     H_    0.465761 0.515479 0.806676 0.251145
C67   C     C_3   0.394716 0.384626 0.790638 -0.301913
H31   H     H_    0.319448 0.406950 0.820604 0.149342
H32   H     H_    0.485896 0.321683 0.812040 0.135816
H33   H     H_    0.362337 0.345290 0.752271 0.165785
C68   C     C_3   0.875689 0.880124 0.722769 -0.386302
H34   H     H_    0.789091 0.915173 0.745774 0.113781
H35   H     H_    0.889180 0.954467 0.704564 0.151040
H36   H     H_    0.849778 0.828480 0.688349 0.136780
C69   C     C_3   0.414367 0.476223 0.653901 -0.345340
H37   H     H_    0.509613 0.466632 0.678038 0.155493
H38   H     H_    0.402074 0.393133 0.652987 0.146982
H39   H     H_    0.419126 0.503138 0.609924 0.128165
N3    N     N_2   0.056551 0.845997 0.643774 -0.519142
H40   H     H_    0.971796 0.855130 0.618194 0.272495
C70   C     C_3   0.140760 0.892097 0.619097 -0.294410
H41   H     H_    0.081433 0.973483 0.596495 0.143202
H42   H     H_    0.208244 0.908797 0.653346 0.160080
H43   H     H_    0.196667 0.833176 0.587816 0.142780
C71   C     C_3   0.570026 0.492554 0.224102 -0.400865
H44   H     H_    0.582831 0.417162 0.250766 0.122970
H45   H     H_    0.472578 0.519861 0.199574 0.168807
H46   H     H_    0.644280 0.465890 0.193662 0.133722
C72   C     C_3   0.618064 0.970893 0.277873 -0.419769
H47   H     H_    0.570668 0.052854 0.254026 0.133545
H48   H     H_    0.561964 0.979058 0.314881 0.128053
H49   H     H_    0.720061 0.958817 0.293648 0.125934
C73   C     C_3   0.236837 0.025998 0.257151 -0.361940
H50   H     H_    0.237123 0.976626 0.295639 0.150233
H51   H     H_    0.181785 0.001237 0.220385 0.164886
H52   H     H_    0.338610 0.004318 0.248084 0.140836
N4    N     N_2   0.263340 0.532821 0.234521 -0.541415
H53   H     H_    0.216227 0.527888 0.194815 0.248329
C74   C     C_3   0.315727 0.427219 0.267326 -0.309902
H54   H     H_    0.358617 0.356020 0.238727 0.139167
H55   H     H_    0.237806 0.412517 0.287715 0.153963
H56   H     H_    0.393322 0.429361 0.300921 0.159417

loop_
_geom_bond_atom_site_label_1
_geom_bond_atom_site_label_2
_ccdc_geom_bond_type
C68   H36   S    
C23   O23   A    
C1    C21   S    
C73   H50   S    
Cr2   O20   S    
Cr5   O16   S    
C41   C43   A    
C6    C58   A    
C35   C39   A    
C35   C36   A    
C9    C51   S    
C24   C27   S    
Cr4   O14   S    
C4    C8    A    
C67   H33   S    
N4    H53   S    
C7    C8    A    
Cr3   O3    S    
C61   H13   S    
C34   O26   A    
C57   O13   A    
Cr3   O5    S    
C36   C37   A    
C74   H55   S    
C54   O14   A    
Cr3   O22   S    
C50   C68   S    
C71   H45   S    
C5    C6    A    
C33   C35   A    
C69   H39   S    
C2    C60   A    
C37   C63   S    
C29   C54   S    
C40   C49   A    
N3    C70   S    
C11   C13   S    
C17   C20   S    
C53   O11   A    
Cr5   O15   S    
C18   C19   S    
C16   C53   S    
C65   H26   S    
Cr3   O23   S    
C33   H6    S    
C70   H42   S    
C12   C59   S    
C10   H10   S    
C47   C48   A    
Cr2   O26   S    
Cr1   O1    S    
C29   C38   A    
C66   H29   S    
C43   C69   S    
C45   O2    A    
C72   H48   S    
C3    H9    S    
C62   H15   S    
C7    C58   A    
C12   O22   A    
C2    H8    S    
C25   C62   S    
Cr6   O18   S    
C63   H20   S    
C1    O12   A    
C15   C23   S    
C73   H51   S    
C68   H35   S    
C64   H23   S    
C38   C64   S    
C34   C41   S    
Cr4   O13   S    
C7    C65   S    
N4    C74   S    
C44   C46   A    
C70   H41   S    
C32   H5    S    
Cr3   O4    S    
C61   H14   S    
C28   C45   S    
C34   O25   A    
C68   H34   S    
C74   H56   S    
C24   C25   D    
C45   O3    A    
C10   C14   S    
C71   H46   S    
Cr6   O11   S    
C2    C59   A    
Cr5   O8    S    
C25   C26   S    
C30   C56   S    
C53   O6    A    
Cr1   O25   S    
C9    C14   T    
Cr4   O7    S    
C55   O16   A    
Cr1   O12   S    
Cr2   O21   S    
C31   C32   A    
Cr5   O19   S    
C16   C20   T    
C17   C18   D    
C65   H24   S    
N1    C61   S    
C23   O1    A    
C72   H49   S    
C8    C72   S    
Cr4   O6    S    
C12   O21   A    
C52   C58   S    
Cr6   O17   S    
C6    H1    S    
Cr2   O5    S    
C73   H52   S    
C22   C27   T    
C13   C15   T    
C66   H27   S    
C41   C44   A    
C62   H17   S    
Cr1   O24   S    
C42   C43   A    
C56   O24   A    
C3    C4    A    
C51   O7    A    
C70   H43   S    
C11   C73   S    
C63   H18   S    
C40   C48   A    
C46   C47   A    
C52   O9    A    
C40   C57   S    
C55   O17   A    
C30   C33   A    
C19   C21   T    
C48   H7    S    
Cr2   O2    S    
Cr4   O19   S    
C4    C5    A    
C67   H32   S    
Cr6   O10   S    
C69   H37   S    
Cr5   O9    S    
C22   C55   S    
C49   C66   S    
C61   H12   S    
C46   C50   A    
C26   C28   T    
C56   O4    A    
C57   O18   A    
C64   H22   S    
N3    H40   S    
N2    H30   S    
C54   O15   A    
Cr1   O5    S    
C71   H44   S    
C30   C32   A    
C69   H38   S    
C38   C39   A    
C44   N3    S    
C62   H16   S    
C52   O10   A    
C60   C71   S    
C18   N4    S    
C39   H4    S    
C42   N2    S    
C42   C47   A    
C5    C60   A    
C17   N1    S    
C65   H25   S    
C74   H54   S    
C10   C11   D    
C24   H2    S    
C31   H3    S    
C49   C50   A    
C29   C37   A    
N1    H11   S    
C66   H28   S    
C31   C36   A    
C1    O20   A    
N2    C67   S    
C72   H47   S    
C64   H21   S    
C51   O8    A    
C67   H31   S    
Cr6   O19   S    
C63   H19   S    
C3    C59   A    
