data_mof_unit_27301.cif
_audit_creation_date              2012-12-10T18:30:21-0500
_audit_creation_method            fapswitch 2.2
_symmetry_space_group_name_H-M    P1
_symmetry_Int_Tables_number       1
_space_group_crystal_system       triclinic
_cell_length_a                    15.009623
_cell_length_b                    14.145489
_cell_length_c                    15.597958
_cell_angle_alpha                 90.693705
_cell_angle_beta                  81.203898
_cell_angle_gamma                 104.508612
_cell_volume                      3167.22670254

loop_
_atom_site_label
_atom_site_type_symbol
_atom_type_description
_atom_site_fract_x
_atom_site_fract_y
_atom_site_fract_z
_atom_type_partial_charge
C1    C     C_R   0.558853 0.516343 0.338091 0.859271
C2    C     C_R   0.387047 0.483562 0.077982 0.558130
C3    C     C_R   0.673678 0.593873 0.978806 -0.207722
C4    C     C_R   0.323918 0.443697 0.022998 -0.213074
C5    C     C_R   0.147036 0.328921 0.395019 0.441753
C6    C     C_R   0.833956 0.635213 0.650314 0.368340
C7    C     C_R   0.240394 0.363254 0.406245 0.376720
C8    C     C_R   0.750993 0.619965 0.614161 0.431386
C9    C     C_R   0.206932 0.504070 0.474090 0.554823
C10   C     C_R   0.794629 0.500465 0.519019 0.565931
C11   C     C_R   0.109725 0.459175 0.484808 -0.220609
C12   C     C_R   0.441064 0.486140 0.661779 0.934560
C13   C     C_R   0.881284 0.516761 0.550643 -0.183979
C14   C     C_R   0.080121 0.368326 0.445140 -0.262389
C15   C     C_R   0.903682 0.592264 0.610217 -0.278409
C16   C     C_R   0.498447 0.329193 0.499288 0.870383
C17   C     C_R   0.501987 0.670887 0.499456 0.861181
C18   C     C_R   0.041406 0.501057 0.531905 -0.143242
C19   C     C_R   0.946900 0.461747 0.523719 -0.122303
C20   C     C_R   0.919199 0.363809 0.499516 0.533768
C21   C     C_R   0.062099 0.574219 0.593002 0.555216
C22   C     C_R   0.985589 0.315841 0.459701 0.417447
C23   C     C_R   0.552348 0.537648 0.101130 0.035383
C24   C     C_R   0.995172 0.621823 0.630007 0.446524
C25   C     C_1   0.495995 0.226917 0.497267 -0.134255
C26   C     C_1   0.505628 0.773400 0.497861 -0.205757
C27   C     C_1   0.496983 0.141799 0.496177 0.008089
C28   C     C_1   0.505713 0.858770 0.496673 -0.033872
C29   C     C_1   0.500168 0.042612 0.495672 0.012695
C30   C     C_1   0.503194 0.958101 0.495845 0.005409
C31   C     C_R   0.594421 0.538856 0.245688 -0.293617
C32   C     C_R   0.404282 0.475568 0.754368 -0.282142
C33   C     C_R   0.710708 0.616225 0.125012 0.567311
C34   C     C_R   0.444264 0.499593 0.899214 0.025283
C35   C     C_R   0.289194 0.404709 0.877987 0.555639
C36   C     C_R   0.683354 0.599197 0.214577 0.356638
C37   C     C_R   0.315865 0.415722 0.787722 0.356691
C38   C     C_R   0.531831 0.506773 0.187883 -0.230848
C39   C     C_R   0.464010 0.521927 0.810559 -0.208718
C40   C     C_3   0.186560 0.400310 0.723664 0.165312
C41   C     C_3   0.121525 0.332528 0.670731 -0.707313
C42   C     C_3   0.733772 0.730321 0.295583 0.169806
C43   C     C_3   0.807399 0.776501 0.351036 -0.853729
C44   C     C_3   0.882231 0.178082 0.413440 0.216652
C45   C     C_R   0.645749 0.584510 0.068067 -0.159175
C46   C     C_3   0.886481 0.081725 0.370505 -0.850247
C47   C     C_3   0.079104 0.780078 0.634206 0.084633
C48   C     C_3   0.110762 0.864549 0.692960 -0.773256
C49   C     C_3   0.824661 0.480807 0.373082 0.102227
C50   C     C_3   0.789677 0.419791 0.298372 -0.721796
C51   C     C_3   0.256241 0.650430 0.402992 0.112180
C52   C     C_3   0.268777 0.759550 0.415027 -0.808998
C53   C     C_3   0.713531 0.765514 0.603630 0.066906
C54   C     C_3   0.651631 0.828471 0.647020 -0.772854
C55   C     C_3   0.339424 0.295679 0.309636 0.168993
C56   C     C_R   0.352237 0.448193 0.933672 -0.116950
C57   C     C_3   0.321295 0.190444 0.280276 -0.842091
C58   C     C_3   0.130703 0.296251 0.253584 0.078711
C59   C     C_3   0.037764 0.306970 0.232618 -0.828035
C60   C     C_3   0.846876 0.762767 0.747119 0.187525
C61   C     C_3   0.886755 0.792760 0.830330 -0.731208
C62   C     C_R   0.483795 0.516065 0.045596 -0.061861
C63   C     C_R   0.512886 0.527548 0.954489 -0.099575
C64   C     C_R   0.609872 0.561337 0.922491 0.615926
F1    F     F_    0.830385 0.312114 0.527259 -0.649523
F2    F     F_    0.142726 0.592084 0.626566 -0.652302
F3    F     F_    0.799657 0.665798 0.094332 -0.656525
F4    F     F_    0.204228 0.346892 0.911036 -0.666922
F5    F     F_    0.646376 0.556204 0.838027 -0.637106
F6    F     F_    0.351096 0.495401 0.161499 -0.732301
H1    H     H_    0.746566 0.620042 0.952188 0.229078
H2    H     H_    0.663826 0.723399 0.334877 0.115042
H3    H     H_    0.742054 0.779904 0.238300 0.154690
H4    H     H_    0.877811 0.790280 0.311663 0.270558
H5    H     H_    0.795554 0.846891 0.376011 0.203153
H6    H     H_    0.803985 0.726909 0.406731 0.219618
H7    H     H_    0.872391 0.229357 0.364258 0.118174
H8    H     H_    0.820930 0.161420 0.465606 0.207472
H9    H     H_    0.888546 0.026892 0.420069 0.252481
H10   H     H_    0.823875 0.053797 0.338885 0.201619
H11   H     H_    0.949748 0.091596 0.320933 0.284320
H12   H     H_    0.251614 0.413299 0.050515 0.206931
H13   H     H_    0.041473 0.804635 0.585927 0.098662
H14   H     H_    0.143131 0.762581 0.599439 0.202872
H15   H     H_    0.142198 0.839859 0.745839 0.274982
H16   H     H_    0.163672 0.924295 0.654601 0.217530
H17   H     H_    0.051210 0.893815 0.721454 0.239116
H18   H     H_    0.899873 0.484136 0.369392 0.098605
H19   H     H_    0.817580 0.556184 0.364678 0.193321
H20   H     H_    0.713993 0.412218 0.300587 0.253129
H21   H     H_    0.827384 0.455453 0.235592 0.227121
H22   H     H_    0.801891 0.345933 0.302711 0.221368
H23   H     H_    0.525806 0.576291 0.783452 0.261141
H24   H     H_    0.196722 0.624596 0.366258 0.115088
H25   H     H_    0.320643 0.638159 0.363776 0.175904
H26   H     H_    0.322562 0.787562 0.456845 0.273562
H27   H     H_    0.290676 0.798607 0.350990 0.215078
H28   H     H_    0.201976 0.774151 0.445713 0.225835
H29   H     H_    0.707871 0.761361 0.533711 0.165575
H30   H     H_    0.787080 0.803975 0.606139 0.064651
H31   H     H_    0.666503 0.846607 0.713580 0.232231
H32   H     H_    0.664556 0.897575 0.608747 0.214710
H33   H     H_    0.577180 0.788891 0.651679 0.261920
H34   H     H_    0.467355 0.454916 0.211202 0.215988
H35   H     H_    0.415695 0.322251 0.307768 0.154596
H36   H     H_    0.318714 0.341302 0.262638 0.134041
H37   H     H_    0.355437 0.188318 0.212148 0.208703
H38   H     H_    0.350257 0.146615 0.322266 0.258843
H39   H     H_    0.245526 0.157383 0.284207 0.285665
H40   H     H_    0.156350 0.246557 0.205823 0.176653
H41   H     H_    0.181923 0.368950 0.242347 0.140417
H42   H     H_    0.008887 0.355523 0.279313 0.228842
H43   H     H_    0.048245 0.339943 0.166437 0.236463
H44   H     H_    0.987607 0.234555 0.233905 0.257200
H45   H     H_    0.213520 0.472267 0.688845 0.207547
H46   H     H_    0.778330 0.780132 0.755102 0.169156
H47   H     H_    0.895033 0.806589 0.692251 0.106303
H48   H     H_    0.905611 0.873633 0.833961 0.189584
H49   H     H_    0.834305 0.762850 0.887657 0.248849
H50   H     H_    0.949742 0.765758 0.832382 0.300737
H51   H     H_    0.145306 0.410026 0.787324 0.183761
H52   H     H_    0.093555 0.260096 0.704486 0.260957
H53   H     H_    0.062372 0.363813 0.662742 0.214057
H54   H     H_    0.159764 0.322820 0.605792 0.249078
N1    N     N_R   0.268300 0.449640 0.447270 -0.215720
N2    N     N_R   0.731700 0.550360 0.552730 -0.207563
O1    O     O_R   0.616880 0.525390 0.394380 -0.567536
O2    O     O_3   0.745720 0.637697 0.269973 -0.593928
O3    O     O_3   0.964774 0.214872 0.449203 -0.553677
O4    O     O_3   0.020460 0.698941 0.684414 -0.557015
O5    O     O_3   0.772939 0.437442 0.452425 -0.536609
O6    O     O_3   0.240075 0.602820 0.485110 -0.532462
O7    O     O_3   0.686132 0.671323 0.644730 -0.544797
O8    O     O_3   0.295995 0.298100 0.396305 -0.557004
O9    O     O_3   0.121186 0.254720 0.338165 -0.555475
O10   O     O_3   0.835011 0.661414 0.736656 -0.499196
O11   O     O_R   0.383120 0.474610 0.605620 -0.575793
O12   O     O_R   0.468100 0.493070 0.360490 -0.622377
O13   O     O_R   0.531900 0.506930 0.639510 -0.549709
O14   O     O_R   0.574410 0.389880 0.516950 -0.542700
O15   O     O_R   0.425590 0.610120 0.483050 -0.555746
O16   O     O_R   0.425630 0.357560 0.483060 -0.548088
O17   O     O_R   0.574370 0.642440 0.516940 -0.597138
O18   O     O_3   0.260931 0.358969 0.733245 -0.582576
Zn1   Zn    Zn3+2 0.599340 0.521580 0.522630 1.033185
Zn2   Zn    Zn3+2 0.400660 0.478420 0.477370 1.014208

loop_
_geom_bond_atom_site_label_1
_geom_bond_atom_site_label_2
_ccdc_geom_bond_type
C11   C18   A    
C34   C56   A    
C23   C45   A    
C37   O18   S    
C21   F2    S    
C61   H49   S    
C18   C21   A    
C33   C45   A    
O16   Zn2   S    
C54   H31   S    
C16   O16   A    
C19   C20   A    
C54   H33   S    
C36   O2    S    
C53   C54   S    
C53   H29   S    
C40   H51   S    
C49   O5    S    
C29   C30   T    
C55   H35   S    
C5    O9    S    
C17   C26   S    
C41   H54   S    
C44   H7    S    
C35   C37   A    
N1    Zn2   S    
C46   H9    S    
C11   C14   A    
C40   H45   S    
C27   C29   S    
C52   H27   S    
C1    C31   S    
C33   C36   A    
C17   O15   A    
C18   C19   A    
C32   C39   A    
C52   H28   S    
C48   H15   S    
C10   O5    S    
C39   H23   S    
C38   H34   S    
C6    C15   A    
C50   H20   S    
C23   C62   A    
C57   H39   S    
C6    O10   S    
C47   H13   S    
C60   O10   S    
C42   O2    S    
C40   O18   S    
C43   H4    S    
C61   H48   S    
C54   H32   S    
C12   C32   S    
C61   H50   S    
C49   H18   S    
C16   O14   A    
N2    Zn1   S    
C44   C46   S    
C53   H30   S    
C43   H5    S    
C12   O13   A    
C13   C19   A    
C55   H36   S    
C51   C52   S    
O11   Zn2   S    
C53   O7    S    
C7    O8    S    
C5    C7    A    
C6    C8    A    
C47   O4    S    
C58   C59   S    
C32   C37   A    
C3    C45   A    
C9    N1    A    
C34   C39   A    
C60   C61   S    
C41   H52   S    
C3    H1    S    
C62   C63   A    
C46   H11   S    
C20   F1    S    
C47   C48   S    
C59   H43   S    
C42   H2    S    
C59   H42   S    
C48   H17   S    
C60   H47   S    
C47   H14   S    
C7    N1    A    
C9    C11   A    
C5    C14   A    
O15   Zn2   S    
O1    Zn1   S    
C8    N2    A    
C15   C24   A    
C57   H37   S    
C20   C22   A    
C13   C15   A    
C22   O3    S    
C48   H16   S    
C60   H46   S    
C42   C43   S    
C23   C38   A    
C33   F3    S    
C9    O6    S    
C50   H22   S    
C16   C25   S    
O17   Zn1   S    
C40   C41   S    
C42   H3    S    
C8    O7    S    
C58   H40   S    
C12   O11   A    
C1    O1    A    
C49   H19   S    
C10   C13   A    
O14   Zn1   S    
C35   C56   A    
C51   O6    S    
C58   O9    S    
C25   C27   T    
C55   O8    S    
C64   F5    S    
C26   C28   T    
C31   C38   A    
C17   O17   A    
C58   H41   S    
C14   C22   A    
C55   C57   S    
C44   O3    S    
C28   C30   S    
C10   N2    A    
C46   H10   S    
C41   H53   S    
C35   F4    S    
O12   Zn2   S    
C59   H44   S    
C2    C4    A    
C44   H8    S    
C34   C63   A    
C52   H26   S    
C3    C64   A    
C51   H24   S    
C63   C64   A    
C24   O4    S    
C50   H21   S    
C57   H38   S    
C4    H12   S    
C49   C50   S    
C21   C24   A    
C51   H25   S    
C31   C36   A    
C43   H6    S    
C2    F6    S    
C4    C56   A    
C1    O12   A    
C2    C62   A    
O13   Zn1   S    
