data_mof_unit_37902.cif
_audit_creation_date              2013-03-05T16:13:23-0500
_audit_creation_method            fapswitch 2.2
_symmetry_space_group_name_H-M    P1
_symmetry_Int_Tables_number       1
_space_group_crystal_system       triclinic
_cell_length_a                    10.614324
_cell_length_b                    9.909457
_cell_length_c                    19.343159
_cell_angle_alpha                 90.624802
_cell_angle_beta                  91.521691
_cell_angle_gamma                 90.576748
_cell_volume                      2033.60820754

loop_
_atom_site_label
_atom_site_type_symbol
_atom_site_description
_atom_site_fract_x
_atom_site_fract_y
_atom_site_fract_z
_atom_type_partial_charge
O1    O     O_R   0.316770 0.614620 0.500000 -0.588402
O2    O     O_R   0.683230 0.385380 0.500000 -0.588548
O3    O     O_R   0.683230 0.614620 0.500000 -0.579656
O4    O     O_R   0.316770 0.385380 0.500000 -0.579919
C1    C     C_R   0.872081 0.500899 0.500026 -0.029025
C2    C     C_R   0.127918 0.499104 0.499973 -0.029384
C3    C     C_R   0.260303 0.499526 0.499664 0.871070
C4    C     C_R   0.739696 0.500475 0.500336 0.870967
O5    O     O_R   0.500030 0.614710 0.398180 -0.559182
O6    O     O_R   0.499970 0.385290 0.601820 -0.559252
O7    O     O_R   0.499970 0.614710 0.601820 -0.567645
O8    O     O_R   0.500030 0.385290 0.398180 -0.567604
C5    C     C_R   0.509003 0.499284 0.365858 0.945586
C6    C     C_R   0.491087 0.500731 0.634154 0.945573
Zn1   Zn    Zn3+2 0.500000 0.653120 0.500000 1.128580
Zn2   Zn    Zn3+2 0.500000 0.346880 0.500000 1.128376
C7    C     C_R   0.061045 0.418471 0.452008 -0.067203
C8    C     C_R   0.938953 0.581530 0.547992 -0.067255
C9    C     C_R   0.931738 0.418808 0.452243 -0.085023
C10   C     C_R   0.068260 0.581199 0.547754 -0.085128
C11   C     C_R   0.460456 0.378837 0.745545 0.202839
C12   C     C_R   0.541783 0.621470 0.254776 0.203148
C13   C     C_R   0.529039 0.373865 0.252652 0.195452
C14   C     C_R   0.471334 0.626506 0.747240 0.196158
C15   C     C_R   0.468087 0.379026 0.817745 0.200699
C16   C     C_R   0.535258 0.621762 0.182570 0.200704
C17   C     C_R   0.524596 0.375267 0.180327 0.200046
C18   C     C_R   0.477065 0.625585 0.819557 0.199810
C19   C     C_R   0.479804 0.501850 0.854023 -0.243875
C20   C     C_R   0.523274 0.499235 0.146063 -0.244078
C21   C     C_R   0.600698 0.073489 0.527003 0.245758
C22   C     C_R   0.399333 0.926504 0.472964 0.245802
C23   C     C_R   0.399089 0.069983 0.473335 0.266430
C24   C     C_R   0.600904 0.930010 0.526673 0.266571
C25   C     C_R   0.472674 0.502349 0.709654 -0.354706
C26   C     C_R   0.528107 0.497835 0.290420 -0.355047
C27   C     C_R   0.390280 0.546121 0.968023 -0.054972
C28   C     C_R   0.613195 0.455559 0.032081 -0.054766
C29   C     C_R   0.401683 0.546589 0.039495 -0.059982
C30   C     C_R   0.601813 0.455144 0.960598 -0.059836
N1    N     N_R   0.500000 0.857200 0.500000 -0.208828
N2    N     N_R   0.500000 0.142800 0.500000 -0.208806
C31   C     C_R   0.512973 0.501084 0.071259 0.173773
C32   C     C_R   0.490473 0.500551 0.928833 0.173632
N3    N     N_R   0.705321 0.145314 0.558122 0.256434
O9    O     O_R   0.814159 0.145105 0.528755 -0.286730
O10   O     O_R   0.695744 0.199322 0.619257 -0.295932
N4    N     N_R   0.294849 0.854666 0.441704 0.256397
O11   O     O_R   0.185895 0.854780 0.470949 -0.286589
O12   O     O_R   0.304630 0.800956 0.380515 -0.295835
N5    N     N_R   0.292294 0.138133 0.444852 0.245383
O13   O     O_R   0.299182 0.196814 0.385327 -0.327227
O14   O     O_R   0.184451 0.130446 0.475050 -0.293582
N6    N     N_R   0.707669 0.861851 0.555190 0.245410
O15   O     O_R   0.700738 0.803236 0.614732 -0.327572
O16   O     O_R   0.815532 0.869481 0.525009 -0.293345
H1    H     H_    0.108578 0.358087 0.413960 0.208771
H2    H     H_    0.891418 0.641910 0.586042 0.208729
H3    H     H_    0.878327 0.357116 0.415004 0.191491
H4    H     H_    0.121671 0.642894 0.584991 0.191951
N7    N     N_R   0.427962 0.255151 0.709615 0.256763
O17   O     O_R   0.322673 0.245829 0.673762 -0.320484
O18   O     O_R   0.497811 0.148915 0.716769 -0.215651
N8    N     N_R   0.574666 0.744710 0.291020 0.256526
O19   O     O_R   0.679653 0.753085 0.327195 -0.321194
O20   O     O_R   0.505278 0.851342 0.284058 -0.216308
N9    N     N_R   0.536686 0.246141 0.286796 0.268472
O21   O     O_R   0.638381 0.215958 0.322148 -0.322917
O22   O     O_R   0.453573 0.151874 0.272434 -0.214726
N10   N     N_R   0.461834 0.753908 0.712912 0.268262
O23   O     O_R   0.359525 0.782493 0.677721 -0.324360
O24   O     O_R   0.544201 0.849209 0.726681 -0.214563
N11   N     N_R   0.457094 0.254715 0.854583 0.254823
O25   O     O_R   0.361065 0.233808 0.893629 -0.280070
O26   O     O_R   0.551017 0.171431 0.856815 -0.238038
N12   N     N_R   0.547486 0.746231 0.145986 0.254758
O27   O     O_R   0.454305 0.830461 0.143797 -0.236857
O28   O     O_R   0.643863 0.766475 0.107105 -0.281114
N13   N     N_R   0.522399 0.250432 0.141629 0.249403
O29   O     O_R   0.610674 0.162027 0.151608 -0.238339
O30   O     O_R   0.432606 0.225062 0.096088 -0.275964
N14   N     N_R   0.479030 0.750653 0.858052 0.249388
O31   O     O_R   0.569290 0.776898 0.903189 -0.275469
O32   O     O_R   0.389947 0.838261 0.848407 -0.239219
H5    H     H_    0.304101 0.580974 0.943165 0.173094
H6    H     H_    0.699308 0.420567 0.056953 0.173082
H7    H     H_    0.324114 0.581296 0.070109 0.174961
H8    H     H_    0.679349 0.420365 0.929983 0.175136

loop_
_geom_bond_atom_site_label_1
_geom_bond_atom_site_label_2
_geom_bond_distance
_ccdc_geom_bond_type
C21   N2    1.371106 A    
C22   N4    1.428784 S    
N11   O25   1.300914 A    
C29   H7    1.083500 S    
C14   N10   1.436052 S    
N3    O9    1.300833 A    
C28   H6    1.083431 S    
C23   N2    1.371476 A    
C27   H5    1.083440 S    
C18   C19   1.402235 A    
N12   O28   1.300917 A    
C17   N13   1.438550 S    
O7    C6    1.300834 A    
C8    C10   1.372674 A    
C13   N9    1.436034 S    
N7    O18   1.300201 A    
O5    C5    1.303081 A    
O7    Zn1   2.010041 S    
C8    H2    1.081884 S    
O8    Zn2   2.010041 S    
C16   N12   1.435137 S    
C22   N1    1.371049 A    
N10   O23   1.301530 A    
O1    Zn1   1.978158 S    
C13   C17   1.398756 A    
C10   H4    1.084294 S    
O2    Zn2   1.978157 S    
C11   N7    1.436814 S    
N4    O12   1.299551 A    
C17   C20   1.402209 A    
N11   O26   1.300724 A    
C24   N1    1.371444 A    
O4    C3    1.285421 A    
N3    O10   1.299547 A    
C15   C19   1.401066 A    
N6    O16   1.300781 A    
C14   C25   1.422633 A    
C18   N14   1.438554 S    
N5    O13   1.299013 A    
N12   O27   1.300723 A    
Zn1   N1    2.022322 S    
C5    C26   1.478505 S    
O3    C4    1.285416 A    
O6    C6    1.303226 A    
C6    C25   1.478500 S    
N13   O30   1.301287 A    
C29   C31   1.398014 A    
C1    C8    1.393024 A    
C9    H3    1.084296 S    
N14   O31   1.301293 A    
N9    O21   1.301524 A    
N5    O14   1.300781 A    
N8    O20   1.300249 A    
O4    Zn2   1.985695 S    
C21   C24   1.421763 A    
C1    C9    1.393579 A    
N4    O11   1.300844 A    
C16   C20   1.400892 A    
N14   O32   1.301253 A    
C19   C32   1.448693 S    
C21   N3    1.428770 S    
C20   C31   1.448497 S    
Zn2   N2    2.022322 S    
C2    C10   1.393584 A    
C2    C7    1.393025 A    
C11   C15   1.396748 A    
N6    O15   1.299037 A    
O1    C3    1.282938 A    
O2    C4    1.282940 A    
C14   C18   1.398676 A    
C1    C4    1.405310 S    
C24   N6    1.426541 S    
C2    C3    1.405318 S    
C11   C25   1.420193 A    
C23   N5    1.426510 S    
C12   C26   1.420417 A    
N8    O19   1.301456 A    
C30   H8    1.083484 S    
C27   C32   1.398064 A    
O5    Zn1   2.001892 S    
C28   C31   1.398038 A    
C27   C29   1.384537 A    
O6    Zn2   2.001892 S    
C22   C23   1.421769 A    
C28   C30   1.384733 A    
C7    C9    1.372672 A    
C15   N11   1.435089 S    
N7    O17   1.301466 A    
C12   N8    1.436841 S    
N13   O29   1.301251 A    
C30   C32   1.398132 A    
O8    C5    1.300914 A    
C13   C26   1.422666 A    
C12   C16   1.396618 A    
O3    Zn1   1.985694 S    
N10   O24   1.301021 A    
N9    O22   1.301066 A    
C7    H1    1.081876 S    
