data_mof_unit_26263.cif
_audit_creation_date              2012-12-11T14:56:47-0500
_audit_creation_method            fapswitch 2.2
_symmetry_space_group_name_H-M    P1
_symmetry_Int_Tables_number       1
_space_group_crystal_system       triclinic
_cell_length_a                    10.585468
_cell_length_b                    10.689368
_cell_length_c                    17.207426
_cell_angle_alpha                 79.59589
_cell_angle_beta                  90.48522
_cell_angle_gamma                 119.138056
_cell_volume                      1665.52022069

loop_
_atom_site_label
_atom_site_type_symbol
_atom_type_description
_atom_site_fract_x
_atom_site_fract_y
_atom_site_fract_z
_atom_type_partial_charge
Br1   Br    Br    0.347482 0.111367 0.598270 -0.427152
Br2   Br    Br    0.000164 0.481651 0.714416 -0.306753
Br3   Br    Br    0.437155 0.452186 0.303036 -0.299749
Br4   Br    Br    0.006540 0.465740 0.301964 -0.337353
Br5   Br    Br    0.883718 0.237721 0.189570 -0.332528
Br6   Br    Br    0.338729 0.652098 0.641911 -0.335631
Br7   Br    Br    0.929848 0.132472 0.614656 -0.308876
C1    C     C_R   0.224877 0.855309 0.129304 0.557317
C2    C     C_1   0.650554 0.343553 0.707414 -0.002633
C3    C     C_R   0.498889 0.770435 0.771994 -0.034585
C4    C     C_R   0.636410 0.273823 0.088898 0.533291
C5    C     C_R   0.509184 0.773633 0.691094 0.146891
C6    C     C_R   0.643440 0.862970 0.646478 0.015704
C7    C     C_R   0.751963 0.983108 0.675691 0.128065
C8    C     C_R   0.731555 0.996851 0.753078 -0.110839
C9    C     C_R   0.611064 0.886414 0.803845 -0.084781
C10   C     C_R   0.220972 0.964331 0.759195 -0.027018
C11   C     C_R   0.229687 0.945105 0.682659 0.080591
C12   C     C_R   0.814977 0.413278 0.265693 0.129953
C13   C     C_R   0.148023 0.805346 0.666822 0.036115
C14   C     C_R   0.087315 0.679752 0.730382 0.148582
C15   C     C_R   0.098241 0.698685 0.809041 -0.052843
C16   C     C_R   0.640202 0.858055 0.125487 0.551370
C17   C     C_R   0.168532 0.840684 0.822996 -0.065660
C18   C     C_R   0.686673 0.809838 0.357088 0.548740
C19   C     C_R   0.726566 0.459264 0.383141 0.560381
C20   C     C_R   0.103995 0.810918 0.359177 0.554716
C21   C     C_R   0.674381 0.807356 0.581042 0.567303
C22   C     C_R   0.679392 0.382788 0.624544 0.595794
C23   C     C_R   0.780699 0.344396 0.202430 0.167829
C24   C     C_R   0.095481 0.798251 0.588213 0.600187
C25   C     C_R   0.221041 0.864600 0.900036 0.510738
C26   C     C_R   0.636504 0.283732 0.860688 0.531676
C27   C     C_R   0.600918 0.892923 0.888454 0.533327
C28   C     C_R   0.575583 0.390764 0.184229 -0.045379
C29   C     C_R   0.588449 0.424628 0.260082 0.119205
C30   C     C_R   0.709398 0.434973 0.301708 -0.047895
C31   C     C_2   0.469884 0.407233 0.131772 0.327559
C32   C     C_2   0.028825 0.573622 0.878241 0.279722
C33   C     C_2   0.378140 0.635980 0.821263 0.332763
C34   C     C_R   0.665485 0.340727 0.158110 -0.075789
C35   C     C_2   0.254234 0.112531 0.768829 0.357313
C36   C     C_1   0.668480 0.847796 0.205518 0.020324
C37   C     C_1   0.680318 0.838736 0.274745 0.028218
C38   C     C_1   0.184132 0.828017 0.211899 0.019928
C39   C     C_1   0.154030 0.822770 0.280042 0.022460
C40   C     C_1   0.642012 0.321361 0.777886 -0.013917
Cr1   Cr    Cr6+3 0.402240 0.783890 0.019450 1.076687
Cr2   Cr    Cr6+3 0.382360 0.097900 0.991800 1.105407
Cr3   Cr    Cr6+3 0.715380 0.118170 0.988700 1.140117
Cr4   Cr    Cr6+3 0.936650 0.882420 0.465510 1.155334
Cr5   Cr    Cr6+3 0.605770 0.565620 0.493360 1.165626
Cr6   Cr    Cr6+3 0.921340 0.550490 0.496380 1.170097
H1    H     H_    0.815050 0.088990 0.774964 0.218025
H2    H     H_    0.505744 0.463281 0.070296 0.104680
H3    H     H_    0.975452 0.583864 0.928399 0.102924
H4    H     H_    0.316253 0.641354 0.868205 0.172209
H5    H     H_    0.352217 0.208843 0.739724 0.141315
O1    O     O_R   0.521780 0.757110 0.108900 -0.487637
O2    O     O_R   0.805020 0.410040 0.421340 -0.440960
O3    O     O_R   0.049240 0.685450 0.403290 -0.484886
O4    O     O_R   0.275160 0.783810 0.101120 -0.466141
O5    O     O_R   0.077520 0.903010 0.551800 -0.445565
O6    O     O_R   0.802980 0.872780 0.546830 -0.471672
O7    O     O_R   0.578090 0.681300 0.569920 -0.456083
O8    O     O_R   0.608530 0.436370 0.586530 -0.465468
O9    O     O_R   0.798770 0.401880 0.597100 -0.443658
O10   O     O_R   0.043450 0.677890 0.566230 -0.459170
O11   O     O_3   0.821250 0.666180 0.485090 -0.353085
O12   O     O_R   0.513330 0.228330 0.898660 -0.504180
O13   O     O_R   0.237900 0.972600 0.090980 -0.487621
O14   O     O_R   0.511190 0.220540 0.061620 -0.503992
O15   O     O_R   0.736920 0.257720 0.063840 -0.459682
O16   O     O_R   0.710450 0.984050 0.081720 -0.461792
O17   O     O_R   0.524090 0.765520 0.933110 -0.534258
O18   O     O_R   0.277300 0.791600 0.938160 -0.549034
O19   O     O_R   0.240210 0.981010 0.915190 -0.462683
O20   O     O_2   0.341761 0.351958 0.154825 -0.393023
O21   O     O_2   0.038069 0.463213 0.882463 -0.409872
O22   O     O_2   0.349352 0.515221 0.810719 -0.400431
O23   O     O_R   0.739230 0.266130 0.888050 -0.460737
O24   O     O_2   0.166231 0.128551 0.805163 -0.400069
O25   O     O_R   0.712580 0.991850 0.918770 -0.468907
O26   O     O_3   0.499990 0.999980 0.999980 -0.314960
O27   O     O_R   0.083770 0.911170 0.376030 -0.470962
O28   O     O_R   0.808770 0.880340 0.383890 -0.484544
O29   O     O_R   0.584340 0.689460 0.394160 -0.472063
O30   O     O_R   0.614320 0.443940 0.423590 -0.435966

loop_
_geom_bond_atom_site_label_1
_geom_bond_atom_site_label_2
_ccdc_geom_bond_type
Cr1   O18   S    
C28   C29   A    
C35   O24   D    
Cr6   O11   S    
C35   H5    S    
Cr3   O26   S    
C38   C39   T    
C16   O1    A    
Br1   C11   S    
Cr2   O26   S    
C29   C30   A    
Cr3   O16   S    
Br6   C5    S    
C8    C9    A    
C18   O29   A    
C16   C36   S    
Cr4   O28   S    
C3    C33   S    
C20   O27   A    
Cr6   O10   S    
C1    C38   S    
Cr5   O11   S    
C20   O3    A    
C9    C27   S    
C25   O19   A    
C22   O9    A    
Br4   C12   S    
Cr6   O3    S    
Br7   C7    S    
C31   H2    S    
Cr2   O14   S    
C33   O22   D    
C6    C21   S    
C12   C30   A    
C2    C22   S    
C27   O17   A    
C6    C7    A    
Cr1   O17   S    
Cr4   O27   S    
C28   C34   A    
C18   C37   S    
Cr6   O2    S    
Cr3   O25   S    
C24   O10   A    
C10   C17   A    
C8    H1    S    
C24   O5    A    
Cr5   O30   S    
C28   C31   S    
Cr4   O5    S    
C4    O15   A    
Cr3   O15   S    
C4    O14   A    
C31   O20   D    
Cr1   O26   S    
C32   O21   D    
C36   C37   T    
C17   C25   S    
Cr1   O4    S    
C32   H3    S    
Br2   C14   S    
C10   C11   A    
C23   C34   A    
C5    C6    A    
C3    C5    A    
C26   O12   A    
C21   O6    A    
C20   C39   S    
C2    C40   T    
Cr2   O12   S    
C26   C40   S    
C15   C17   A    
C27   O25   A    
C16   O16   A    
C10   C35   S    
Cr5   O8    S    
Cr1   O1    S    
Br5   C23   S    
C1    O13   A    
C33   H4    S    
Cr5   O29   S    
Cr4   O6    S    
C25   O18   A    
C19   C30   S    
C21   O7    A    
C3    C9    A    
C19   O2    A    
Br3   C29   S    
C15   C32   S    
C18   O28   A    
Cr2   O19   S    
C4    C34   S    
C11   C13   A    
Cr6   O9    S    
C22   O8    A    
C13   C14   A    
C19   O30   A    
Cr2   O13   S    
C7    C8    A    
Cr4   O11   S    
C14   C15   A    
C12   C23   A    
C26   O23   A    
Cr5   O7    S    
Cr3   O23   S    
C1    O4    A    
C13   C24   S    
