data_mof_unit_60670.cif
_audit_creation_date              2012-12-10T21:13:09-0500
_audit_creation_method            fapswitch 2.2
_symmetry_space_group_name_H-M    P1
_symmetry_Int_Tables_number       1
_space_group_crystal_system       triclinic
_cell_length_a                    17.489939
_cell_length_b                    16.787405
_cell_length_c                    14.926548
_cell_angle_alpha                 89.992524
_cell_angle_beta                  91.727637
_cell_angle_gamma                 89.947511
_cell_volume                      4380.59997822

loop_
_atom_site_label
_atom_site_type_symbol
_atom_type_description
_atom_site_fract_x
_atom_site_fract_y
_atom_site_fract_z
_atom_type_partial_charge
C1    C     C_R   0.352993 0.500011 0.507756 0.930422
C2    C     C_R   0.233029 0.426623 0.551375 -0.135383
C3    C     C_R   0.230773 0.573022 0.544501 -0.138352
C4    C     C_R   0.773177 0.426395 0.509424 -0.136230
C5    C     C_R   0.732449 0.499689 0.503966 -0.204873
C6    C     C_R   0.270990 0.499861 0.532543 -0.185391
C7    C     C_R   0.887311 0.498492 0.554801 -0.014113
C8    C     C_R   0.116027 0.499086 0.574966 -0.011778
C9    C     C_1   0.967312 0.498076 0.572764 0.198012
C10   C     C_1   0.035189 0.498243 0.578901 0.197817
C11   C     C_R   0.453324 0.833356 0.438307 0.287358
C12   C     C_R   0.647632 0.499949 0.497645 0.939384
C13   C     C_R   0.548217 0.166599 0.559946 0.288611
C14   C     C_R   0.547157 0.833290 0.561093 0.286747
C15   C     C_R   0.452126 0.166739 0.439586 0.288578
C16   C     C_R   0.454159 0.748194 0.439622 -0.023329
C17   C     C_R   0.547105 0.251761 0.558985 -0.027940
C18   C     C_R   0.546095 0.748130 0.560086 -0.023387
C19   C     C_R   0.452933 0.251898 0.440948 -0.028831
C20   C     C_R   0.500256 0.875673 0.499666 0.008595
C21   C     C_R   0.500218 0.124315 0.499700 0.010261
C22   C     C_1   0.500268 0.963541 0.499625 0.201704
C23   C     C_R   0.358689 0.474229 0.038934 0.467448
C24   C     C_1   0.500257 0.036449 0.499633 0.200890
C25   C     C_R   0.498983 0.499951 0.326934 0.982018
C26   C     C_R   0.500940 0.499942 0.673030 0.973465
C27   C     C_R   0.572977 0.489869 0.815944 0.369708
C28   C     C_R   0.426874 0.489726 0.183954 0.367947
C29   C     C_R   0.503059 0.498949 0.768320 -0.253604
C30   C     C_R   0.496782 0.498975 0.231570 -0.258511
C31   C     C_R   0.433228 0.501550 0.809924 0.365662
C32   C     C_R   0.566556 0.501744 0.189868 0.367146
C33   C     C_R   0.430769 0.487138 0.902403 -0.053819
C34   C     C_R   0.641135 0.474370 0.960925 0.467746
C35   C     C_R   0.569013 0.487233 0.097416 -0.054630
C36   C     C_R   0.500695 0.484548 0.953009 -0.103641
C37   C     C_R   0.499094 0.484546 0.046833 -0.103094
C38   C     C_R   0.572181 0.483427 0.909756 0.031241
C39   C     C_R   0.427635 0.483321 0.090110 0.031962
C40   C     C_R   0.360983 0.472855 0.944955 -0.176268
C41   C     C_R   0.638819 0.472961 0.054874 -0.177126
C42   C     C_1   0.293598 0.446815 0.893737 0.240829
C43   C     C_1   0.706207 0.446771 0.106042 0.242225
C44   C     C_1   0.739733 0.647337 0.482510 0.257133
C45   C     C_R   0.850789 0.571620 0.540968 0.368010
C46   C     C_1   0.273939 0.351637 0.559004 0.269619
C47   C     C_1   0.269189 0.649493 0.544965 0.263502
C48   C     C_1   0.739053 0.352679 0.477188 0.259274
C49   C     C_1   0.405693 0.703896 0.377780 0.263582
C50   C     C_1   0.596089 0.295983 0.620271 0.255362
C51   C     C_1   0.594219 0.703789 0.622338 0.256972
C52   C     C_1   0.402998 0.296288 0.380773 0.260917
C53   C     C_R   0.154616 0.426722 0.570095 0.366588
C54   C     C_R   0.152390 0.571950 0.563266 0.358440
C55   C     C_R   0.850496 0.426021 0.538281 0.371714
C56   C     C_R   0.773477 0.572540 0.512096 -0.140790
H1    H     H_    0.635960 0.502142 0.708797 0.320862
H2    H     H_    0.858733 0.309800 0.550155 0.353081
H3    H     H_    0.377716 0.841801 0.338645 0.349156
H4    H     H_    0.626264 0.158089 0.657013 0.349926
H5    H     H_    0.623218 0.841639 0.660285 0.349195
H6    H     H_    0.375017 0.158469 0.341507 0.349844
H7    H     H_    0.363925 0.502121 0.291065 0.322578
H8    H     H_    0.338110 0.558657 0.793453 0.341489
H9    H     H_    0.661537 0.558975 0.205936 0.341635
H10   H     H_    0.246625 0.479187 0.041760 0.336663
H11   H     H_    0.753178 0.479487 0.958095 0.336500
H12   H     H_    0.859505 0.687376 0.557225 0.352236
H13   H     H_    0.141220 0.310580 0.562088 0.352627
H14   H     H_    0.135228 0.686589 0.543942 0.352499
N1    N     N_R   0.500000 0.707230 0.500000 -0.149875
N2    N     N_1   0.635887 0.330678 0.669766 -0.154905
N3    N     N_1   0.633273 0.668952 0.672611 -0.193007
N4    N     N_1   0.362395 0.331158 0.332269 -0.150248
N5    N     N_R   0.500000 0.292770 0.500000 -0.149112
N6    N     N_1   0.239928 0.425918 0.852998 -0.139323
N7    N     N_1   0.759907 0.425729 0.146692 -0.142252
N8    N     N_1   0.713310 0.707129 0.458357 -0.178059
N9    N     N_1   0.306044 0.291518 0.565894 -0.181638
N10   N     N_1   0.299110 0.710964 0.546343 -0.184571
N11   N     N_1   0.712269 0.293777 0.450976 -0.174551
N12   N     N_1   0.366318 0.669068 0.327924 -0.189333
O1    O     O_R   0.389110 0.566570 0.500000 -0.617852
O2    O     O_3   0.357524 0.488960 0.226774 -0.663500
O3    O     O_3   0.368937 0.520946 0.758296 -0.763624
O4    O     O_3   0.630800 0.521429 0.241352 -0.758224
O5    O     O_3   0.290289 0.464478 0.082149 -0.666524
O6    O     O_3   0.709568 0.464629 0.917739 -0.666672
O7    O     O_3   0.893513 0.640443 0.553921 -0.718522
O8    O     O_3   0.113070 0.357598 0.583583 -0.716326
O9    O     O_3   0.108710 0.640597 0.570272 -0.718130
O10   O     O_3   0.892931 0.356628 0.548682 -0.718532
O11   O     O_3   0.407861 0.877315 0.378894 -0.719178
O12   O     O_R   0.610890 0.433430 0.500000 -0.618222
O13   O     O_3   0.594880 0.122604 0.618044 -0.718664
O14   O     O_3   0.592759 0.877189 0.620323 -0.719191
O15   O     O_3   0.405555 0.122887 0.381351 -0.718764
O16   O     O_R   0.610890 0.566570 0.500000 -0.615657
O17   O     O_R   0.389110 0.433430 0.500000 -0.621075
O18   O     O_R   0.499980 0.566550 0.367850 -0.610356
O19   O     O_R   0.500020 0.433450 0.632150 -0.617752
O20   O     O_R   0.500020 0.566550 0.632150 -0.612735
O21   O     O_R   0.499980 0.433450 0.367850 -0.615320
O22   O     O_3   0.642366 0.489290 0.773170 -0.664652
Zn1   Zn    Zn3+2 0.500000 0.588860 0.500000 0.996429
Zn2   Zn    Zn3+2 0.500000 0.411140 0.500000 0.995827

loop_
_geom_bond_atom_site_label_1
_geom_bond_atom_site_label_2
_ccdc_geom_bond_type
C31   O3    S    
C27   C29   A    
C14   C18   A    
C5    C56   A    
H14   O9    S    
C7    C55   A    
C3    C6    A    
C1    O17   A    
H5    O14   S    
H9    O4    S    
C2    C46   S    
C15   C19   A    
C16   N1    A    
H11   O6    S    
O16   Zn1   S    
C13   O13   S    
C7    C45   A    
C36   C37   A    
C35   C37   A    
C52   N4    T    
C26   O19   A    
C46   N9    T    
C3    C54   A    
C28   O2    S    
C27   C38   A    
C23   C40   A    
C27   O22   S    
O19   Zn2   S    
C33   C36   A    
C48   N11   T    
O20   Zn1   S    
C3    C47   S    
H1    O22   S    
C50   N2    T    
C19   C52   S    
C45   C56   A    
C31   C33   A    
C45   O7    S    
C9    C10   T    
C12   O16   A    
C11   O11   S    
C40   C42   S    
C23   O5    S    
C41   C43   S    
C12   O12   A    
C2    C6    A    
C34   C41   A    
C47   N10   T    
C15   O15   S    
C14   O14   S    
C18   C51   S    
C11   C20   A    
C33   C40   A    
C1    C6    S    
C32   C35   A    
C14   C20   A    
C16   C49   S    
C5    C12   S    
C8    C54   A    
H10   O5    S    
C25   O21   A    
C28   C39   A    
O1    Zn1   S    
C49   N12   T    
C17   C50   S    
C44   N8    T    
C55   O10   S    
C18   N1    A    
H6    O15   S    
C11   C16   A    
C44   C56   S    
C25   O18   A    
C32   O4    S    
H12   O7    S    
O18   Zn1   S    
C13   C21   A    
C34   O6    S    
N5    Zn2   S    
C8    C10   S    
C20   C22   S    
N1    Zn1   S    
C4    C55   A    
C22   C24   T    
C43   N7    T    
H13   O8    S    
H8    O3    S    
C4    C48   S    
C25   C30   S    
C7    C9    S    
O17   Zn2   S    
O12   Zn2   S    
C34   C38   A    
C51   N3    T    
C4    C5    A    
C2    C53   A    
C8    C53   A    
C1    O1    A    
C42   N6    T    
C13   C17   A    
H7    O2    S    
C28   C30   A    
C54   O9    S    
C29   C31   A    
C26   O20   A    
C36   C38   A    
C30   C32   A    
C23   C39   A    
C19   N5    A    
O21   Zn2   S    
C35   C41   A    
H4    O13   S    
C15   C21   A    
C26   C29   S    
C37   C39   A    
C21   C24   S    
C53   O8    S    
C17   N5    A    
H3    O11   S    
H2    O10   S    
