data_mof_unit_62951.cif
_audit_creation_date              2012-12-10T19:38:51-0500
_audit_creation_method            fapswitch 2.2
_symmetry_space_group_name_H-M    P1
_symmetry_Int_Tables_number       1
_space_group_crystal_system       triclinic
_cell_length_a                    19.167067
_cell_length_b                    18.334088
_cell_length_c                    23.602866
_cell_angle_alpha                 89.981969
_cell_angle_beta                  90.228617
_cell_angle_gamma                 90.024865
_cell_volume                      8294.23228557

loop_
_atom_site_label
_atom_site_type_symbol
_atom_type_description
_atom_site_fract_x
_atom_site_fract_y
_atom_site_fract_z
_atom_type_partial_charge
C1    C     C_R   0.365546 0.499996 0.500093 1.048329
C2    C     C_R   0.634413 0.500024 0.500109 1.047090
C3    C     C_R   0.531581 0.565000 0.238457 -0.008193
C4    C     C_R   0.487905 0.567787 0.763268 -0.011571
C5    C     C_R   0.531748 0.562871 0.297755 -0.086559
C6    C     C_R   0.484714 0.566607 0.703993 -0.079393
C7    C     C_R   0.504894 0.500634 0.326407 -0.126612
C8    C     C_R   0.500069 0.500943 0.674115 -0.127458
C9    C     C_R   0.482038 0.439346 0.294448 -0.082776
C10   C     C_R   0.516303 0.436626 0.705364 -0.081677
C11   C     C_R   0.485120 0.441237 0.235192 -0.014912
C12   C     C_R   0.516083 0.438231 0.764716 -0.012243
C13   C     C_R   0.508414 0.504355 0.207629 0.196992
C14   C     C_R   0.502844 0.503726 0.793166 0.197386
C15   C     C_R   0.255064 0.535262 0.545238 0.289795
C16   C     C_R   0.746073 0.465405 0.456790 0.285442
C17   C     C_R   0.745287 0.535102 0.545262 0.283813
C18   C     C_R   0.253232 0.465017 0.457069 0.282206
C19   C     C_R   0.182312 0.535743 0.545764 0.348079
C20   C     C_R   0.818819 0.465641 0.457373 0.347226
C21   C     C_R   0.818032 0.535595 0.545727 0.352242
C22   C     C_R   0.180499 0.465233 0.457713 0.353520
C23   C     C_R   0.145357 0.500778 0.501971 -0.275369
C24   C     C_R   0.854483 0.500874 0.501778 -0.274669
C25   C     C_R   0.290179 0.500046 0.500810 -0.362883
C26   C     C_R   0.709707 0.500139 0.500730 -0.364003
C27   C     C_R   0.501105 0.500051 0.388993 0.923481
C28   C     C_R   0.499892 0.500113 0.611181 0.926020
C29   C     C_R   0.929924 0.501486 0.502165 0.440382
C30   C     C_R   0.069927 0.501518 0.502303 0.440692
C31   C     C_R   0.445296 0.273742 0.476854 0.005934
C32   C     C_R   0.548986 0.726142 0.530582 0.012614
C33   C     C_R   0.554793 0.273766 0.523002 0.027156
C34   C     C_R   0.451022 0.726160 0.469442 0.017759
C35   C     C_R   0.444020 0.197023 0.475881 -0.103558
C36   C     C_R   0.550384 0.802857 0.531279 -0.102397
C37   C     C_R   0.556122 0.197045 0.523875 -0.093160
C38   C     C_R   0.449624 0.802879 0.468811 -0.091596
C39   C     C_R   0.500071 0.156687 0.499876 -0.010306
C40   C     C_R   0.500012 0.842928 0.500053 -0.005333
C41   C     C_R   0.500035 0.924967 0.500042 0.301404
C42   C     C_R   0.500055 0.074322 0.499909 0.302245
C43   C     C_R   0.567272 0.504000 0.880946 0.563513
C44   C     C_R   0.445303 0.515587 0.119794 0.560895
C45   C     C_R   0.442599 0.507650 0.882102 0.553637
C46   C     C_R   0.569109 0.499841 0.118801 0.555775
C47   C     C_R   0.442366 0.510377 0.941041 -0.068202
C48   C     C_R   0.569715 0.501653 0.059815 -0.069181
C49   C     C_R   0.506272 0.507219 0.970569 -0.058744
C50   C     C_R   0.506035 0.507854 0.030245 -0.058869
C51   C     C_R   0.570177 0.503070 0.940539 -0.116325
C52   C     C_R   0.442278 0.514261 0.060238 -0.115102
C53   C     C_R   0.379517 0.515901 0.970637 -0.166929
C54   C     C_R   0.632608 0.496762 0.030200 -0.166508
C55   C     C_R   0.378682 0.518490 0.029478 0.425309
C56   C     C_R   0.633708 0.497969 0.971313 0.425388
H1    H     H_    0.330273 0.518540 0.948005 0.232445
H2    H     H_    0.681706 0.492133 0.052847 0.232299
H3    H     H_    0.402530 0.304377 0.458551 0.181042
H4    H     H_    0.586970 0.695382 0.554834 0.176366
H5    H     H_    0.597517 0.304429 0.541399 0.152903
H6    H     H_    0.412993 0.695409 0.445207 0.145492
N1    N     N_R   0.504290 0.505136 0.853688 -0.366681
N2    N     N_R   0.507704 0.507046 0.147135 -0.366620
N3    N     N_R   0.034679 0.469925 0.545431 -0.085520
N4    N     N_R   0.965182 0.533218 0.459110 -0.085551
N5    N     N_R   0.965465 0.469913 0.545364 -0.085353
N6    N     N_R   0.034381 0.533225 0.459175 -0.085422
N7    N     N_R   0.500000 0.310560 0.500000 -0.114110
N8    N     N_R   0.500000 0.689440 0.500000 -0.111357
N9    N     N_R   0.560297 0.036006 0.493418 -0.136486
N10   N     N_R   0.439751 0.963129 0.506442 -0.133776
N11   N     N_R   0.439802 0.035988 0.506472 -0.140568
N12   N     N_R   0.560329 0.963147 0.493573 -0.137931
O1    O     O_R   0.398130 0.560830 0.500010 -0.599535
O2    O     O_R   0.601870 0.439170 0.499990 -0.605552
O3    O     O_R   0.601870 0.560830 0.499990 -0.602606
O4    O     O_R   0.398130 0.439170 0.500010 -0.608511
O5    O     O_R   0.499970 0.560830 0.416150 -0.633306
O6    O     O_R   0.500030 0.439170 0.583850 -0.626494
O7    O     O_R   0.500030 0.560830 0.583850 -0.605057
O8    O     O_R   0.499970 0.439170 0.416150 -0.598103
O9    O     O_2   0.626126 0.503857 0.849892 -0.444595
O10   O     O_2   0.387080 0.525047 0.150766 -0.449864
O11   O     O_2   0.381750 0.507667 0.853055 -0.511442
O12   O     O_2   0.629268 0.490834 0.147937 -0.508408
Zn1   Zn    Zn3+2 0.500000 0.581210 0.500000 1.018865
Zn2   Zn    Zn3+2 0.500000 0.418790 0.500000 1.019581
C57   C     C_1   0.385760 0.161861 0.448167 0.247569
N13   N     N_1   0.339020 0.133823 0.425882 -0.105605
C58   C     C_1   0.602402 0.838642 0.565855 0.240535
N14   N     N_1   0.644112 0.867264 0.593610 -0.108699
C59   C     C_1   0.614414 0.161893 0.551529 0.235404
N15   N     N_1   0.661175 0.133853 0.573764 -0.116865
C60   C     C_1   0.397577 0.838706 0.434300 0.223361
N16   N     N_1   0.355847 0.867374 0.406601 -0.120417
Cl1   Cl    Cl    0.295421 0.525281 0.060792 -0.416337
Cl2   Cl    Cl    0.716937 0.491066 0.939968 -0.414308
C61   C     C_1   0.554742 0.629684 0.208487 0.245174
N17   N     N_1   0.573196 0.681236 0.184524 -0.131992
C62   C     C_1   0.476026 0.634980 0.794284 0.247974
N18   N     N_1   0.466570 0.688501 0.819068 -0.128448
C63   C     C_1   0.561762 0.624220 0.328283 0.261050
N19   N     N_1   0.585745 0.673146 0.352486 -0.152890
C64   C     C_1   0.464250 0.633333 0.675133 0.321608
N20   N     N_1   0.447911 0.686652 0.652393 -0.128120
C65   C     C_1   0.454048 0.374410 0.321246 0.325609
N21   N     N_1   0.431754 0.322286 0.342101 -0.141833
C66   C     C_1   0.534795 0.368553 0.677869 0.266922
N22   N     N_1   0.549627 0.313962 0.656478 -0.182773
C67   C     C_1   0.463989 0.378487 0.201798 0.249362
N23   N     N_1   0.447150 0.328504 0.175107 -0.123680
C68   C     C_1   0.529521 0.372534 0.797313 0.245704
N24   N     N_1   0.540231 0.320210 0.823364 -0.129155
Cl3   Cl    Cl    0.301985 0.576885 0.601338 -0.497506
Cl4   Cl    Cl    0.700669 0.423645 0.399898 -0.485180
Cl5   Cl    Cl    0.698917 0.576359 0.601553 -0.513845
Cl6   Cl    Cl    0.297781 0.423006 0.400244 -0.522608
Cl7   Cl    Cl    0.137718 0.582194 0.600478 -0.398438
Cl8   Cl    Cl    0.865004 0.419822 0.403210 -0.396832
Cl9   Cl    Cl    0.863221 0.581769 0.600572 -0.395219
Cl10  Cl    Cl    0.133657 0.419041 0.403780 -0.395462

loop_
_geom_bond_atom_site_label_1
_geom_bond_atom_site_label_2
_ccdc_geom_bond_type
N4    N6    A    
C5    C63   S    
C59   N15   T    
C60   N16   T    
C43   O9    S    
C19   C23   A    
C67   N23   T    
C56   Cl2   S    
O5    Zn1   S    
C43   N1    A    
C47   C49   A    
C44   N2    A    
C48   C54   A    
C62   N18   T    
C17   C26   A    
C32   C36   A    
C15   C19   A    
C27   O5    A    
C15   C25   A    
C34   H6    S    
C7    C27   S    
C10   C66   S    
C51   C56   A    
C31   H3    S    
C24   C29   S    
C68   N24   T    
C41   N12   A    
C29   N5    A    
C20   C24   A    
N3    N5    A    
C38   C60   S    
C50   C52   A    
C65   N21   T    
C18   Cl6   S    
C3    C13   A    
C52   C55   A    
C17   Cl5   S    
C47   C53   A    
C44   C52   A    
C45   C47   A    
C19   Cl7   S    
C34   C38   A    
O6    Zn2   S    
C1    C25   S    
C1    O4    A    
C18   C25   A    
N8    Zn1   S    
C16   Cl4   S    
C22   Cl10  S    
C39   C42   S    
C46   C48   A    
C53   C55   A    
C16   C26   A    
C54   C56   A    
C11   C67   S    
C1    O1    A    
C23   C30   S    
C36   C40   A    
C4    C6    A    
C58   N14   T    
C5    C7    A    
C53   H1    S    
C32   N8    A    
C49   C51   A    
C45   N1    A    
C33   C37   A    
O2    Zn2   S    
C46   N2    A    
C35   C39   A    
C61   N17   T    
C16   C20   A    
C4    C62   S    
C55   Cl1   S    
C37   C59   S    
C2    C26   S    
C9    C11   A    
O7    Zn1   S    
N7    Zn2   S    
C10   C12   A    
C41   N10   A    
C35   C57   S    
C36   C58   S    
O1    Zn1   S    
C40   C41   S    
C12   C14   A    
C8    C28   S    
C15   Cl3   S    
C32   H4    S    
C20   Cl8   S    
C2    O2    A    
C12   C68   S    
C54   H2    S    
O4    Zn2   S    
C7    C9    A    
C34   N8    A    
C42   N11   A    
C28   O7    A    
C18   C22   A    
C27   O8    A    
N10   N11   A    
C3    C5    A    
N9    N12   A    
C6    C8    A    
C33   N7    A    
C9    C65   S    
C64   N20   T    
C44   O10   S    
C45   O11   S    
C4    C14   A    
C37   C39   A    
C2    O3    A    
C66   N22   T    
C38   C40   A    
C11   C13   A    
C43   C51   A    
C13   N2    S    
C33   H5    S    
O8    Zn2   S    
C14   N1    S    
C48   C50   A    
C42   N9    A    
C6    C64   S    
C31   C35   A    
C21   Cl9   S    
C28   O6    A    
C17   C21   A    
C30   N3    A    
C29   N4    A    
C3    C61   S    
C31   N7    A    
O3    Zn1   S    
C8    C10   A    
C49   C50   A    
C21   C24   A    
C63   N19   T    
C22   C23   A    
C57   N13   T    
C30   N6    A    
C46   O12   S    
