data_mof_unit_16810.cif
_audit_creation_date              2012-12-10T18:57:41-0500
_audit_creation_method            fapswitch 2.2
_symmetry_space_group_name_H-M    P1
_symmetry_Int_Tables_number       1
_space_group_crystal_system       triclinic
_cell_length_a                    10.928019
_cell_length_b                    10.822068
_cell_length_c                    9.542318
_cell_angle_alpha                 90.114959
_cell_angle_beta                  90.471476
_cell_angle_gamma                 90.262202
_cell_volume                      1128.45806937

loop_
_atom_site_label
_atom_site_type_symbol
_atom_type_description
_atom_site_fract_x
_atom_site_fract_y
_atom_site_fract_z
_atom_type_partial_charge
C1    C     C_R   0.497384 0.262317 0.499819 0.801319
C2    C     C_R   0.484705 0.129213 0.499353 -0.096422
C3    C     C_R   0.468297 0.064046 0.372892 -0.218355
C4    C     C_R   0.468629 0.935183 0.373010 -0.224154
C5    C     C_R   0.485465 0.870784 0.499578 -0.095969
C6    C     C_R   0.484425 0.936716 0.625365 0.133895
C7    C     C_3   0.570314 0.931532 0.747752 -0.479629
C8    C     C_3   0.568980 0.071768 0.748168 -0.459481
C9    C     C_R   0.555738 0.593517 0.074302 0.258124
C10   C     C_R   0.434792 0.414778 0.073660 -0.093666
C11   C     C_R   0.434834 0.414723 0.924748 -0.078169
C12   C     C_R   0.265117 0.502811 0.498876 0.835959
C13   C     C_R   0.555904 0.593394 0.926851 0.262134
C14   C     C_3   0.688033 0.627784 0.922280 -0.513218
C15   C     C_3   0.687812 0.627884 0.081078 -0.508995
C16   C     C_R   0.497813 0.737715 0.499981 0.792780
C17   C     C_R   0.734805 0.502974 0.500867 0.868211
C18   C     C_2   0.931875 0.516749 0.387062 -0.147349
C19   C     C_2   0.866471 0.518724 0.504695 -0.384063
C20   C     C_2   0.064008 0.542436 0.387269 0.176014
C21   C     C_2   0.132340 0.498898 0.495380 -0.384537
C22   C     C_R   0.483783 0.063897 0.625271 0.117561
Cu1   Cu    Cu3+1 0.499990 0.499980 0.640670 0.939065
Cu2   Cu    Cu3+1 0.500010 0.500020 0.359330 0.929902
H1    H     H_    0.887516 0.498647 0.287315 0.166534
H2    H     H_    0.658810 0.113911 0.721450 0.199759
H3    H     H_    0.383870 0.344405 0.128872 0.135559
H4    H     H_    0.384004 0.344233 0.868334 0.137718
H5    H     H_    0.746085 0.553710 0.877484 0.218013
H6    H     H_    0.703160 0.720942 0.877138 0.191108
H7    H     H_    0.744916 0.553157 0.125657 0.211767
H8    H     H_    0.702884 0.720974 0.127729 0.198114
H9    H     H_    0.908760 0.539750 0.605385 0.151410
H10   H     H_    0.089929 0.451750 0.582891 0.137548
H11   H     H_    0.461270 0.111940 0.273606 0.159586
H12   H     H_    0.461721 0.886768 0.273774 0.161931
H13   H     H_    0.526805 0.890341 0.841753 0.195390
H14   H     H_    0.660829 0.892477 0.719720 0.192352
H15   H     H_    0.524000 0.111543 0.841994 0.193349
N1    N     N_R   0.500780 0.500930 0.147930 -0.185770
N2    N     N_R   0.500780 0.500890 0.852020 -0.184129
O1    O     O_R   0.500000 0.319640 0.618810 -0.583509
O2    O     O_R   0.500010 0.319680 0.381230 -0.587216
O3    O     O_R   0.321940 0.499980 0.618760 -0.577930
O4    O     O_R   0.321950 0.500020 0.381180 -0.590898
O5    O     O_R   0.499990 0.680320 0.618770 -0.578447
O6    O     O_R   0.500000 0.680360 0.381190 -0.591055
O7    O     O_R   0.678050 0.499980 0.618820 -0.585421
O8    O     O_R   0.678060 0.500020 0.381240 -0.576909
C23   C     C_3   0.119888 0.612711 0.264406 -0.331388
C24   C     C_3   0.028061 0.686032 0.176002 -0.885275
H16   H     H_    0.969079 0.622784 0.113187 0.248358
H17   H     H_    0.970562 0.745291 0.243877 0.263293
H18   H     H_    0.078323 0.746386 0.101891 0.244706
H19   H     H_    0.187787 0.680669 0.305889 0.206593
H20   H     H_    0.167624 0.546757 0.194420 0.213901

loop_
_geom_bond_atom_site_label_1
_geom_bond_atom_site_label_2
_ccdc_geom_bond_type
C10   H3    S    
C2    C22   A    
C8    C22   S    
Cu1   Cu2   S    
C4    H12   S    
C15   H7    S    
C6    C7    S    
C21   H10   S    
C8    H15   S    
C8    H2    S    
C23   H19   S    
Cu1   N2    S    
C17   O7    A    
C3    H11   S    
C24   H18   S    
C13   N2    A    
C23   C24   S    
C7    H13   S    
C15   H8    S    
C12   O3    A    
Cu1   O5    S    
C13   C14   S    
Cu1   O1    S    
C18   H1    S    
C11   H4    S    
C14   H6    S    
C20   C23   S    
Cu2   O4    S    
C16   O6    A    
C17   C19   S    
C7    H14   S    
C11   N2    A    
C18   C20   S    
C9    C15   S    
C5    C6    A    
C10   C11   A    
C14   H5    S    
C16   O5    A    
C24   H16   S    
C6    C22   A    
C1    O1    A    
C7    C8    S    
C20   C21   D    
C10   N1    A    
C1    C2    S    
C19   H9    S    
C17   O8    A    
Cu2   O8    S    
C12   O4    A    
Cu2   O2    S    
C9    C13   A    
C14   C15   S    
C18   C19   D    
C5    C16   S    
C2    C3    A    
Cu1   O7    S    
Cu2   N1    S    
Cu2   O6    S    
C12   C21   S    
C1    O2    A    
C9    N1    A    
C23   H20   S    
Cu1   O3    S    
C3    C4    A    
C4    C5    A    
C24   H17   S    
