data_mof_unit_67927.cif
_audit_creation_date              2012-12-10T19:00:00-0500
_audit_creation_method            fapswitch 2.2
_symmetry_space_group_name_H-M    P1
_symmetry_Int_Tables_number       1
_space_group_crystal_system       triclinic
_cell_length_a                    10.77454
_cell_length_b                    10.810581
_cell_length_c                    10.013557
_cell_angle_alpha                 90.199329
_cell_angle_beta                  89.068545
_cell_angle_gamma                 89.0091
_cell_volume                      1166.03270485

loop_
_atom_site_label
_atom_site_type_symbol
_atom_type_description
_atom_site_fract_x
_atom_site_fract_y
_atom_site_fract_z
_atom_type_partial_charge
C1    C     C_R   0.504062 0.260221 0.499269 0.880883
C2    C     C_R   0.545552 0.065204 0.614188 -0.306518
C3    C     C_R   0.514205 0.871786 0.501606 -0.087717
C4    C     C_R   0.513677 0.127107 0.497028 -0.106554
C5    C     C_R   0.533713 0.602411 0.069691 0.284911
C6    C     C_R   0.454384 0.401010 0.928729 0.263479
C7    C     C_R   0.535636 0.600742 0.927387 -0.210428
C8    C     C_R   0.459901 0.400340 0.072387 -0.158620
C9    C     C_R   0.260669 0.514318 0.500965 0.872001
C10   C     C_R   0.740115 0.490007 0.499386 0.866725
C11   C     C_R   0.152876 0.766141 0.118663 0.253577
C12   C     C_R   0.504183 0.739416 0.500641 0.878035
C13   C     C_R   0.814244 0.246068 0.863266 0.242786
C14   C     C_R   0.112345 0.715972 0.241132 0.206220
C15   C     C_R   0.871439 0.297782 0.749083 0.154992
C16   C     C_R   0.116421 0.585993 0.258602 0.041114
C17   C     C_R   0.887013 0.427885 0.742493 0.108610
C18   C     C_R   0.160488 0.509071 0.155113 -0.139054
C19   C     C_R   0.847894 0.502617 0.849727 -0.121332
C20   C     C_R   0.203694 0.560095 0.036769 -0.172735
C21   C     C_R   0.789589 0.450557 0.959636 -0.219951
C22   C     C_R   0.203448 0.687857 0.019745 -0.260273
C23   C     C_R   0.875092 0.483126 0.499474 -0.199624
C24   C     C_R   0.771521 0.324017 0.966166 -0.171341
C25   C     C_R   0.940998 0.492453 0.379028 0.158488
C26   C     C_R   0.058710 0.528523 0.622390 0.166625
C27   C     C_3   0.223996 0.973400 0.152995 -0.821283
C28   C     C_3   0.871921 0.053286 0.968555 -0.819700
C29   C     C_3   0.941748 0.834854 0.341147 -0.799844
C30   C     C_3   0.041366 0.183276 0.643358 -0.809437
C31   C     C_3   0.910929 0.308407 0.249635 -0.803793
C32   C     C_3   0.059084 0.728905 0.729606 -0.862599
C33   C     C_3   0.578981 0.082392 0.154438 -0.808254
C34   C     C_R   0.126457 0.531367 0.501779 -0.206178
C35   C     C_3   0.730695 0.826366 0.702696 -0.805012
C36   C     C_3   0.690869 0.738628 0.149152 -0.818578
C37   C     C_3   0.320822 0.214014 0.929251 -0.927345
C38   C     C_R   0.938201 0.486430 0.620885 -0.025752
C39   C     C_R   0.063497 0.529627 0.380334 -0.043834
C40   C     C_R   0.494584 0.060552 0.378485 0.223776
C41   C     C_R   0.553940 0.937151 0.615035 0.230003
C42   C     C_R   0.485020 0.934149 0.384749 -0.300541
H1    H     H_    0.240589 0.726577 0.928372 0.157014
H2    H     H_    0.317565 0.955313 0.108146 0.226823
H3    H     H_    0.226766 0.958405 0.262465 0.267254
H4    H     H_    0.196121 0.071259 0.135851 0.240015
H5    H     H_    0.791980 0.071463 0.782960 0.255307
H6    H     H_    0.848206 0.953798 0.971584 0.241507
H7    H     H_    0.857337 0.092463 0.070080 0.248550
H8    H     H_    0.971084 0.061812 0.939272 0.244365
H9    H     H_    0.097953 0.771089 0.440059 0.226782
H10   H     H_    0.922515 0.906961 0.418333 0.242144
H11   H     H_    0.881324 0.754895 0.362098 0.233113
H12   H     H_    0.724747 0.287051 0.052616 0.170141
H13   H     H_    0.920106 0.874766 0.242004 0.265290
H14   H     H_    0.881121 0.244913 0.549553 0.226639
H15   H     H_    0.100303 0.265138 0.626256 0.241482
H16   H     H_    0.061179 0.114642 0.562696 0.242957
H17   H     H_    0.065315 0.140213 0.740188 0.248782
H18   H     H_    0.161139 0.409488 0.166537 0.146092
H19   H     H_    0.858318 0.601636 0.846471 0.156354
H20   H     H_    0.916580 0.488298 0.175571 0.231281
H21   H     H_    0.953743 0.284278 0.151134 0.235957
H22   H     H_    0.820288 0.262215 0.260883 0.247667
H23   H     H_    0.235567 0.499698 0.957500 0.153135
H24   H     H_    0.974145 0.271039 0.327140 0.238687
H25   H     H_    0.184675 0.586172 0.765251 0.255656
H26   H     H_    0.025494 0.759653 0.829769 0.246236
H27   H     H_    0.982843 0.745996 0.658156 0.258474
H28   H     H_    0.139753 0.785563 0.699093 0.234044
H29   H     H_    0.397419 0.127644 0.218245 0.215601
H30   H     H_    0.577622 0.147251 0.069527 0.248066
H31   H     H_    0.558945 0.989550 0.114749 0.230601
H32   H     H_    0.672707 0.082401 0.198849 0.250930
H33   H     H_    0.600208 0.926715 0.814934 0.224235
H34   H     H_    0.757088 0.508774 0.040222 0.172360
H35   H     H_    0.792276 0.897512 0.659202 0.233660
H36   H     H_    0.728875 0.746997 0.632520 0.260684
H37   H     H_    0.770428 0.793989 0.798062 0.221998
H38   H     H_    0.513992 0.788396 0.092318 0.191045
H39   H     H_    0.736933 0.747829 0.049680 0.209290
H40   H     H_    0.736415 0.663254 0.205970 0.269292
H41   H     H_    0.701650 0.826175 0.205478 0.249656
H42   H     H_    0.339721 0.342059 0.780109 0.278912
H43   H     H_    0.273731 0.153647 0.856564 0.257837
H44   H     H_    0.248951 0.257893 0.995475 0.235584
H45   H     H_    0.456794 0.885001 0.296593 0.191133
H46   H     H_    0.384148 0.154010 0.986404 0.264125
H47   H     H_    0.569407 0.116241 0.703250 0.188977
H48   H     H_    0.564640 0.681691 0.873636 0.188485
H49   H     H_    0.424148 0.324014 0.128538 0.177534
H50   H     H_    0.126632 0.913213 0.991007 0.214474
N1    N     N_R   0.499970 0.499970 0.857200 -0.126368
N2    N     N_2   0.606754 0.876490 0.727165 -0.299491
N3    N     N_2   0.560330 0.714684 0.134818 -0.259599
N4    N     N_2   0.389975 0.307120 0.858047 -0.273894
N5    N     N_R   0.500030 0.500030 0.142800 -0.105759
N6    N     N_2   0.135525 0.894018 0.091254 -0.296881
N7    N     N_2   0.794354 0.116705 0.873224 -0.318030
N8    N     N_2   0.070710 0.796784 0.345983 -0.307491
N9    N     N_2   0.911319 0.218493 0.642288 -0.331671
N10   N     N_2   0.892044 0.441475 0.260760 -0.277901
N11   N     N_2   0.095504 0.599080 0.734542 -0.296245
N12   N     N_2   0.486230 0.120140 0.253006 -0.291125
O1    O     O_R   0.499990 0.316750 0.614620 -0.625290
O2    O     O_R   0.500010 0.683250 0.385380 -0.594294
O3    O     O_R   0.499990 0.316780 0.385290 -0.600549
O4    O     O_R   0.500010 0.683220 0.614710 -0.605874
O5    O     O_R   0.316760 0.500000 0.614660 -0.666192
O6    O     O_R   0.683240 0.500000 0.385340 -0.590387
O7    O     O_R   0.316760 0.500020 0.385330 -0.603941
O8    O     O_R   0.683240 0.499980 0.614670 -0.615936
Zn1   Zn    Zn3+2 0.500000 0.499980 0.653120 0.934660
Zn2   Zn    Zn3+2 0.500000 0.500020 0.346880 0.970101

loop_
_geom_bond_atom_site_label_1
_geom_bond_atom_site_label_2
_ccdc_geom_bond_type
C9    O7    A    
C31   H24   S    
H29   N12   S    
C3    C42   A    
C33   N12   S    
C37   H46   S    
H50   N6    S    
C27   N6    S    
C21   H34   S    
O2    Zn2   S    
C11   N6    S    
C37   H43   S    
C19   C21   A    
H14   N9    S    
C11   C14   A    
C25   N10   S    
C2    C41   A    
C24   H12   S    
C30   H15   S    
H5    N7    S    
H42   N4    S    
C3    C12   S    
C33   H30   S    
C28   H8    S    
C27   H2    S    
C26   C34   A    
C3    C41   A    
C22   H1    S    
C36   H40   S    
O1    Zn1   S    
C10   O8    A    
O6    Zn2   S    
O5    Zn1   S    
C32   H26   S    
C27   H3    S    
C40   C42   A    
O8    Zn1   S    
C5    N3    S    
C9    O5    A    
C7    N1    A    
H25   N11   S    
C34   C39   A    
C31   N10   S    
C31   H21   S    
C20   H23   S    
C5    C7    A    
C26   C38   A    
C6    C8    A    
C29   H13   S    
C7    H48   S    
C35   H35   S    
C13   C24   A    
O4    Zn1   S    
C13   N7    S    
C2    H47   S    
C2    C4    A    
C8    N5    A    
O3    Zn2   S    
C4    C40   A    
C26   N11   S    
C40   N12   S    
C28   H7    S    
C37   H44   S    
C41   N2    S    
C36   H39   S    
C6    N1    A    
C30   H17   S    
C32   N11   S    
C8    H49   S    
N1    Zn1   S    
C15   N9    S    
H38   N3    S    
C1    O3    A    
C27   H4    S    
C33   H31   S    
C5    N5    A    
C6    N4    S    
C13   C15   A    
C9    C34   S    
C14   C16   A    
C28   N7    S    
C12   O4    A    
C35   N2    S    
C18   H18   S    
H9    N8    S    
C15   C17   A    
C28   H6    S    
C35   H36   S    
C29   N8    S    
C31   H22   S    
C20   C22   A    
C32   H28   S    
C14   N8    S    
C32   H27   S    
C10   C23   S    
C23   C38   A    
C11   C22   A    
C1    C4    S    
C25   C39   A    
C12   O2    A    
C36   N3    S    
C29   H11   S    
C19   H19   S    
C30   H16   S    
C30   N9    S    
C35   H37   S    
C17   C19   A    
C10   O6    A    
O7    Zn2   S    
C18   C20   A    
C17   C38   S    
C23   C25   A    
C16   C39   S    
C33   H32   S    
C37   N4    S    
C16   C18   A    
C21   C24   A    
C42   H45   S    
C36   H41   S    
N5    Zn2   S    
H33   N2    S    
C1    O1    A    
H20   N10   S    
C29   H10   S    
