data_mof_unit_15359.cif
_audit_creation_date              2012-12-10T17:50:11-0500
_audit_creation_method            fapswitch 2.2
_symmetry_space_group_name_H-M    P1
_symmetry_Int_Tables_number       1
_space_group_crystal_system       triclinic
_cell_length_a                    10.653607
_cell_length_b                    14.724693
_cell_length_c                    14.706364
_cell_angle_alpha                 64.451031
_cell_angle_beta                  103.871865
_cell_angle_gamma                 102.539133
_cell_volume                      2003.61281527

loop_
_atom_site_label
_atom_site_type_symbol
_atom_type_description
_atom_site_fract_x
_atom_site_fract_y
_atom_site_fract_z
_atom_type_partial_charge
C1    C     C_R   0.476472 0.120238 0.311400 0.866147
C2    C     C_R   0.522544 0.880251 0.688567 0.878173
C3    C     C_R   0.494615 0.294027 0.171947 0.505820
C4    C     C_R   0.532184 0.710623 0.832017 0.462877
C5    C     C_R   0.449436 0.362733 0.072555 -0.159362
C6    C     C_R   0.490612 0.641543 0.924906 -0.175609
C7    C     C_R   0.399574 0.325859 0.994973 -0.304563
C8    C     C_R   0.487592 0.678394 0.998725 -0.290691
C9    C     C_R   0.455693 0.467560 0.048483 -0.112787
C10   C     C_R   0.454381 0.536929 0.946006 -0.125224
C11   C     C_R   0.403158 0.500224 0.867610 0.451995
C12   C     C_R   0.447157 0.504140 0.121593 0.446497
C13   C     C_R   0.376825 0.395324 0.892270 0.427868
C14   C     C_R   0.467160 0.608837 0.097833 0.420521
C15   C     C_R   0.729438 0.282923 0.665898 0.346661
C16   C     C_R   0.233782 0.687870 0.388947 0.341524
C17   C     C_R   0.689228 0.201952 0.635914 0.648922
C18   C     C_R   0.289558 0.781539 0.392656 0.627534
C19   C     C_R   0.514584 0.284104 0.514853 0.810310
C20   C     C_R   0.493859 0.722431 0.471412 0.807525
C21   C     C_R   0.544918 0.366359 0.546344 -0.242442
C22   C     C_R   0.442269 0.622481 0.476523 -0.221994
C23   C     C_R   0.260174 0.999790 0.501061 0.925679
C24   C     C_R   0.739706 0.000857 0.497910 0.957029
C25   C     C_R   0.661343 0.368888 0.616733 -0.339560
C26   C     C_R   0.309286 0.606475 0.433037 -0.274064
C27   C     C_R   0.465208 0.446199 0.509592 -0.149757
C28   C     C_R   0.516864 0.538281 0.523467 -0.152499
C29   C     C_R   0.633945 0.537924 0.593595 0.592876
C30   C     C_R   0.330082 0.430657 0.474475 0.608320
C31   C     C_R   0.705585 0.456009 0.638095 0.418017
C32   C     C_R   0.252865 0.509067 0.436838 0.469261
C33   C     C_3   0.018640 0.907037 0.516029 0.454950
C34   C     C_3   0.981156 0.094802 0.480941 0.500898
C35   C     C_3   0.927738 0.973299 0.423875 0.483376
C36   C     C_3   0.071942 0.028614 0.573070 0.487866
C37   C     C_3   0.875701 0.001318 0.496609 -0.477327
C38   C     C_3   0.124063 0.000342 0.500781 -0.469000
C39   C     C_3   0.967169 0.935479 0.588329 0.274334
C40   C     C_3   0.032995 0.066311 0.408792 0.254480
C41   C     C_R   0.454236 0.188976 0.201439 -0.351749
C42   C     C_R   0.525083 0.814137 0.798359 -0.340962
C43   C     C_R   0.370016 0.220321 0.022613 0.572981
C44   C     C_R   0.502404 0.784145 0.970427 0.597446
C45   C     C_R   0.386818 0.152852 0.125757 0.292871
C46   C     C_R   0.512403 0.851469 0.869234 0.281323
Cu1   Cu    Cu3+1 0.465750 0.918270 0.475680 1.128095
Cu2   Cu    Cu3+1 0.534250 0.081730 0.524320 1.124068
N1    N     N_R   0.585750 0.204560 0.560800 -0.341115
N2    N     N_R   0.414250 0.795440 0.439200 -0.319089
O1    O     O_R   0.454850 0.022100 0.338110 -0.524053
O2    O     O_R   0.545150 0.977900 0.661890 -0.527900
O3    O     O_R   0.512700 0.160150 0.379180 -0.503793
O4    O     O_R   0.487300 0.839850 0.620820 -0.545516
O5    O     O_R   0.287930 0.931000 0.479440 -0.521658
O6    O     O_R   0.712070 0.069000 0.520560 -0.517336
O7    O     O_R   0.345780 0.069050 0.520520 -0.533041
O8    O     O_R   0.654220 0.930950 0.479480 -0.493590
F1    F     F_    0.851617 0.944993 0.347540 -0.595277
F2    F     F_    0.146285 0.058285 0.648888 -0.597681
F3    F     F_    0.623890 0.751074 0.487302 -0.558234
F4    F     F_    0.421504 0.286264 0.433277 -0.564244
F5    F     F_    0.218220 0.859808 0.347318 -0.638835
F6    F     F_    0.755756 0.120494 0.681602 -0.567154
O9    O     O_3   0.837781 0.278075 0.740927 -0.485852
C47   C     C_3   0.797027 0.226712 0.837119 -0.109973
H1    H     H_    0.755355 0.146618 0.850908 0.190090
H2    H     H_    0.725300 0.266625 0.845064 0.121914
H3    H     H_    0.883253 0.225283 0.897333 0.176789
O10   O     O_3   0.108544 0.678089 0.336013 -0.553279
C48   C     C_3   0.017166 0.680180 0.390421 -0.063373
H4    H     H_    0.002202 0.759500 0.369466 0.252536
H5    H     H_    0.045184 0.641121 0.474792 0.130772
H6    H     H_    0.922111 0.639933 0.368219 0.143257
F7    F     F_    0.669949 0.607682 0.634874 -0.596927
F8    F     F_    0.266763 0.335296 0.493653 -0.577815
F9    F     F_    0.040104 0.811155 0.533416 -0.662762
F10   F     F_    0.959953 0.190696 0.463844 -0.590724
O11   O     O_3   0.924962 0.869480 0.681832 -0.509516
C49   C     C_3   0.022969 0.808720 0.746094 -0.203492
H7    H     H_    0.120802 0.853881 0.750640 0.144966
H8    H     H_    0.025572 0.748196 0.720872 0.185571
H9    H     H_    0.999443 0.770959 0.824577 0.153576
O12   O     O_3   0.079105 0.131680 0.316704 -0.540087
C50   C     C_3   0.982448 0.191835 0.249069 -0.285211
H10   H     H_    0.971609 0.249541 0.275369 0.180307
H11   H     H_    0.887191 0.145310 0.238424 0.191238
H12   H     H_    0.013824 0.233234 0.173255 0.155865
O13   O     O_3   0.319033 0.361686 0.815587 -0.494470
C51   C     C_3   0.417929 0.358044 0.769011 -0.111467
H13   H     H_    0.488395 0.305846 0.824867 0.137300
H14   H     H_    0.470111 0.434952 0.731638 0.153583
H15   H     H_    0.372316 0.328600 0.709243 0.210197
O14   O     O_3   0.454682 0.642616 0.169326 -0.519874
C52   C     C_3   0.570875 0.633260 0.241296 -0.141277
H16   H     H_    0.657621 0.674409 0.203620 0.157642
H17   H     H_    0.583963 0.552290 0.288934 0.166918
H18   H     H_    0.564714 0.668033 0.293367 0.194718
O15   O     O_3   0.588811 0.678900 0.776963 -0.473528
C53   C     C_3   0.714284 0.654988 0.831300 -0.123452
H19   H     H_    0.770290 0.714520 0.858389 0.124493
H20   H     H_    0.771276 0.650269 0.780058 0.249639
H21   H     H_    0.707563 0.579970 0.896875 0.114947
O16   O     O_3   0.580404 0.330064 0.239696 -0.490436
C54   C     C_3   0.708634 0.329146 0.230367 -0.302234
H22   H     H_    0.729678 0.381585 0.152647 0.131825
H23   H     H_    0.726822 0.251012 0.248662 0.140673
H24   H     H_    0.777331 0.355695 0.286266 0.206146
O17   O     O_3   0.520193 0.954525 0.842637 -0.535300
C55   C     C_3   0.392623 0.980016 0.817429 -0.073907
H25   H     H_    0.334839 0.958912 0.754010 0.132967
H26   H     H_    0.398456 0.063482 0.790859 0.211307
H27   H     H_    0.342028 0.943709 0.885015 0.194249
O18   O     O_3   0.343386 0.050743 0.150974 -0.508514
C56   C     C_3   0.206782 0.035534 0.145995 -0.038702
H28   H     H_    0.181075 0.049581 0.207426 0.188759
H29   H     H_    0.170224 0.955561 0.157306 0.222046
H30   H     H_    0.155281 0.083580 0.070252 0.150746
F11   F     F_    0.318838 0.181326 0.951001 -0.601119
F12   F     F_    0.501170 0.823299 0.038589 -0.589320
O19   O     O_3   0.366145 0.564829 0.766865 -0.519798
C57   C     C_3   0.249389 0.601234 0.757540 -0.241685
H31   H     H_    0.269890 0.667915 0.777884 0.138491
H32   H     H_    0.179652 0.542243 0.805137 0.127487
H33   H     H_    0.201248 0.626946 0.676427 0.192920
O20   O     O_3   0.406730 0.439315 0.213711 -0.499631
C58   C     C_3   0.270697 0.411369 0.195689 -0.209335
H34   H     H_    0.217849 0.478973 0.161610 0.110235
H35   H     H_    0.239079 0.360137 0.269729 0.246050
H36   H     H_    0.242727 0.368411 0.146008 0.132518
O21   O     O_3   0.818420 0.460973 0.706399 -0.541133
C59   C     C_3   0.922422 0.508980 0.650949 -0.183068
H37   H     H_    0.926887 0.592796 0.620993 0.193837
H38   H     H_    0.917406 0.485182 0.587509 0.163257
H39   H     H_    0.014067 0.486289 0.703555 0.195549
O22   O     O_3   0.118416 0.485960 0.419482 -0.521019
C60   C     C_3   0.078577 0.471995 0.327308 -0.149941
H40   H     H_    0.090708 0.394418 0.339640 0.203655
H41   H     H_    0.130038 0.530657 0.264873 0.142195
H42   H     H_    0.973197 0.479404 0.301733 0.156851

loop_
_geom_bond_atom_site_label_1
_geom_bond_atom_site_label_2
_ccdc_geom_bond_type
C3    O16   S    
C25   C31   A    
C47   H2    S    
C26   C32   A    
O20   C58   S    
C34   C37   S    
C40   O12   S    
C52   H16   S    
Cu2   O6    S    
O18   C56   S    
C52   H18   S    
Cu2   O7    S    
C50   H10   S    
C54   H23   S    
C33   C39   S    
C34   C40   S    
C28   C29   A    
C35   C37   S    
C17   F6    S    
C18   F5    S    
C15   C25   A    
C47   H3    S    
C12   O20   S    
C44   F12   S    
C19   F4    S    
C56   H28   S    
C15   O9    S    
C35   F1    S    
C42   C46   A    
C20   F3    S    
C1    O3    A    
C55   H25   S    
C31   O21   S    
C45   O18   S    
Cu1   Cu2   S    
C59   H37   S    
C56   H29   S    
C20   N2    A    
O10   C48   S    
C7    C43   A    
C9    C10   A    
C47   H1    S    
C21   C27   A    
C38   C40   S    
C22   C28   A    
C27   C30   A    
C11   O19   S    
C49   H9    S    
O16   C54   S    
C54   H24   S    
C44   C46   A    
Cu1   N2    S    
C50   H11   S    
C16   C26   A    
Cu2   O3    S    
C60   H42   S    
C16   O10   S    
O12   C50   S    
C4    C6    A    
C2    O4    A    
C17   N1    A    
C5    C7    A    
O22   C60   S    
Cu1   O1    S    
C3    C5    A    
C53   H21   S    
C39   O11   S    
C58   H35   S    
C5    C9    A    
C30   F8    S    
C19   N1    A    
C51   H14   S    
O15   C53   S    
C7    C13   A    
C29   C31   A    
C56   H30   S    
C53   H20   S    
C24   C37   S    
C16   C18   A    
C43   C45   A    
C55   H27   S    
O19   C57   S    
C2    O2    A    
Cu1   O4    S    
C1    C41   S    
Cu2   N1    S    
C12   C14   A    
C32   O22   S    
C4    O15   S    
C57   H32   S    
O21   C59   S    
C18   N2    A    
C51   H15   S    
Cu1   O5    S    
C54   H22   S    
C50   H12   S    
C23   O7    A    
C21   C25   A    
C3    C41   A    
C8    C14   A    
C13   O13   S    
C60   H41   S    
C36   C39   S    
C8    C44   A    
C20   C22   A    
C49   H7    S    
C36   F2    S    
C6    C10   A    
C48   H6    S    
C6    C8    A    
C52   H17   S    
C23   O5    A    
C29   F7    S    
C24   O6    A    
C23   C38   S    
C60   H40   S    
C33   C38   S    
C1    O1    A    
C57   H33   S    
C36   C38   S    
C35   C40   S    
C57   H31   S    
C58   H36   S    
C48   H4    S    
C37   C39   S    
O17   C55   S    
C34   F10   S    
Cu1   O8    S    
C30   C32   A    
C11   C13   A    
C33   F9    S    
C51   H13   S    
C4    C42   A    
C2    C42   S    
C59   H39   S    
C59   H38   S    
C53   H19   S    
C33   C35   S    
C49   H8    S    
C34   C36   S    
O14   C52   S    
C9    C12   A    
C55   H26   S    
C10   C11   A    
O11   C49   S    
Cu2   O2    S    
C24   O8    A    
O9    C47   S    
C22   C26   A    
C46   O17   S    
C48   H5    S    
C27   C28   A    
C41   C45   A    
O13   C51   S    
C15   C17   A    
C14   O14   S    
C58   H34   S    
C43   F11   S    
C19   C21   A    
