data_mof_unit_37094.cif
_audit_creation_date              2012-10-26T21:01:05-0400
_audit_creation_method            fapswitch 2.2
_symmetry_space_group_name_H-M    P1
_symmetry_Int_Tables_number       1
_space_group_crystal_system       triclinic
_cell_length_a                    10.932914
_cell_length_b                    10.861442
_cell_length_c                    9.546882
_cell_angle_alpha                 89.970739
_cell_angle_beta                  89.807996
_cell_angle_gamma                 90.208112
_cell_volume                      1133.65161543

loop_
_atom_site_label
_atom_site_type_symbol
_atom_type_description
_atom_site_fract_x
_atom_site_fract_y
_atom_site_fract_z
_atom_type_partial_charge
C1    C     C_R   0.499900 0.262709 0.499871 0.551979
C2    C     C_R   0.430648 0.418624 0.074741 -0.020373
C3    C     C_R   0.430558 0.418692 0.925881 -0.016152
C4    C     C_R   0.265326 0.498032 0.500281 0.555931
C5    C     C_R   0.561266 0.589494 0.925786 0.146398
C6    C     C_3   0.694976 0.616111 0.918070 -0.256309
C7    C     C_3   0.695363 0.616223 0.077360 -0.150562
C8    C     C_R   0.500147 0.737289 0.499819 0.547645
C9    C     C_R   0.734680 0.501412 0.499947 0.551712
C10   C     C_2   0.933424 0.488820 0.386137 -0.161862
C11   C     C_2   0.866682 0.508231 0.501867 -0.119689
C12   C     C_R   0.499948 0.130084 0.498161 0.009985
C13   C     C_2   0.067237 0.495606 0.385418 -0.161439
C14   C     C_2   0.133318 0.490916 0.503162 -0.118112
C15   C     C_R   0.500698 0.061942 0.621027 0.020563
C16   C     C_3   0.725747 0.741640 0.141530 -0.410480
C17   C     C_R   0.499304 0.064614 0.370388 -0.163756
C18   C     C_R   0.499334 0.935484 0.370404 -0.167866
C19   C     C_R   0.500331 0.869912 0.498158 0.007071
C20   C     C_R   0.501120 0.937975 0.621053 0.021219
C21   C     C_3   0.501482 0.929130 0.776823 -0.267612
C22   C     C_3   0.500875 0.070924 0.776727 -0.270866
C23   C     C_R   0.561008 0.589928 0.073362 0.176179
Cu1   Cu    Cu3+1 0.499990 0.499980 0.640670 0.934483
Cu2   Cu    Cu3+1 0.500010 0.500020 0.359330 0.930521
H1    H     H_    0.889287 0.468657 0.287196 0.135920
H2    H     H_    0.091822 0.478297 0.605276 0.098595
H3    H     H_    0.498543 0.112371 0.270770 0.131714
H4    H     H_    0.498230 0.887811 0.270836 0.133636
H5    H     H_    0.415854 0.887454 0.818725 0.141983
H6    H     H_    0.587713 0.889204 0.817603 0.129219
H7    H     H_    0.414756 0.111081 0.818372 0.127526
H8    H     H_    0.666386 0.815133 0.098021 0.122808
H9    H     H_    0.713209 0.737862 0.256809 0.172500
H10   H     H_    0.822756 0.765149 0.119104 0.128892
H11   H     H_    0.586687 0.112605 0.817429 0.140385
H12   H     H_    0.376366 0.351158 0.130807 0.113328
H13   H     H_    0.376133 0.351357 0.870319 0.111626
H14   H     H_    0.748231 0.538445 0.873381 0.140650
H15   H     H_    0.714393 0.706923 0.868934 0.122041
H16   H     H_    0.749138 0.539198 0.121882 0.149628
H17   H     H_    0.907585 0.531934 0.601395 0.094491
H18   H     H_    0.112049 0.502139 0.283924 0.146537
N1    N     N_R   0.500780 0.500930 0.147930 -0.238135
N2    N     N_R   0.500780 0.500890 0.852020 -0.234529
O1    O     O_R   0.500000 0.319640 0.618810 -0.504082
O2    O     O_R   0.500010 0.319680 0.381230 -0.513514
O3    O     O_R   0.321940 0.499980 0.618760 -0.503228
O4    O     O_R   0.321950 0.500020 0.381180 -0.499323
O5    O     O_R   0.499990 0.680320 0.618770 -0.497015
O6    O     O_R   0.500000 0.680360 0.381190 -0.509517
O7    O     O_R   0.678050 0.499980 0.618820 -0.506905
O8    O     O_R   0.678060 0.500020 0.381240 -0.503841

loop_
_geom_bond_atom_site_label_1
_geom_bond_atom_site_label_2
_ccdc_geom_bond_type
C12   C17   A    
Cu1   O7    S    
Cu2   O6    S    
C6    C7    S    
C16   H8    S    
C9    C11   S    
C21   H5    S    
Cu2   O2    S    
C19   C20   A    
C5    C23   A    
C12   C15   A    
C4    O4    A    
Cu1   O1    S    
C10   H1    S    
C2    C3    A    
C18   H4    S    
C21   C22   S    
C20   C21   S    
Cu1   O5    S    
C21   H6    S    
C2    H12   S    
C5    C6    S    
C9    O7    A    
C22   H7    S    
C7    C23   S    
Cu1   N2    S    
Cu2   N1    S    
C7    C16   S    
Cu2   O8    S    
C17   C18   A    
Cu2   O4    S    
C7    H16   S    
C16   H10   S    
C4    C14   S    
C15   C20   A    
C14   H2    S    
C6    H15   S    
C1    O1    A    
C8    C19   S    
C9    O8    A    
C10   C11   D    
Cu1   O3    S    
C8    O5    A    
C13   H18   S    
C22   H11   S    
Cu1   Cu2   S    
C11   H17   S    
C18   C19   A    
C4    O3    A    
C8    O6    A    
C6    H14   S    
C1    O2    A    
C16   H9    S    
C13   C14   D    
C17   H3    S    
C5    N2    A    
C3    N2    A    
C15   C22   S    
C1    C12   S    
C23   N1    A    
C3    H13   S    
C2    N1    A    
C10   C13   S    
