data_mof_unit_50734.cif
_audit_creation_date              2013-03-05T15:45:31-0500
_audit_creation_method            fapswitch 2.2
_symmetry_space_group_name_H-M    P1
_symmetry_Int_Tables_number       1
_space_group_crystal_system       triclinic
_cell_length_a                    9.884147
_cell_length_b                    11.012763
_cell_length_c                    13.36457
_cell_angle_alpha                 96.345935
_cell_angle_beta                  80.890536
_cell_angle_gamma                 112.27388
_cell_volume                      1327.19459027

loop_
_atom_site_label
_atom_site_type_symbol
_atom_site_description
_atom_site_fract_x
_atom_site_fract_y
_atom_site_fract_z
_atom_type_partial_charge
O1    O     O_R   0.426290 0.668220 0.490680 -0.543323
O2    O     O_R   0.659360 0.703290 0.520190 -0.499093
C1    C     C_R   0.560060 0.747152 0.504118 0.859002
O3    O     O_R   0.326580 0.473880 0.629020 -0.505726
O4    O     O_R   0.559660 0.508940 0.658530 -0.552815
C2    C     C_R   0.419646 0.481674 0.690497 0.899199
Cu1   Cu    Cu3+1 0.362000 0.479240 0.482530 1.135890
Cu2   Cu    Cu3+1 0.638000 0.520760 0.517470 1.160507
O5    O     O_R   0.340640 0.296710 0.479810 -0.558330
O6    O     O_R   0.573710 0.331780 0.509320 -0.560887
O7    O     O_R   0.440340 0.491060 0.341470 -0.563911
O8    O     O_R   0.673420 0.526120 0.370980 -0.552857
C3    C     C_R   0.442868 0.254097 0.490425 0.861408
C4    C     C_R   0.579105 0.512655 0.308962 0.837914
C5    C     C_R   0.797796 0.659747 0.063997 -0.126103
H1    H     H_    0.902996 0.733917 0.038855 0.232149
C6    C     C_R   0.630157 0.531084 0.199451 -0.154542
C7    C     C_R   0.237629 0.340046 0.825256 0.294974
C8    C     C_R   0.230795 0.272427 0.909308 -0.205301
C9    C     C_R   0.344577 0.315121 0.969839 0.369674
C10   C     C_R   0.453788 0.443975 0.959480 -0.045501
C11   C     C_R   0.463985 0.512132 0.872586 -0.145068
C12   C     C_R   0.555609 0.506937 0.030128 0.095060
C13   C     C_R   0.685014 0.615145 0.001552 -0.089847
C14   C     C_R   0.692548 0.684124 0.917199 0.284504
C15   C     C_R   0.573309 0.639701 0.860001 0.275090
C16   C     C_R   0.523896 0.477058 0.132449 -0.129126
C17   C     C_R   0.775085 0.612147 0.160428 0.406794
C18   C     C_R   0.366181 0.451235 0.798874 -0.119868
H2    H     H_    0.413035 0.417049 0.161743 0.206474
H3    H     H_    0.141779 0.178853 0.922814 0.240904
C19   C     C_2   0.597676 0.890476 0.503477 0.185407
C20   C     C_2   0.507666 0.934801 0.465133 0.222879
H4    H     H_    0.373267 0.076646 0.395231 0.197235
C21   C     C_2   0.418201 0.115970 0.465748 -0.288988
C22   C     C_2   0.476087 0.051595 0.515443 0.340879
H5    H     H_    0.879926 0.422610 0.429590 0.150028
N1    N     N_2   0.845330 0.551960 0.543750 -0.074762
C23   C     C_2   0.925530 0.490800 0.491499 0.012996
H6    H     H_    0.095605 0.366079 0.414319 0.213385
N2    N     N_2   0.154690 0.448120 0.456210 -0.316106
C24   C     C_2   0.083456 0.520176 0.504158 0.443257
S1    S     S_3+6 0.930145 0.657984 0.226956 0.071623
O9    O     O_2   0.944113 0.535617 0.255869 -0.312158
O10   O     O_2   0.068942 0.734600 0.161698 -0.200696
O11   O     O_3   0.908807 0.751066 0.331850 -0.452601
H7    H     H_    0.981762 0.749691 0.374269 0.405537
S2    S     S_3+6 0.465071 0.877229 0.338784 0.040829
O12   O     O_2   0.525187 0.772720 0.297500 -0.299996
O13   O     O_2   0.301141 0.823806 0.337355 -0.221655
O14   O     O_3   0.542500 0.004127 0.262705 -0.529838
H8    H     H_    0.512142 0.967224 0.195192 0.401081
S3    S     S_3+6 0.775806 0.002336 0.529145 0.134806
O15   O     O_2   0.813248 0.129246 0.479701 -0.295753
O16   O     O_2   0.779861 0.029982 0.641304 -0.101308
O17   O     O_3   0.904020 0.938185 0.483417 -0.452099
H9    H     H_    0.998691 0.006361 0.499558 0.401619
N3    N     N_R   0.159772 0.638627 0.560763 0.165535
O18   O     O_R   0.184728 0.633608 0.652498 -0.217094
O19   O     O_R   0.171773 0.751008 0.530699 -0.314103
N4    N     N_R   0.882592 0.610332 0.638096 0.277516
O20   O     O_R   0.900627 0.733342 0.657489 -0.185394
O21   O     O_R   0.863617 0.537008 0.712986 -0.262957
N5    N     N_R   0.806908 0.810458 0.901145 0.167442
O22   O     O_R   0.940393 0.819479 0.865178 -0.215773
O23   O     O_R   0.780712 0.916550 0.932098 -0.262612
S4    S     S_3+6 0.087342 0.274296 0.752953 0.127509
O24   O     O_2   0.041729 0.381997 0.728655 -0.206683
O25   O     O_2   0.130500 0.208233 0.655645 -0.205112
O26   O     O_3   0.942406 0.162713 0.818162 -0.397134
H10   H     H_    0.904898 0.214503 0.872983 0.370348
S5    S     S_3+6 0.359130 0.192285 0.038916 0.044333
O27   O     O_2   0.264449 0.182093 0.139817 -0.288238
O28   O     O_2   0.304999 0.061827 0.980528 -0.182518
O29   O     O_3   0.535246 0.226947 0.056100 -0.512276
H11   H     H_    0.529324 0.176733 0.114764 0.384225
N6    N     N_R   0.554149 0.728171 0.797092 0.116943
O30   O     O_R   0.424762 0.734365 0.799667 -0.287656
O31   O     O_R   0.665352 0.805670 0.740081 -0.224492
S6    S     S_3+6 0.489817 0.094626 0.647506 0.098243
O32   O     O_2   0.633288 0.206010 0.660725 -0.201496
O33   O     O_2   0.365505 0.137512 0.694217 -0.269838
O34   O     O_3   0.478619 0.965183 0.708358 -0.431126
H12   H     H_    0.493666 0.999646 0.779066 0.429560

loop_
_geom_bond_atom_site_label_1
_geom_bond_atom_site_label_2
_geom_bond_distance
_ccdc_geom_bond_type
H6    N2    1.030790 S    
C11   C18   1.420843 A    
N2    C24   1.305507 D    
C21   C22   1.342746 D    
O29   H11   0.990301 S    
C8    H3    1.082662 S    
C24   N3    1.435107 S    
Cu1   Cu2   2.698111 S    
S3    O15   1.503866 D    
Cu1   O7    1.919932 S    
C3    C21   1.454494 S    
S5    O29   1.682901 S    
N1    C23   1.301991 D    
S6    O32   1.503204 D    
O7    C4    1.308972 A    
N3    O19   1.300296 A    
C5    H1    1.080504 S    
C20   C22   1.500200 S    
O17   H9    0.990644 S    
H4    C21   1.081419 S    
N4    O21   1.301305 A    
O5    C3    1.296500 A    
S2    O14   1.682091 S    
C8    C9    1.394081 A    
C12   C13   1.411521 A    
O26   H10   0.990679 S    
C12   C16   1.400734 A    
N1    N4    1.388215 S    
S2    O13   1.502182 D    
C10   C11   1.421432 A    
C16   H2    1.078479 S    
C4    C6    1.480547 S    
N4    O20   1.299250 A    
Cu2   N1    2.026922 S    
O3    Cu1   1.936955 S    
C14   C15   1.406503 A    
C23   C24   1.502861 S    
S3    O16   1.500020 D    
C15   N6    1.436441 S    
S4    O24   1.500793 D    
C6    C16   1.401890 A    
C13   C14   1.404770 A    
S5    O28   1.503642 D    
C22   S6    1.788933 S    
C7    C8    1.394174 A    
N3    O18   1.299253 A    
N6    O30   1.301163 A    
O14   H8    0.990730 S    
O1    C1    1.305945 A    
C14   N5    1.434027 S    
N5    O23   1.300706 A    
S1    O9    1.502476 D    
O34   H12   0.990749 S    
Cu2   O8    1.936954 S    
N6    O31   1.297890 A    
C7    C18   1.418565 A    
S1    O10   1.503652 D    
S6    O33   1.501464 D    
C5    C13   1.403305 A    
O8    C4    1.300270 A    
C10   C12   1.418550 A    
O3    C2    1.300952 A    
C19   S3    1.785714 S    
S6    O34   1.677483 S    
S3    O17   1.678285 S    
Cu1   O5    1.936801 S    
O11   H7    0.990568 S    
S2    O12   1.502125 D    
O1    Cu1   1.927765 S    
C6    C17   1.420534 A    
O2    Cu2   1.936798 S    
S5    O27   1.503697 D    
O6    C3    1.298119 A    
O4    Cu2   1.919931 S    
C17   S1    1.772040 S    
S4    O26   1.681875 S    
C19   C20   1.349549 D    
O2    C1    1.300724 A    
C7    S4    1.774567 S    
H5    C23   1.084352 S    
N5    O22   1.300797 A    
C5    C17   1.398075 A    
O4    C2    1.309216 A    
Cu1   N2    2.027102 S    
C1    C19   1.478766 S    
S1    O11   1.677236 S    
C2    C18   1.490028 S    
C9    C10   1.425829 A    
Cu2   O6    1.927768 S    
C11   C15   1.418980 A    
C20   S2    1.793522 S    
C9    S5    1.780035 S    
S4    O25   1.500995 D    
