data_mof_unit_47135.cif
_audit_creation_date              2013-03-05T16:20:47-0500
_audit_creation_method            fapswitch 2.2
_symmetry_space_group_name_H-M    P1
_symmetry_Int_Tables_number       1
_space_group_crystal_system       triclinic
_cell_length_a                    8.387364
_cell_length_b                    18.710905
_cell_length_c                    18.960262
_cell_angle_alpha                 104.247341
_cell_angle_beta                  93.109324
_cell_angle_gamma                 90.922976
_cell_volume                      2878.43161481

loop_
_atom_site_label
_atom_site_type_symbol
_atom_site_description
_atom_site_fract_x
_atom_site_fract_y
_atom_site_fract_z
_atom_type_partial_charge
P1    P     P_3+3 0.941030 0.670050 0.569830 0.456964
O1    O     O_2   0.114280 0.679350 0.549180 -0.365472
O2    O     O_3   0.866400 0.589600 0.543550 -0.420293
O3    O     O_3   0.362150 0.623490 0.415650 -0.359408
O4    O     O_2   0.265663 0.753353 0.484797 -0.384739
O5    O     O_3   0.958026 0.695755 0.665317 -0.558995
O6    O     O_3   0.294336 0.740796 0.348951 -0.504957
H1    H     H_    0.430342 0.677386 0.270981 0.090646
C1    C     C_3   0.336291 0.772406 0.237964 -0.069816
H2    H     H_    0.223403 0.742431 0.213342 0.190711
H3    H     H_    0.308009 0.830435 0.263982 0.145246
P2    P     P_3+3 0.370400 0.428500 0.331430 0.596946
P3    P     P_3+3 0.916901 0.577231 0.285887 0.450543
O7    O     O_2   0.197490 0.449210 0.322030 -0.308556
O8    O     O_3   0.950520 0.583920 0.376610 -0.364046
O9    O     O_2   0.027424 0.516061 0.249025 -0.382710
O10   O     O_3   0.421015 0.337429 0.284459 -0.693032
O11   O     O_3   0.984582 0.660670 0.270249 -0.500700
C2    C     C_3   0.886409 0.715994 0.308071 0.445853
H4    H     H_    0.902600 0.721930 0.367897 0.092749
H5    H     H_    0.758749 0.703043 0.289984 0.004073
C3    C     C_3   0.928169 0.789974 0.292943 -0.835491
H6    H     H_    0.048308 0.810053 0.317666 0.250886
H7    H     H_    0.924690 0.784966 0.233312 0.296822
C4    C     C_3   0.802807 0.356268 0.301611 0.257723
H8    H     H_    0.700752 0.385343 0.328728 0.052809
H9    H     H_    0.903594 0.396371 0.305443 0.164524
C5    C     C_3   0.753212 0.319952 0.220908 -0.057751
H10   H     H_    0.636849 0.291633 0.216244 0.101398
H11   H     H_    0.834305 0.275683 0.197291 0.227158
Ba1   Ba    Ba6+2 0.155460 0.532000 0.467920 1.633446
C6    C     C_3   0.995286 0.634191 0.691823 0.384104
H12   H     H_    0.110342 0.612684 0.671542 0.083636
H13   H     H_    0.900638 0.590322 0.674768 0.141390
C7    C     C_3   0.008648 0.657259 0.774748 -0.853270
H14   H     H_    0.109961 0.697555 0.793871 0.278501
H15   H     H_    0.028822 0.608456 0.797090 0.211925
H16   H     H_    0.896313 0.682832 0.795535 0.271186
C8    C     C_3   0.337113 0.274253 0.292546 0.919062
C9    C     C_3   0.451326 0.208046 0.275470 -0.124577
H17   H     H_    0.563498 0.223117 0.309910 0.099078
H18   H     H_    0.485139 0.197176 0.218228 0.126445
P4    P     P_3+3 0.869270 0.329940 0.430110 0.568569
O12   O     O_2   0.696020 0.320600 0.450800 -0.343678
O13   O     O_3   0.943900 0.410390 0.456390 -0.370531
O14   O     O_3   0.448150 0.376500 0.584290 -0.339802
O15   O     O_3   0.850136 0.300014 0.334629 -0.535442
P5    P     P_3+3 0.891821 0.420372 0.716107 0.453193
O16   O     O_3   0.365880 0.544470 0.588730 -0.396672
O17   O     O_3   0.859790 0.416060 0.623340 -0.355664
O18   O     O_2   0.783195 0.482396 0.754031 -0.405963
O19   O     O_3   0.804049 0.340344 0.731899 -0.529309
Ba2   Ba    Ba6+2 0.654730 0.467990 0.532020 1.652921
P6    P     P_3+3 0.381429 0.719008 0.426517 0.457499
C10   C     C_3   0.406932 0.736137 0.296056 0.111840
H19   H     H_    0.520324 0.766163 0.319591 0.074635
O20   O     O_3   0.444420 0.455520 0.411210 -0.362490
C11   C     C_3   0.501541 0.698358 0.647411 0.391235
H20   H     H_    0.624517 0.678849 0.637375 0.091246
H21   H     H_    0.423619 0.679764 0.596615 0.127367
C12   C     C_3   0.507412 0.782271 0.668359 -0.863082
H22   H     H_    0.586423 0.802897 0.718454 0.277775
H23   H     H_    0.554759 0.803531 0.623685 0.211744
H24   H     H_    0.385458 0.803255 0.678403 0.264167
P7    P     P_3+3 0.434207 0.576195 0.679976 0.443998
O21   O     O_2   0.612810 0.550740 0.677950 -0.360521
O22   O     O_3   0.440523 0.672768 0.704562 -0.553991
H25   H     H_    0.840320 0.831203 0.317575 0.222431
C13   C     C_3   0.920595 0.292353 0.748449 1.029255
H26   H     H_    0.044109 0.311478 0.744737 -0.314111
C14   C     C_3   0.903623 0.285900 0.826585 -0.889280
H27   H     H_    0.793829 0.253691 0.830101 0.283013
H28   H     H_    0.008140 0.257920 0.844852 0.269790
H29   H     H_    0.896265 0.341374 0.864186 0.206015
P8    P     P_3+3 0.429631 0.283149 0.581988 0.591260
C15   C     C_3   0.378900 0.301650 0.716848 0.192682
H30   H     H_    0.267570 0.267300 0.701369 0.078042
O23   O     O_2   0.557538 0.244536 0.531307 -0.285270
O24   O     O_3   0.496008 0.273793 0.668277 -0.438250
H31   H     H_    0.355796 0.359686 0.716238 0.035356
H32   H     H_    0.349955 0.330578 0.833098 0.036627
C16   C     C_3   0.436045 0.301130 0.794592 0.176617
H33   H     H_    0.553753 0.330498 0.808984 0.111812
C17   C     C_R   0.994614 0.956422 0.542559 0.049549
C18   C     C_R   0.088269 0.905339 0.568384 -0.125179
C19   C     C_R   0.192232 0.062781 0.589544 0.353083
C20   C     C_R   0.050456 0.030520 0.547776 -0.097929
C21   C     C_R   0.254911 0.129952 0.582433 -0.210483
C22   C     C_R   0.169579 0.173773 0.544704 -0.063427
C23   C     C_R   0.020452 0.146741 0.508555 0.092984
C24   C     C_R   0.961410 0.074646 0.509295 0.073056
C25   C     C_R   0.224378 0.246109 0.546534 0.147055
C26   C     C_R   0.123381 0.292496 0.518025 -0.317030
C27   C     C_R   0.981076 0.265870 0.476926 0.285624
C28   C     C_R   0.930636 0.191552 0.471174 -0.036811
C29   C     C_R   0.841828 0.931197 0.508471 0.068168
C30   C     C_R   0.785051 0.857576 0.504649 0.012385
C31   C     C_R   0.879941 0.809849 0.535812 -0.062045
C32   C     C_R   0.026867 0.837149 0.571295 -0.035128
H34   H     H_    0.162107 0.349102 0.523425 0.178008
H35   H     H_    0.365136 0.150469 0.613230 0.222732
H36   H     H_    0.101418 0.805591 0.599534 0.176134
C33   C     C_R   0.791798 0.160834 0.430101 -0.023174
C34   C     C_R   0.732175 0.091739 0.431986 -0.158548
C35   C     C_R   0.811369 0.048135 0.472984 0.063588
C36   C     C_R   0.747002 0.978188 0.476582 0.061120
C37   C     C_R   0.590101 0.953373 0.449269 -0.135141
C38   C     C_R   0.632535 0.832155 0.470860 -0.019027
C39   C     C_R   0.534501 0.882193 0.446624 -0.170749
C40   C     C_R   0.582709 0.757636 0.463131 0.136030
C41   C     C_R   0.682897 0.710446 0.490168 -0.515059
C42   C     C_R   0.827753 0.735681 0.528385 0.250347
H37   H     H_    0.725338 0.189967 0.396516 0.157759
H38   H     H_    0.413794 0.866912 0.424624 0.169395
H39   H     H_    0.643244 0.653946 0.484888 0.178124
H40   H     H_    0.212902 0.915025 0.584896 0.163604
H41   H     H_    0.623842 0.073141 0.399368 0.186270
H42   H     H_    0.505514 0.988319 0.430368 0.156826
C43   C     C_R   0.350874 0.547044 0.812582 -0.261688
H43   H     H_    0.430658 0.593445 0.837090 0.171747
C44   C     C_R   0.318937 0.531061 0.737237 0.274859
C45   C     C_R   0.163303 0.449981 0.818738 -0.354171
H44   H     H_    0.111390 0.412637 0.846765 0.144693
C46   C     C_R   0.101416 0.449424 0.748247 0.215956
C47   C     C_R   0.639941 0.564691 0.195759 -0.284114
H45   H     H_    0.718450 0.592258 0.168811 0.126335
C48   C     C_R   0.706375 0.552542 0.260185 0.222436
C49   C     C_R   0.403545 0.495983 0.208704 -0.172984
H46   H     H_    0.295742 0.464483 0.186286 0.177694
C50   C     C_R   0.466278 0.489062 0.278486 0.342428
C51   C     C_R   0.282806 0.502799 0.854739 0.093484
C52   C     C_R   0.189948 0.484075 0.705552 -0.439745
H47   H     H_    0.151593 0.478695 0.649015 0.148035
C53   C     C_R   0.485319 0.539142 0.167197 0.074742
C54   C     C_R   0.616920 0.519747 0.303720 -0.457609
H48   H     H_    0.670037 0.513263 0.354958 0.147430
C55   C     C_R   0.048566 0.502829 0.968544 -0.166602
C56   C     C_R   0.940670 0.495034 0.018950 -0.146641
C57   C     C_R   0.986196 0.516749 0.091899 0.077218
C58   C     C_R   0.141668 0.541158 0.114686 -0.085216
C59   C     C_R   0.261036 0.532464 0.065064 0.046244
C60   C     C_R   0.213668 0.515827 0.988667 0.148278
C61   C     C_R   0.421890 0.549356 0.091329 0.000984
C62   C     C_R   0.521237 0.569840 0.040106 0.051780
C63   C     C_R   0.488258 0.539681 0.964054 0.104554
C64   C     C_R   0.329896 0.515462 0.936116 -0.030915
C65   C     C_R   0.638146 0.627613 0.059874 -0.273618
C66   C     C_R   0.745457 0.640198 0.009946 0.616017
C67   C     C_R   0.736893 0.594675 0.939467 -0.273347
C68   C     C_R   0.613306 0.541926 0.917842 -0.292392
H49   H     H_    0.996143 0.501402 0.915464 0.141183
H50   H     H_    0.817762 0.478313 0.001991 0.154684
H51   H     H_    0.898658 0.516648 0.130315 0.162977
H52   H     H_    0.169330 0.568906 0.170979 0.170662
H53   H     H_    0.641004 0.666327 0.112552 0.200442
H54   H     H_    0.823694 0.600496 0.900909 0.186650
H55   H     H_    0.609699 0.506961 0.863192 0.201602
N1    N     N_R   0.746970 0.372256 0.175487 0.235532
O25   O     O_R   0.614017 0.378409 0.139195 -0.397656
O26   O     O_R   0.879411 0.393428 0.153469 -0.348506
S1    S     S_3+6 0.172754 0.254960 0.225630 0.033777
O27   O     O_2   0.044460 0.211294 0.250115 -0.242451
O28   O     O_2   0.109135 0.326283 0.215493 -0.290021
O29   O     O_3   0.231167 0.206245 0.144727 -0.457469
H56   H     H_    0.300335 0.240937 0.127276 0.360971
N2    N     N_R   0.286912 0.285764 0.366266 0.198369
O30   O     O_R   0.175692 0.331919 0.385297 -0.405376
O31   O     O_R   0.388314 0.275975 0.416856 -0.395410
S2    S     S_3+6 0.375989 0.121059 0.287298 0.047446
O32   O     O_2   0.330790 0.127896 0.364228 -0.279880
O33   O     O_2   0.233343 0.093515 0.235883 -0.122603
O34   O     O_3   0.518430 0.058072 0.267650 -0.470471
H57   H     H_    0.619873 0.086625 0.270047 0.333528
N3    N     N_R   0.446572 0.772247 0.181209 0.247475
O35   O     O_R   0.584767 0.806608 0.197683 -0.362919
O36   O     O_R   0.396276 0.749283 0.113092 -0.310791
N4    N     N_R   0.897874 0.219610 0.697782 0.225830
O37   O     O_R   0.798129 0.209425 0.641011 -0.329864
O38   O     O_R   0.985582 0.165402 0.706477 -0.366241
S3    S     S_3+6 0.449967 0.209553 0.806121 0.035985
O39   O     O_2   0.512611 0.213438 0.882820 -0.252028
O40   O     O_2   0.287557 0.172109 0.793292 -0.190515
O41   O     O_3   0.574846 0.161460 0.746965 -0.442792
H58   H     H_    0.610424 0.120719 0.768348 0.405982
N5    N     N_R   0.262232 0.035205 0.647919 0.242740
O42   O     O_R   0.174175 0.023442 0.698626 -0.285380
O43   O     O_R   0.416231 0.028827 0.654540 -0.365270
S4    S     S_3+6 0.895088 0.710022 0.037722 -0.004224
O44   O     O_2   0.996935 0.694608 0.099640 -0.324153
O45   O     O_2   0.997733 0.712850 0.975817 -0.259702
O46   O     O_3   0.808005 0.791513 0.066533 -0.440171
H59   H     H_    0.896056 0.826342 0.090742 0.395038

loop_
_geom_bond_atom_site_label_1
_geom_bond_atom_site_label_2
_geom_bond_distance
_ccdc_geom_bond_type
C47   C53   1.407158 A    
O5    C6    1.398805 S    
C10   H19   1.110231 S    
C26   C27   1.403158 A    
C68   H55   1.079294 S    
C20   C24   1.424449 A    
C37   C39   1.392259 A    
S2    O32   1.502450 D    
C60   C64   1.430175 A    
C34   C35   1.408802 A    
C2    H4    1.112758 S    
C17   C20   1.434540 A    
O6    C10   1.402728 S    
O7    Ba1   2.861737 S    
C55   C60   1.417205 A    
C49   H46   1.078619 S    
H32   C16   1.109052 S    
C23   C24   1.433069 A    
C54   H48   1.081573 S    
O34   H57   0.990263 S    
C4    C5    1.544721 S    
P6    C40   1.854983 S    
O16   P7    1.746387 S    
P3    O11   1.750748 S    
S4    O46   1.681071 S    
O29   H56   0.990851 S    
C33   H37   1.074934 S    
C67   H54   1.082007 S    
C48   C54   1.386532 A    
O11   C2    1.410664 S    
C13   H26   1.102079 S    
C59   C61   1.415620 A    
P1    C42   1.860049 S    
C17   C29   1.422392 A    
C19   C21   1.394275 A    
N5    O43   1.301191 A    
C36   C37   1.415485 A    
C57   H51   1.062187 S    
C11   H21   1.111399 S    
C61   C62   1.430105 A    
C30   C31   1.418312 A    
P1    Ba1   3.422023 S    
P4    C27   1.890551 S    
C38   C39   1.399782 A    
C46   C52   1.391074 A    
C51   C64   1.530898 S    
S4    O45   1.503456 D    
P1    O1    1.543443 D    
O10   C8    1.410731 S    
C13   C14   1.529712 S    
C24   C35   1.421808 A    
N3    O35   1.300873 A    
C9    S2    1.805709 S    
O19   C13   1.412097 S    
C13   N4    1.462858 S    
C53   C61   1.563435 S    
C40   C41   1.395888 A    
C30   C38   1.419339 A    
O12   Ba2   2.845186 S    
N1    O26   1.297170 A    
P5    O18   1.545414 D    
C65   C66   1.398938 A    
C28   C33   1.397347 A    
C52   H47   1.082197 S    
N4    O38   1.300112 A    
P2    O10   1.787286 S    
C43   C51   1.417815 A    
C15   O24   1.401044 S    
C1    C10   1.528021 S    
P7    C44   1.834526 S    
C8    S1    1.791419 S    
C65   H53   1.078703 S    
C1    H2    1.111330 S    
C4    O15   1.402927 S    
C37   H42   1.077970 S    
C63   C68   1.409219 A    
S3    O41   1.681025 S    
C55   H49   1.070177 S    
C11   C12   1.521117 S    
C9    H18   1.107387 S    
C47   H45   1.056411 S    
O13   Ba2   2.966654 S    
N2    O31   1.296126 A    
S2    O33   1.501224 D    
C27   C28   1.423329 A    
Ba1   O16   2.775090 S    
C62   C65   1.413174 A    
H1    C10   1.110335 S    
C5    N1    1.453894 S    
O14   P8    1.740663 S    
S1    O28   1.496881 D    
P4    Ba2   3.422548 S    
C63   C64   1.426990 A    
C45   H44   1.076240 S    
C43   C44   1.395551 A    
C17   C18   1.408243 A    
O17   Ba2   2.731120 S    
C31   C42   1.419447 A    
O46   H59   0.990592 S    
C6    C7    1.521911 S    
O4    P6    1.537447 D    
C23   C28   1.424013 A    
C7    H16   1.110857 S    
C15   H30   1.108694 S    
C15   C16   1.527482 S    
C8    C9    1.559337 S    
C14   H28   1.110670 S    
Ba2   O20   2.774546 S    
C19   C20   1.430025 A    
P7    O22   1.750670 S    
C4    H8    1.103659 S    
C16   H33   1.109318 S    
Ba1   Ba2   4.557755 S    
P1    O5    1.752312 S    
S4    O44   1.502288 D    
P1    O2    1.572455 S    
C7    H14   1.110574 S    
C6    H13   1.108625 S    
C12   H24   1.110840 S    
P4    O12   1.543815 D    
O41   H58   0.990394 S    
C18   C32   1.383036 A    
C49   C53   1.447557 A    
P4    O13   1.572458 S    
C57   C58   1.385000 A    
C29   C30   1.433721 A    
C2    C3    1.520450 S    
C12   H23   1.109343 S    
C1    N3    1.456027 S    
C58   C59   1.395036 A    
C22   C25   1.414023 A    
O2    Ba1   2.965872 S    
Ba2   O21   2.861977 S    
C1    H3    1.111698 S    
C26   H34   1.081537 S    
C3    H25   1.111047 S    
P2    C50   1.885881 S    
P8    C25   1.871519 S    
P2    O20   1.562283 S    
C39   H38   1.080230 S    
C9    H17   1.106901 S    
C50   C54   1.389535 A    
P2    O7    1.519618 D    
N4    O37   1.300399 A    
P3    O8    1.701273 S    
P2    Ba1   3.442277 S    
N1    O25   1.300052 A    
S2    O34   1.683032 S    
C3    H7    1.110007 S    
C4    H9    1.108598 S    
C44   C52   1.393972 A    
C45   C46   1.404831 A    
C45   C51   1.417417 A    
S1    O29   1.682739 S    
S3    O39   1.503328 D    
C7    H15   1.108855 S    
C34   H41   1.073355 S    
C35   C36   1.426247 A    
C29   C36   1.415365 A    
C5    H10   1.091803 S    
S3    O40   1.501665 D    
C41   C42   1.393464 A    
O3    P6    1.751740 S    
C18   H40   1.074270 S    
C21   H35   1.078287 S    
C15   H31   1.108883 S    
C62   C63   1.423167 A    
C49   C50   1.433589 A    
P5    C46   1.856659 S    
C14   H29   1.109983 S    
C43   H43   1.080041 S    
O8    Ba1   2.730288 S    
C66   S4    1.759567 S    
C55   C56   1.382677 A    
C56   H50   1.080799 S    
C6    H12   1.103477 S    
Ba1   O20   2.952100 S    
C8    N2    1.447746 S    
C5    H11   1.103555 S    
C11   H20   1.110205 S    
C14   H27   1.106443 S    
S1    O27   1.501160 D    
C67   C68   1.392287 A    
O2    Ba2   2.821379 S    
N5    O42   1.301615 A    
N2    O30   1.286587 A    
P4    O15   1.755919 S    
O16   Ba2   2.951317 S    
O14   Ba2   2.800099 S    
P5    O17   1.746578 S    
C25   C26   1.402861 A    
C38   C40   1.419253 A    
C66   C67   1.394178 A    
P7    O21   1.578793 D    
C12   H22   1.110547 S    
P8    O23   1.546390 D    
N3    O36   1.300970 A    
O3    Ba1   2.800680 S    
C56   C57   1.372976 A    
P3    C48   1.827117 S    
C11   O22   1.404645 S    
P5    O19   1.755819 S    
C32   H36   1.075873 S    
C21   C22   1.395811 A    
C19   N5    1.433985 S    
C31   C32   1.397427 A    
Ba1   O13   2.820812 S    
P3    O9    1.538996 D    
C16   S3    1.784801 S    
C33   C34   1.388019 A    
C47   C48   1.386066 A    
C3    H6    1.107299 S    
O1    Ba1   2.844643 S    
C41   H39   1.082209 S    
O6    P6    1.746659 S    
C22   C23   1.416342 A    
C59   C60   1.436859 A    
P8    O24   1.750026 S    
C58   H52   1.076591 S    
C2    H5    1.110712 S    
