data_mof_unit_24357.cif
_audit_creation_date              2013-03-05T16:12:09-0500
_audit_creation_method            fapswitch 2.2
_symmetry_space_group_name_H-M    P1
_symmetry_Int_Tables_number       1
_space_group_crystal_system       triclinic
_cell_length_a                    10.781516
_cell_length_b                    9.440637
_cell_length_c                    27.785714
_cell_angle_alpha                 90.251374
_cell_angle_beta                  89.463626
_cell_angle_gamma                 90.075376
_cell_volume                      2827.99820106

loop_
_atom_site_label
_atom_site_type_symbol
_atom_site_description
_atom_site_fract_x
_atom_site_fract_y
_atom_site_fract_z
_atom_type_partial_charge
O1    O     O_R   0.317570 0.620260 0.500030 -0.571224
O2    O     O_R   0.317570 0.379740 0.500030 -0.548942
C1    C     C_R   0.260178 0.500078 0.501249 0.934394
O3    O     O_R   0.499900 0.620250 0.430280 -0.553605
O4    O     O_R   0.499900 0.379750 0.430280 -0.548017
C2    C     C_R   0.498463 0.499507 0.407542 0.919098
Cu1   Cu    Cu3+1 0.499860 0.642410 0.500020 1.031105
Cu2   Cu    Cu3+1 0.499860 0.357590 0.500020 1.025914
O5    O     O_R   0.682190 0.620260 0.500010 -0.556289
O6    O     O_R   0.682190 0.379740 0.500010 -0.528026
O7    O     O_R   0.499860 0.620280 0.569750 -0.530058
O8    O     O_R   0.499860 0.379720 0.569750 -0.588654
C3    C     C_R   0.739917 0.500344 0.502336 0.921115
C4    C     C_R   0.501947 0.500486 0.592487 0.883002
C5    C     C_R   0.369730 0.513491 0.178519 0.668085
O9    O     O_2   0.266548 0.542534 0.204559 -0.423605
N1    N     N_R   0.478529 0.487673 0.201854 -0.446383
C6    C     C_R   0.585193 0.457324 0.176990 0.593066
C7    C     C_R   0.548840 0.596335 0.276947 -0.289010
C8    C     C_R   0.557483 0.598774 0.327262 0.325126
C9    C     C_R   0.419650 0.393092 0.331272 0.190058
C10   C     C_R   0.418948 0.386125 0.280253 0.383691
C11   C     C_R   0.480721 0.490953 0.253572 0.228519
C12   C     C_R   0.477484 0.492065 0.101590 -0.131346
C13   C     C_R   0.365820 0.511761 0.127705 -0.076764
C14   C     C_R   0.253703 0.523133 0.102477 0.429011
C15   C     C_R   0.586637 0.458916 0.126537 -0.049511
C16   C     C_R   0.492409 0.497042 0.354532 -0.154637
C17   C     C_R   0.505618 0.502430 0.645456 -0.051750
C18   C     C_R   0.371950 0.548189 0.974207 0.012963
C19   C     C_R   0.598668 0.511109 0.975062 -0.028787
C20   C     C_R   0.486407 0.528483 0.949358 -0.050724
C21   C     C_R   0.267031 0.592001 0.946990 0.279477
C22   C     C_R   0.271253 0.589513 0.895939 0.359634
C23   C     C_R   0.380623 0.547689 0.871708 -0.098457
C24   C     C_R   0.489897 0.528481 0.898298 -0.131897
C25   C     C_R   0.603907 0.511642 0.873678 -0.083927
C26   C     C_R   0.605743 0.501904 0.823360 0.573383
N2    N     N_R   0.498037 0.512082 0.798156 -0.473384
C27   C     C_R   0.386917 0.535734 0.820953 0.611826
C28   C     C_R   0.448109 0.394184 0.721627 -0.097021
C29   C     C_R   0.449853 0.391782 0.671465 -0.272693
C30   C     C_R   0.563180 0.615061 0.670390 0.391510
C31   C     C_R   0.560454 0.616421 0.720960 -0.184513
C32   C     C_R   0.502679 0.506912 0.746517 0.289382
O10   O     O_2   0.283386 0.548140 0.794398 -0.440870
C33   C     C_R   0.368567 0.529907 0.025361 0.065497
C34   C     C_R   0.480032 0.503388 0.050592 0.003766
C35   C     C_R   0.593503 0.483008 0.025237 0.005364
C36   C     C_R   0.256294 0.524641 0.052015 -0.221215
H1    H     H_    0.405292 0.304800 0.652985 0.168617
O11   O     O_2   0.689552 0.425404 0.201107 -0.505402
C37   C     C_R   0.693080 0.420240 0.100742 -0.234572
C38   C     C_R   0.712663 0.527949 0.949242 0.472336
C39   C     C_R   0.714410 0.515639 0.899432 -0.127363
O12   O     O_2   0.714340 0.481943 0.799729 -0.508541
C40   C     C_R   0.695082 0.423238 0.050359 0.389217
C41   C     C_3   0.074419 0.651823 0.517048 0.236915
C42   C     C_3   0.073812 0.391435 0.540650 0.134535
C43   C     C_3   0.930071 0.654640 0.517512 0.642593
C44   C     C_3   0.928045 0.391386 0.542229 0.648857
C45   C     C_3   0.071787 0.463654 0.450976 0.585659
C46   C     C_3   0.122481 0.500877 0.502599 -0.228851
C47   C     C_3   0.878466 0.501369 0.504032 -0.217992
C48   C     C_3   0.927695 0.458200 0.453130 -0.564213
C49   C     C_3   0.624614 0.083817 0.487958 0.216430
C50   C     C_3   0.623226 0.916179 0.486215 0.269981
H2    H     H_    0.689707 0.113211 0.517092 0.162336
H3    H     H_    0.692594 0.881600 0.512886 0.140933
C51   C     C_3   0.468257 0.085031 0.549627 0.282965
C52   C     C_3   0.472435 0.916206 0.549941 0.268120
C53   C     C_3   0.407027 0.082516 0.467257 -0.223876
C54   C     C_3   0.404379 0.915945 0.468417 -0.256808
N3    N     N_3   0.500250 0.143650 0.501060 -0.200970
N4    N     N_3   0.500250 0.856350 0.501060 -0.203202
O13   O     O_3   0.347479 0.303765 0.359151 -0.712464
H4    H     H_    0.273714 0.274832 0.340535 0.365484
H5    H     H_    0.597399 0.674860 0.255561 0.176579
H6    H     H_    0.773869 0.382184 0.119629 0.193111
O14   O     O_3   0.821682 0.570790 0.970519 -0.694464
H7    H     H_    0.800489 0.623919 0.000320 0.332473
O15   O     O_3   0.623426 0.720421 0.644927 -0.741538
H8    H     H_    0.658613 0.790252 0.667824 0.328785
H9    H     H_    0.803128 0.519394 0.880801 0.213607
H10   H     H_    0.602858 0.702815 0.740659 0.145599
O16   O     O_3   0.790514 0.357603 0.025256 -0.683609
H11   H     H_    0.852444 0.320471 0.048146 0.333027
H12   H     H_    0.109758 0.728917 0.489796 0.102902
H13   H     H_    0.107949 0.284410 0.529870 0.104208
O17   O     O_3   0.122516 0.693119 0.561990 -0.569554
H14   H     H_    0.112749 0.797521 0.564439 0.362676
O18   O     O_3   0.123605 0.422269 0.586239 -0.610846
H15   H     H_    0.123017 0.332796 0.604908 0.332438
O19   O     O_3   0.889577 0.693874 0.564223 -0.611871
H16   H     H_    0.803759 0.730502 0.562601 0.355188
O20   O     O_3   0.884961 0.432059 0.588323 -0.622867
H17   H     H_    0.897740 0.351138 0.610448 0.356465
O21   O     O_3   0.361871 0.277568 0.255364 -0.686958
H18   H     H_    0.358354 0.192595 0.276098 0.335325
O22   O     O_3   0.889110 0.759088 0.484941 -0.724302
H19   H     H_    0.927816 0.742949 0.452930 0.347704
O23   O     O_3   0.882190 0.253468 0.533114 -0.759351
H20   H     H_    0.924450 0.212302 0.504589 0.305442
O24   O     O_3   0.106009 0.570760 0.418183 -0.713673
H21   H     H_    0.195596 0.559434 0.410510 0.344577
O25   O     O_3   0.120515 0.334031 0.433449 -0.683948
H22   H     H_    0.083700 0.254570 0.451766 0.295843
H23   H     H_    0.887515 0.528291 0.425249 0.244498
H24   H     H_    0.892832 0.351674 0.442814 0.225713
O26   O     O_3   0.675406 0.145252 0.446009 -0.657554
H25   H     H_    0.619077 0.129152 0.418725 0.332280
O27   O     O_3   0.664089 0.860391 0.441752 -0.589596
H26   H     H_    0.611071 0.897718 0.415940 0.340509
H27   H     H_    0.538378 0.123294 0.575996 0.051030
H28   H     H_    0.548378 0.884231 0.574638 0.078154
H29   H     H_    0.312798 0.122401 0.476409 0.227434
H30   H     H_    0.310383 0.881330 0.480178 0.214683
H31   H     H_    0.423296 0.119084 0.429940 0.185110
H32   H     H_    0.414517 0.872747 0.431437 0.161010
O28   O     O_3   0.351015 0.135269 0.564488 -0.674244
H33   H     H_    0.344928 0.121018 0.599784 0.305710
O29   O     O_3   0.360177 0.859671 0.567596 -0.645058
H34   H     H_    0.363217 0.864753 0.603271 0.328913
O30   O     O_3   0.141909 0.525512 0.127327 -0.646559
H35   H     H_    0.072701 0.536171 0.104368 0.326700
H36   H     H_    0.403520 0.308954 0.741209 0.159666
O31   O     O_3   0.171868 0.635876 0.869172 -0.653703
H37   H     H_    0.130647 0.715151 0.886393 0.346915
O32   O     O_3   0.165306 0.650235 0.970017 -0.733581
H38   H     H_    0.089636 0.614688 0.953914 0.361497
H39   H     H_    0.168252 0.513234 0.034603 0.199875
O33   O     O_3   0.630838 0.697399 0.350346 -0.689067
H40   H     H_    0.670091 0.760238 0.326068 0.342295

loop_
_geom_bond_atom_site_label_1
_geom_bond_atom_site_label_2
_geom_bond_distance
_ccdc_geom_bond_type
C49   H2    1.110404 S    
C10   O21   1.381068 S    
C17   C29   1.404202 A    
C7    H5    1.083411 S    
C28   C29   1.393807 A    
C52   O29   1.407062 S    
C7    C8    1.402099 A    
C12   C15   1.407658 A    
C44   O20   1.410164 S    
C6    O11   1.350035 S    
Cu1   Cu2   2.688881 S    
C51   H27   1.116306 S    
C27   O10   1.349295 S    
C9    O13   1.381804 S    
C45   C46   1.577772 S    
C54   H32   1.108344 S    
C20   C24   1.418896 A    
C24   C25   1.409964 A    
C37   H6    1.083613 S    
C19   C35   1.420850 A    
O2    C1    1.294529 A    
C14   C36   1.402266 A    
C26   N2    1.365379 A    
O14   H7    0.991246 S    
O7    C4    1.298171 A    
C5    C13   1.412930 A    
O25   H22   0.988987 S    
C41   C43   1.556484 S    
C5    O9    1.349168 S    
C49   N3    1.496825 S    
C35   C40   1.422832 A    
C40   O16   1.383308 S    
Cu1   O5    1.977155 S    
C22   C23   1.408434 A    
C42   H13   1.114600 S    
O5    C3    1.294764 A    
O26   H25   0.986944 S    
O27   H26   0.987787 S    
C2    C16   1.475045 S    
C33   C34   1.420035 A    
C51   O28   1.408312 S    
O33   H40   0.991772 S    
C51   N3    1.497886 S    
C51   C52   1.594574 S    
C18   C20   1.420442 A    
C48   H23   1.112284 S    
C45   O24   1.410549 S    
C45   C48   1.554913 S    
C29   H1    1.081059 S    
N2    C32   1.435854 S    
C49   C50   1.583196 S    
C9    C10   1.418918 A    
C17   C30   1.412676 A    
C54   N4    1.493705 S    
O23   H20   0.988848 S    
C14   O30   1.383619 S    
C8    O33   1.380620 S    
O3    Cu1   1.948119 S    
O24   H21   0.992989 S    
Cu1   O7    1.949640 S    
C33   C36   1.414062 A    
C38   O14   1.379957 S    
C42   C44   1.571784 S    
C54   H30   1.111058 S    
C6    C15   1.401946 A    
C12   C34   1.421530 A    
C18   C33   1.432668 A    
C12   C13   1.411935 A    
C53   N3    1.495616 S    
N2    C27   1.368083 A    
C37   C40   1.400307 A    
O16   H11   0.991843 S    
C22   O31   1.382713 S    
Cu1   N4    2.019809 S    
C8    C16   1.408355 A    
C13   C14   1.407462 A    
C49   O26   1.409948 S    
O1    C1    1.292062 A    
C23   C24   1.408817 A    
C44   C47   1.584928 S    
C7    C11   1.397260 A    
C30   C31   1.405142 A    
C25   C26   1.400701 A    
C19   C20   1.421153 A    
Cu2   O8    1.947818 S    
O20   H17   0.993230 S    
Cu2   N3    2.020074 S    
N1    C6    1.366079 A    
C52   H28   1.115980 S    
N1    C11   1.437609 S    
O13   H4    0.990228 S    
C41   O17   1.409807 S    
C48   H24   1.110548 S    
O3    C2    1.300988 A    
C34   C35   1.418913 A    
C9    C16   1.413519 A    
O8    C4    1.301296 A    
O21   H18   0.990162 S    
C50   N4    1.495639 S    
C4    C17   1.472698 S    
O31   H37   0.990121 S    
O28   H33   0.992056 S    
O32   H38   0.991555 S    
C21   O32   1.378345 S    
C41   C46   1.566344 S    
C5    N1    1.368279 A    
C38   C39   1.388323 A    
C18   C21   1.429173 A    
O1    Cu1   1.976181 S    
C28   H36   1.082831 S    
O2    Cu2   1.976727 S    
C31   C32   1.399115 A    
C53   C54   1.573227 S    
C43   O22   1.415206 S    
O6    C3    1.298513 A    
C41   H12   1.116687 S    
O4    Cu2   1.949944 S    
C15   C37   1.395518 A    
C45   O25   1.415043 S    
C1    C46   1.484734 S    
C53   H29   1.110819 S    
C42   C46   1.567946 S    
C43   C47   1.593935 S    
C47   C48   1.558728 S    
C23   C27   1.415281 A    
O29   H34   0.993051 S    
C52   N4    1.496680 S    
O17   H14   0.993343 S    
O4    C2    1.297731 A    
C3    C47   1.494969 S    
O18   H15   0.993158 S    
C21   C22   1.418885 A    
C44   O23   1.414788 S    
C42   O18   1.409484 S    
C19   C38   1.426354 A    
O19   H16   0.989669 S    
C36   H39   1.074520 S    
C25   C39   1.395893 A    
C50   O27   1.407997 S    
C26   O12   1.350043 S    
Cu2   O6    1.976608 S    
O15   H8    0.991689 S    
C53   H31   1.106636 S    
C30   O15   1.381199 S    
C28   C32   1.398762 A    
C10   C11   1.402869 A    
O22   H19   0.990201 S    
C50   H3    1.108263 S    
C39   H9    1.083960 S    
C31   H10   1.083338 S    
O30   H35   0.991740 S    
C43   O19   1.413503 S    
