data_mof_unit_20944.cif
_audit_creation_date              2012-10-26T19:45:11-0400
_audit_creation_method            fapswitch 2.2
_symmetry_space_group_name_H-M    P1
_symmetry_Int_Tables_number       1
_space_group_crystal_system       triclinic
_cell_length_a                    9.62064
_cell_length_b                    10.82955
_cell_length_c                    13.882948
_cell_angle_alpha                 92.423701
_cell_angle_beta                  84.331656
_cell_angle_gamma                 90.046817
_cell_volume                      1438.05708447

loop_
_atom_site_label
_atom_site_type_symbol
_atom_type_description
_atom_site_fract_x
_atom_site_fract_y
_atom_site_fract_z
_atom_type_partial_charge
Br1   Br    Br    0.810697 0.693523 0.649473 -0.483815
Br2   Br    Br    0.189279 0.308447 0.348686 -0.462710
Br3   Br    Br    0.147177 0.689096 0.652647 -0.465695
Br4   Br    Br    0.852714 0.311074 0.347293 -0.446625
C1    C     C_R   0.500069 0.737633 0.499987 0.562043
C2    C     C_R   0.934673 0.422265 0.437741 0.251764
C3    C     C_1   0.538510 0.497979 0.214139 0.004515
C4    C     C_1   0.462076 0.494243 0.785741 0.002270
C5    C     C_2   0.560388 0.494201 0.022989 0.015780
C6    C     C_2   0.443502 0.480433 0.976119 0.012967
C7    C     C_1   0.451840 0.488231 0.872323 -0.039656
C8    C     C_1   0.550113 0.496211 0.127251 -0.038052
C9    C     C_R   0.626446 0.936182 0.498819 -0.114114
C10   C     C_R   0.373574 0.063807 0.500865 -0.113243
C11   C     C_R   0.626361 0.063938 0.499061 -0.113677
C12   C     C_R   0.499938 0.262363 0.499933 0.562227
C13   C     C_R   0.373657 0.936047 0.500653 -0.114387
C14   C     C_3   0.300446 0.459168 0.029191 -0.238592
C15   C     C_3   0.230853 0.581675 0.066404 -0.302544
C16   C     C_3   0.093430 0.559458 0.128041 -0.426145
C17   C     C_3   0.704394 0.512392 0.970606 -0.246368
C18   C     C_3   0.731464 0.649111 0.951568 -0.299266
C19   C     C_3   0.880575 0.668868 0.906463 -0.402676
C20   C     C_R   0.499939 0.128353 0.499970 0.022496
C21   C     C_R   0.500075 0.871637 0.499804 0.021714
C22   C     C_R   0.476772 0.499458 0.682781 0.569223
C23   C     C_R   0.523282 0.499612 0.317260 0.567432
C24   C     C_R   0.917321 0.578378 0.561827 0.255014
C25   C     C_R   0.082696 0.422029 0.437825 0.248881
C26   C     C_R   0.065311 0.577850 0.562176 0.255185
Cu1   Cu    Cu3+1 0.359340 0.499980 0.500000 1.060632
Cu2   Cu    Cu3+1 0.640660 0.500020 0.500000 1.061447
H1    H     H_    0.725406 0.888332 0.497793 0.174578
H2    H     H_    0.232631 0.410313 0.979539 0.151954
H3    H     H_    0.309169 0.397542 0.090408 0.179469
H4    H     H_    0.956297 0.646302 0.958427 0.143829
H5    H     H_    0.902515 0.609401 0.839569 0.212821
H6    H     H_    0.894783 0.767045 0.887744 0.191315
H7    H     H_    0.657381 0.681945 0.901553 0.197306
H8    H     H_    0.714939 0.705137 0.020753 0.168845
H9    H     H_    0.784581 0.477879 0.015470 0.150527
H10   H     H_    0.716600 0.456660 0.901160 0.158921
H11   H     H_    0.274626 0.111668 0.501819 0.174051
H12   H     H_    0.725233 0.111894 0.498545 0.173951
H13   H     H_    0.274787 0.888087 0.501164 0.173989
H14   H     H_    0.021865 0.503040 0.086201 0.159738
H15   H     H_    0.113098 0.510704 0.194209 0.206973
H16   H     H_    0.042152 0.649387 0.150346 0.152567
H17   H     H_    0.301124 0.635570 0.111154 0.177242
H18   H     H_    0.210222 0.637307 0.003818 0.173688
N1    N     N_R   0.147930 0.499970 0.499980 -0.255313
N2    N     N_R   0.852070 0.500030 0.500020 -0.255018
O1    O     O_R   0.381260 0.680340 0.500000 -0.479728
O2    O     O_R   0.618740 0.319660 0.500000 -0.479945
O3    O     O_R   0.618830 0.680370 0.500010 -0.477452
O4    O     O_R   0.381170 0.319630 0.499990 -0.478054
O5    O     O_R   0.364420 0.499960 0.637840 -0.462053
O6    O     O_R   0.635580 0.500040 0.362160 -0.464429
O7    O     O_R   0.601990 0.499990 0.637850 -0.466431
O8    O     O_R   0.398010 0.500010 0.362150 -0.469367

loop_
_geom_bond_atom_site_label_1
_geom_bond_atom_site_label_2
_ccdc_geom_bond_type
Cu1   O8    S    
Br1   C24   S    
C26   N1    A    
C12   O4    A    
C9    H1    S    
Cu1   O4    S    
Br3   C26   S    
C19   H6    S    
C4    C22   S    
C5    C6    D    
C15   H17   S    
Cu2   O3    S    
Cu1   Cu2   S    
C10   C13   A    
C9    C11   A    
Cu2   O6    S    
C18   H8    S    
Cu1   O5    S    
C24   C26   A    
C13   C21   A    
C12   C20   S    
C19   H5    S    
C17   C18   S    
Cu1   O1    S    
C24   N2    A    
C15   H18   S    
C5    C17   S    
C16   H16   S    
C6    C14   S    
C4    C7    T    
C1    C21   S    
C18   H7    S    
C1    O1    A    
C11   C20   A    
C22   O5    A    
C13   H13   S    
C11   H12   S    
C14   C15   S    
C23   O8    A    
C14   H2    S    
C25   N1    A    
C3    C8    T    
C5    C8    S    
C12   O2    A    
C16   H15   S    
C6    C7    S    
C10   C20   A    
C17   H10   S    
C17   H9    S    
C2    C25   A    
Br2   C25   S    
Br4   C2    S    
C19   H4    S    
C14   H3    S    
Cu2   O2    S    
C3    C23   S    
Cu2   N2    S    
C22   O7    A    
Cu2   O7    S    
C2    N2    A    
C18   C19   S    
C1    O3    A    
C16   H14   S    
C15   C16   S    
Cu1   N1    S    
C10   H11   S    
C9    C21   A    
C23   O6    A    
