data_mof_unit_60259.cif
_audit_creation_date              2012-10-26T18:41:47-0400
_audit_creation_method            fapswitch 2.2
_symmetry_space_group_name_H-M    P1
_symmetry_Int_Tables_number       1
_space_group_crystal_system       triclinic
_cell_length_a                    15.765495
_cell_length_b                    18.151161
_cell_length_c                    19.397676
_cell_angle_alpha                 89.687726
_cell_angle_beta                  90.037926
_cell_angle_gamma                 70.108571
_cell_volume                      5219.61151291

loop_
_atom_site_label
_atom_site_type_symbol
_atom_type_description
_atom_site_fract_x
_atom_site_fract_y
_atom_site_fract_z
_atom_type_partial_charge
Br1   Br    Br    0.385858 0.401855 0.919692 -0.329257
Br2   Br    Br    0.614149 0.598145 0.080307 -0.329265
Br3   Br    Br    0.232097 0.456389 0.597694 -0.394450
Br4   Br    Br    0.767902 0.543615 0.402309 -0.394455
Br5   Br    Br    0.368879 0.662283 0.296170 -0.427370
Br6   Br    Br    0.631144 0.337738 0.703828 -0.427412
C1    C     C_R   0.501839 0.499211 0.632436 0.579079
C2    C     C_R   0.549803 0.433397 0.817912 -0.068453
C3    C     C_R   0.502020 0.498744 0.147595 0.015480
C4    C     C_R   0.497981 0.501257 0.852404 0.015482
C5    C     C_R   0.550790 0.431322 0.185321 0.258644
C6    C     C_R   0.449199 0.568672 0.814679 0.258657
C7    C     C_R   0.548080 0.432898 0.257160 -0.093105
C8    C     C_R   0.451907 0.567095 0.742840 -0.093102
C9    C     C_R   0.497439 0.501265 0.291999 -0.009010
C10   C     C_R   0.502559 0.498736 0.708001 -0.009003
C11   C     C_R   0.455582 0.457629 0.036832 -0.054177
C12   C     C_R   0.498159 0.500789 0.367564 0.579071
C13   C     C_R   0.544419 0.542374 0.963167 -0.054184
C14   C     C_R   0.452942 0.458218 0.964999 0.191184
C15   C     C_R   0.547061 0.541784 0.035000 0.191173
C16   C     C_R   0.672559 0.452659 0.499101 0.582583
C17   C     C_R   0.327441 0.547341 0.500898 0.582574
C18   C     C_R   0.497537 0.500933 0.927944 0.022816
C19   C     C_R   0.502465 0.499069 0.072055 0.022813
C20   C     C_R   0.565903 0.258441 0.533524 0.070351
C21   C     C_R   0.434078 0.741564 0.466499 0.070353
C22   C     C_R   0.566216 0.180933 0.533456 -0.145408
C23   C     C_R   0.096945 0.407711 0.506067 -0.038343
C24   C     C_R   0.433762 0.819072 0.466568 -0.145407
C25   C     C_R   0.498040 0.161910 0.498824 0.018286
C26   C     C_R   0.501953 0.838094 0.501177 0.018296
C27   C     C_R   0.431168 0.222843 0.463651 0.225037
C28   C     C_R   0.568842 0.777156 0.536327 0.225038
C29   C     C_R   0.433860 0.299459 0.465039 0.110027
C30   C     C_R   0.566154 0.700538 0.534939 0.110044
C31   C     C_R   0.422274 0.060951 0.519586 -0.024086
C32   C     C_R   0.577715 0.939055 0.480411 -0.024079
C33   C     C_R   0.423306 0.983184 0.519834 -0.076331
C34   C     C_R   0.903059 0.592287 0.493934 -0.038340
C35   C     C_R   0.576685 0.016821 0.480165 -0.076324
C36   C     C_R   0.501235 0.921057 0.500729 0.048066
C37   C     C_R   0.498756 0.078948 0.499270 0.048063
C38   C     C_R   0.771412 0.424231 0.501756 -0.022401
C39   C     C_R   0.228589 0.575769 0.498242 -0.022404
C40   C     C_R   0.911713 0.325858 0.538717 0.271820
C41   C     C_R   0.088289 0.674140 0.461282 0.271820
C42   C     C_R   0.817941 0.352077 0.532651 -0.110295
C43   C     C_R   0.182060 0.647922 0.467345 -0.110301
C44   C     C_R   0.818980 0.471881 0.478216 0.120816
C45   C     C_R   0.055336 0.352229 0.517269 0.289467
C46   C     C_R   0.181021 0.528118 0.521783 0.120820
C47   C     C_R   0.910010 0.454190 0.497826 -0.022822
C48   C     C_R   0.089993 0.545809 0.502174 -0.022823
C49   C     C_R   0.960003 0.376028 0.518970 0.038475
C50   C     C_R   0.040000 0.623970 0.481029 0.038473
C51   C     C_R   0.952768 0.511661 0.496527 -0.002949
C52   C     C_R   0.047234 0.488337 0.503472 -0.002948
C53   C     C_R   0.944668 0.647768 0.482733 0.289471
C54   C     C_R   0.447332 0.568434 0.253882 0.162399
C55   C     C_R   0.552677 0.431575 0.746117 0.162393
C56   C     C_R   0.450208 0.566612 0.182087 -0.068445
Cl1   Cl    Cl    0.128033 0.253824 0.519329 -0.400931
Cl2   Cl    Cl    0.871974 0.746172 0.480675 -0.400894
Cl3   Cl    Cl    0.346421 0.205459 0.414017 -0.506635
Cl4   Cl    Cl    0.653607 0.794534 0.585937 -0.506665
Cl5   Cl    Cl    0.960265 0.234816 0.580842 -0.397940
Cl6   Cl    Cl    0.039738 0.765182 0.419158 -0.397946
Cl7   Cl    Cl    0.617576 0.344799 0.144189 -0.473365
Cl8   Cl    Cl    0.382403 0.655185 0.855811 -0.473373
Cu1   Cu    Cu3+1 0.500030 0.426630 0.500000 1.036472
Cu2   Cu    Cu3+1 0.499970 0.573370 0.500000 1.036479
H1    H     H_    0.420538 0.425284 0.065385 0.180689
H2    H     H_    0.638242 0.892869 0.464087 0.198551
H3    H     H_    0.363395 0.971372 0.535905 0.151494
H4    H     H_    0.636596 0.028634 0.464095 0.151503
H5    H     H_    0.218847 0.684443 0.448042 0.180060
H6    H     H_    0.781155 0.315556 0.551953 0.180068
H7    H     H_    0.169197 0.386715 0.498721 0.192067
H8    H     H_    0.830807 0.613282 0.501281 0.192071
H9    H     H_    0.411168 0.618069 0.152884 0.190602
H10   H     H_    0.588851 0.381946 0.847115 0.190599
H11   H     H_    0.586810 0.380956 0.285903 0.176634
H12   H     H_    0.579462 0.574719 0.934614 0.180685
H13   H     H_    0.413169 0.619032 0.714097 0.176627
H14   H     H_    0.618687 0.272145 0.560402 0.174511
H15   H     H_    0.381282 0.727863 0.439639 0.174494
H16   H     H_    0.619110 0.136123 0.560871 0.153020
H17   H     H_    0.380854 0.863886 0.439172 0.153011
H18   H     H_    0.383183 0.345567 0.437210 0.163252
H19   H     H_    0.616846 0.654428 0.562752 0.163263
H20   H     H_    0.361745 0.107138 0.535907 0.198539
N1    N     N_R   0.500010 0.316380 0.499980 -0.254731
N2    N     N_R   0.499990 0.683620 0.500020 -0.254734
O1    O     O_R   0.500040 0.438010 0.599820 -0.440366
O2    O     O_R   0.499960 0.561990 0.400180 -0.440352
O3    O     O_R   0.500000 0.561930 0.599810 -0.518651
O4    O     O_R   0.500000 0.438070 0.400190 -0.518666
O5    O     O_R   0.629870 0.403290 0.500000 -0.512625
O6    O     O_R   0.370130 0.596710 0.500000 -0.512640
O7    O     O_R   0.629830 0.527210 0.500000 -0.478157
O8    O     O_R   0.370170 0.472790 0.500000 -0.478146

loop_
_geom_bond_atom_site_label_1
_geom_bond_atom_site_label_2
_ccdc_geom_bond_type
C9    C12   S    
C17   C39   S    
C12   O2    A    
C9    C54   A    
C28   Cl4   S    
Cu2   O6    S    
C3    C19   S    
C41   C43   A    
C53   Cl2   S    
C16   O7    A    
C25   C37   S    
C2    H10   S    
Br6   C55   S    
C13   C15   A    
C23   C45   A    
C32   C36   A    
C48   C52   A    
C17   O8    A    
Cu1   O1    S    
Cu2   O7    S    
C11   C14   A    
C54   C56   A    
C42   H6    S    
C15   C19   A    
C16   C38   S    
C14   C18   A    
C40   C49   A    
C22   H16   S    
C25   C27   A    
C34   C51   A    
C33   H3    S    
C45   C49   A    
C31   H20   S    
C2    C55   A    
Cu2   N2    S    
C20   N1    A    
C29   N1    A    
C17   O6    A    
C34   C53   A    
C21   C24   A    
C11   H1    S    
C35   C37   A    
C24   H17   S    
C46   C48   A    
C33   C36   A    
C40   C42   A    
Cu2   O3    S    
C47   C49   A    
Cu1   O4    S    
C48   C50   A    
C44   C47   A    
C27   Cl3   S    
C3    C56   A    
C45   Cl1   S    
C32   C35   A    
C47   C51   A    
C39   C46   A    
C4    C18   S    
Cu1   O5    S    
Br4   C44   S    
C26   C28   A    
C31   C37   A    
C23   H7    S    
C39   C43   A    
C20   H14   S    
Br2   C15   S    
C34   H8    S    
C21   H15   S    
C3    C5    A    
C4    C6    A    
C30   H19   S    
C1    C10   S    
Cu1   O8    S    
C6    C8    A    
C7    C9    A    
C8    C10   A    
C10   C55   A    
C13   H12   S    
C41   Cl6   S    
C32   H2    S    
C38   C44   A    
C6    Cl8   S    
Br1   C14   S    
C16   O5    A    
C1    O3    A    
Br5   C54   S    
C56   H9    S    
C22   C25   A    
C8    H13   S    
Br3   C46   S    
C5    Cl7   S    
Cu1   N1    S    
C1    O1    A    
C7    H11   S    
C20   C22   A    
C50   C53   A    
C11   C19   A    
C13   C18   A    
Cu1   Cu2   S    
C31   C33   A    
C35   H4    S    
C24   C26   A    
C5    C7    A    
C51   C52   A    
C27   C29   A    
C43   H5    S    
C28   C30   A    
Cu2   O2    S    
C29   H18   S    
C30   N2    A    
C40   Cl5   S    
C23   C52   A    
C2    C4    A    
C26   C36   S    
C21   N2    A    
C12   O4    A    
C38   C42   A    
C41   C50   A    
