data_mof_unit_65112.cif
_audit_creation_date              2012-12-10T19:36:17-0500
_audit_creation_method            fapswitch 2.2
_symmetry_space_group_name_H-M    P1
_symmetry_Int_Tables_number       1
_space_group_crystal_system       triclinic
_cell_length_a                    30.495328
_cell_length_b                    30.495315
_cell_length_c                    36.246237
_cell_angle_alpha                 89.998196
_cell_angle_beta                  90.000994
_cell_angle_gamma                 89.992506
_cell_volume                      33707.7181933

loop_
_atom_site_label
_atom_site_type_symbol
_atom_type_description
_atom_site_fract_x
_atom_site_fract_y
_atom_site_fract_z
_atom_type_partial_charge
C1    C     C_R   0.381580 0.881584 0.750007 -0.020998
C2    C     C_R   0.618418 0.118411 0.249996 -0.021235
C3    C     C_R   0.881660 0.618338 0.749999 -0.015907
C4    C     C_R   0.118298 0.381701 0.250001 -0.013413
C5    C     C_R   0.618410 0.118413 0.749981 -0.020699
C6    C     C_R   0.381586 0.881580 0.250011 -0.021037
C7    C     C_R   0.118362 0.381638 0.750002 -0.017831
C8    C     C_R   0.881683 0.618315 0.249998 -0.015260
C9    C     C_R   0.618408 0.881592 0.249994 -0.020221
C10   C     C_R   0.381588 0.118412 0.750002 -0.020639
C11   C     C_R   0.118363 0.618363 0.250007 -0.017760
C12   C     C_R   0.881669 0.381662 0.749995 -0.016559
C13   C     C_R   0.381584 0.118419 0.250006 -0.020161
C14   C     C_R   0.618416 0.881580 0.749995 -0.020581
C15   C     C_R   0.881588 0.381593 0.250007 -0.021143
C16   C     C_R   0.118383 0.618385 0.750007 -0.018833
C17   C     C_R   0.314227 0.851319 0.775139 -0.083205
C18   C     C_R   0.686414 0.148027 0.225562 -0.082945
C19   C     C_R   0.819823 0.654058 0.720294 -0.081890
C20   C     C_R   0.177944 0.343824 0.280940 -0.081253
C21   C     C_R   0.684596 0.149842 0.776287 -0.082968
C22   C     C_R   0.314861 0.850689 0.224231 -0.082937
C23   C     C_R   0.182088 0.347784 0.721568 -0.082560
C24   C     C_R   0.820238 0.654417 0.280034 -0.082165
C25   C     C_R   0.684063 0.849629 0.223209 -0.083497
C26   C     C_R   0.314944 0.149383 0.775856 -0.083389
C27   C     C_R   0.181632 0.652664 0.278746 -0.082152
C28   C     C_R   0.819327 0.346447 0.720543 -0.082017
C29   C     C_R   0.316193 0.150656 0.222986 -0.083177
C30   C     C_R   0.684693 0.850232 0.776208 -0.083172
C31   C     C_R   0.814288 0.351284 0.275209 -0.082852
C32   C     C_R   0.183045 0.651314 0.722335 -0.082494
C33   C     C_R   0.851283 0.314288 0.224804 -0.082602
C34   C     C_R   0.151320 0.683037 0.777682 -0.082503
C35   C     C_R   0.349344 0.183805 0.277023 -0.083417
C36   C     C_R   0.649766 0.815307 0.723785 -0.083401
C37   C     C_R   0.152656 0.681642 0.221272 -0.082075
C38   C     C_R   0.846469 0.319300 0.779431 -0.082047
C39   C     C_R   0.650361 0.815925 0.276774 -0.083225
C40   C     C_R   0.350620 0.185061 0.724150 -0.083186
C41   C     C_R   0.152220 0.317915 0.778439 -0.082457
C42   C     C_R   0.845576 0.679756 0.219958 -0.081954
C43   C     C_R   0.649868 0.184570 0.723660 -0.083365
C44   C     C_R   0.350686 0.814864 0.275790 -0.083209
C45   C     C_R   0.845942 0.680175 0.779705 -0.082077
C46   C     C_R   0.156173 0.322055 0.219062 -0.081528
C47   C     C_R   0.351322 0.814224 0.724875 -0.083059
C48   C     C_R   0.648033 0.186408 0.274437 -0.082843
C49   C     C_R   0.316532 0.816520 0.750001 0.211780
C50   C     C_R   0.683456 0.183455 0.250005 0.212097
C51   C     C_R   0.816644 0.683357 0.750000 0.213673
C52   C     C_R   0.183302 0.316694 0.250001 0.213508
C53   C     C_R   0.683513 0.183463 0.749988 0.210958
C54   C     C_R   0.316511 0.816527 0.250000 0.211144
C55   C     C_R   0.183406 0.316601 0.750002 0.213588
C56   C     C_R   0.816633 0.683359 0.249996 0.214042
C57   C     C_R   0.683483 0.816498 0.249996 0.211053
C58   C     C_R   0.316530 0.183478 0.750001 0.211515
C59   C     C_R   0.183379 0.683396 0.250004 0.213179
C60   C     C_R   0.816634 0.316603 0.749985 0.213579
C61   C     C_R   0.316488 0.183504 0.249997 0.210864
C62   C     C_R   0.683496 0.816510 0.750003 0.211276
C63   C     C_R   0.816556 0.316547 0.249999 0.212443
C64   C     C_R   0.183422 0.683408 0.750002 0.213491
C65   C     C_R   0.217448 0.717437 0.750007 -0.201959
C66   C     C_R   0.782513 0.282508 0.250004 -0.201257
C67   C     C_R   0.717584 0.782418 0.749999 -0.199214
C68   C     C_R   0.282384 0.217611 0.250001 -0.198568
C69   C     C_R   0.782634 0.282600 0.749981 -0.202025
C70   C     C_R   0.217407 0.717421 0.250008 -0.202083
C71   C     C_R   0.282450 0.217556 0.750003 -0.199586
C72   C     C_R   0.717572 0.782413 0.249993 -0.198810
C73   C     C_R   0.782635 0.717355 0.249994 -0.202010
C74   C     C_R   0.217425 0.282581 0.750003 -0.201904
C75   C     C_R   0.282432 0.782443 0.250008 -0.199540
C76   C     C_R   0.717589 0.217549 0.749977 -0.199116
C77   C     C_R   0.217329 0.282667 0.250001 -0.202325
C78   C     C_R   0.782618 0.717382 0.749999 -0.202265
C79   C     C_R   0.717512 0.217508 0.250002 -0.200690
C80   C     C_R   0.282459 0.782450 0.750006 -0.199990
C81   C     C_R   0.291181 0.741233 0.765983 0.225597
C82   C     C_R   0.709713 0.257776 0.232124 0.226407
C83   C     C_R   0.740363 0.707573 0.763331 0.227650
C84   C     C_R   0.260240 0.293126 0.238639 0.227877
C85   C     C_R   0.707723 0.259961 0.763093 0.224830
C86   C     C_R   0.291809 0.740550 0.235587 0.225168
C87   C     C_R   0.259353 0.292058 0.764226 0.227236
C88   C     C_R   0.739874 0.707072 0.238069 0.227371
C89   C     C_R   0.707350 0.739626 0.237961 0.224635
C90   C     C_R   0.291882 0.259498 0.764297 0.225229
C91   C     C_R   0.259282 0.707991 0.235662 0.227538
C92   C     C_R   0.740241 0.292516 0.763002 0.227466
C93   C     C_R   0.292774 0.260560 0.238520 0.224331
C94   C     C_R   0.707834 0.740137 0.763422 0.224789
C95   C     C_R   0.742247 0.290320 0.232140 0.226973
C96   C     C_R   0.258654 0.708677 0.765929 0.227373
C97   C     C_R   0.790324 0.242242 0.267867 0.226987
C98   C     C_R   0.208687 0.758642 0.734083 0.227399
C99   C     C_R   0.239436 0.207222 0.261482 0.224456
C100  C     C_R   0.759865 0.792168 0.736577 0.224866
C101  C     C_R   0.207979 0.759296 0.264353 0.227513
C102  C     C_R   0.792555 0.240208 0.736960 0.227435
C103  C     C_R   0.760359 0.792637 0.262027 0.224521
C104  C     C_R   0.240508 0.208125 0.735708 0.225160
C105  C     C_R   0.207947 0.240654 0.735780 0.227312
C106  C     C_R   0.792915 0.760116 0.261920 0.227464
C107  C     C_R   0.760004 0.207686 0.736866 0.224858
C108  C     C_R   0.240539 0.791822 0.264427 0.225186
C109  C     C_R   0.792428 0.759638 0.736669 0.227575
C110  C     C_R   0.206870 0.239755 0.261363 0.227783
C111  C     C_R   0.241242 0.791170 0.734028 0.225561
C112  C     C_R   0.757780 0.209708 0.267883 0.226391
C113  C     C_1   0.999999 0.499999 0.888497 -0.121369
C114  C     C_1   0.000001 0.500001 0.111503 -0.121314
C115  C     C_1   0.500001 0.000000 0.888498 -0.120510
C116  C     C_1   0.499999 1.000000 0.111502 -0.120546
C117  C     C_1   0.500000 0.999999 0.388496 -0.120554
C118  C     C_1   0.500000 0.000001 0.611504 -0.120520
C119  C     C_1   0.000001 0.500001 0.388487 -0.121353
C120  C     C_1   0.999999 0.500000 0.611513 -0.121407
C121  C     C_1   0.500000 0.000001 0.578300 -0.055795
C122  C     C_1   0.500000 0.999999 0.421700 -0.055828
C123  C     C_1   0.999999 0.500000 0.578290 -0.056656
C124  C     C_1   0.000001 0.500001 0.421710 -0.056655
C125  C     C_1   0.000001 0.500001 0.078302 -0.056613
C126  C     C_1   0.999999 0.499999 0.921698 -0.056616
C127  C     C_1   0.499999 1.000000 0.078303 -0.055814
C128  C     C_1   0.500001 0.000000 0.921696 -0.055781
C129  C     C_R   1.000000 0.500000 0.651044 0.829359
C130  C     C_R   0.000000 0.500000 0.348956 0.829191
C131  C     C_R   0.500000 0.000001 0.651048 0.830787
C132  C     C_R   0.500000 0.999999 0.348952 0.830689
C133  C     C_R   0.500000 1.000000 0.151049 0.830696
C134  C     C_R   0.500000 0.000000 0.848951 0.830795
C135  C     C_R   0.000000 0.500000 0.151048 0.829223
C136  C     C_R   1.000000 0.500000 0.848952 0.829391
C137  C     C_R   0.915758 0.584242 0.750000 0.808065
C138  C     C_R   0.084229 0.415771 0.250000 0.806452
C139  C     C_R   0.584264 0.084256 0.750008 0.810262
C140  C     C_R   0.415736 0.915743 0.249995 0.810561
C141  C     C_R   0.084253 0.415747 0.750000 0.809222
C142  C     C_R   0.915754 0.584246 0.250000 0.807565
C143  C     C_R   0.415741 0.915737 0.749996 0.810739
C144  C     C_R   0.584257 0.084261 0.250003 0.811048
C145  C     C_R   0.084249 0.584251 0.249998 0.809001
C146  C     C_R   0.915749 0.415748 0.750000 0.808350
C147  C     C_R   0.415738 0.084259 0.249997 0.809655
C148  C     C_R   0.584262 0.915741 0.750003 0.810187
C149  C     C_R   0.915742 0.415738 0.249996 0.810961
C150  C     C_R   0.084257 0.584255 0.749998 0.809867
C151  C     C_R   0.584257 0.915740 0.250003 0.809847
C152  C     C_R   0.415743 0.084259 0.749999 0.810424
C153  C     C_R   0.500000 0.000000 0.538622 0.153541
C154  C     C_R   0.500000 1.000000 0.461378 0.153532
C155  C     C_R   1.000000 0.500001 0.538630 0.153753
C156  C     C_R   0.000001 0.500001 0.461369 0.153716
C157  C     C_R   0.000001 0.500001 0.038621 0.153767
C158  C     C_R   1.000000 0.500000 0.961379 0.153790
C159  C     C_R   0.499999 1.000000 0.038619 0.153571
C160  C     C_R   0.500000 1.000000 0.961381 0.153574
C161  C     C_R   0.500710 0.039757 0.519288 -0.160829
C162  C     C_R   0.499290 0.960243 0.480712 -0.160912
C163  C     C_R   0.039772 0.500326 0.519285 -0.161072
C164  C     C_R   0.960228 0.499676 0.480715 -0.160995
C165  C     C_R   0.499290 0.960244 0.519290 -0.160747
C166  C     C_R   0.500710 0.039756 0.480710 -0.160694
C167  C     C_R   0.960227 0.499676 0.519283 -0.161358
C168  C     C_R   0.039773 0.500327 0.480717 -0.161424
C169  C     C_R   0.998483 0.539737 0.019289 -0.161434
C170  C     C_R   0.001518 0.460264 0.980711 -0.161306
C171  C     C_R   0.539759 0.999457 0.019292 -0.160704
C172  C     C_R   0.460240 0.000543 0.980708 -0.160719
C173  C     C_R   0.001519 0.460264 0.019291 -0.161123
C174  C     C_R   0.998482 0.539736 0.980709 -0.161260
C175  C     C_R   0.460240 0.000543 0.019290 -0.160947
C176  C     C_R   0.539760 0.999457 0.980709 -0.160901
C177  C     C_R   0.346504 0.883715 0.775101 -0.173508
C178  C     C_R   0.654120 0.115652 0.225577 -0.173252
C179  C     C_R   0.852024 0.621605 0.720352 -0.173051
C180  C     C_R   0.145781 0.376319 0.280874 -0.173380
C181  C     C_R   0.652360 0.117413 0.776256 -0.173641
C182  C     C_R   0.347113 0.883109 0.224260 -0.173401
C183  C     C_R   0.149870 0.380194 0.721612 -0.173445
C184  C     C_R   0.852405 0.621991 0.279972 -0.173861
C185  C     C_R   0.651837 0.882073 0.223286 -0.174021
C186  C     C_R   0.347201 0.116964 0.775807 -0.173880
C187  C     C_R   0.149412 0.620237 0.278688 -0.172517
C188  C     C_R   0.851503 0.378866 0.720608 -0.172681
C189  C     C_R   0.348416 0.118194 0.223049 -0.173707
C190  C     C_R   0.652448 0.882667 0.776162 -0.173588
C191  C     C_R   0.846572 0.383657 0.275186 -0.172724
C192  C     C_R   0.150804 0.618908 0.722363 -0.173291
C193  C     C_R   0.883663 0.346565 0.224807 -0.172651
C194  C     C_R   0.118916 0.650794 0.777635 -0.172756
C195  C     C_R   0.381800 0.151577 0.276943 -0.173975
C196  C     C_R   0.617337 0.847558 0.723846 -0.173792
C197  C     C_R   0.120229 0.649423 0.221311 -0.172896
C198  C     C_R   0.878878 0.351486 0.779379 -0.173010
C199  C     C_R   0.617917 0.848151 0.276716 -0.173673
C200  C     C_R   0.383040 0.152805 0.724191 -0.173516
C201  C     C_R   0.119810 0.350132 0.778389 -0.172882
C202  C     C_R   0.878005 0.647592 0.220024 -0.173012
C203  C     C_R   0.617441 0.152331 0.723745 -0.173338
C204  C     C_R   0.383098 0.847125 0.275731 -0.173202
C205  C     C_R   0.878396 0.647975 0.779649 -0.173652
C206  C     C_R   0.123679 0.354219 0.219127 -0.174260
C207  C     C_R   0.383723 0.846495 0.724894 -0.173598
C208  C     C_R   0.615650 0.154122 0.274432 -0.173349
H1    H     H_    0.997301 0.570641 0.966008 0.151724
H2    H     H_    0.002700 0.429360 0.033992 0.151837
H3    H     H_    0.570683 0.999034 0.966012 0.151957
H4    H     H_    0.429316 0.000966 0.033988 0.151936
H5    H     H_    0.002699 0.429359 0.966012 0.151761
H6    H     H_    0.997303 0.570642 0.033988 0.151694
H7    H     H_    0.429317 0.000966 0.966009 0.151996
H8    H     H_    0.570683 0.999034 0.033991 0.152017
H9    H     H_    0.501262 0.070677 0.466008 0.152029
H10   H     H_    0.498738 0.929323 0.533992 0.151980
H11   H     H_    0.070706 0.500580 0.466011 0.151694
H12   H     H_    0.929294 0.499422 0.533989 0.151705
H13   H     H_    0.498737 0.929322 0.466011 0.151937
H14   H     H_    0.501263 0.070678 0.533988 0.151975
H15   H     H_    0.929295 0.499423 0.466008 0.151820
H16   H     H_    0.070705 0.500580 0.533992 0.151737
H17   H     H_    0.344045 0.910333 0.794779 0.170372
H18   H     H_    0.657081 0.088537 0.206441 0.170707
H19   H     H_    0.854071 0.599377 0.697037 0.166770
H20   H     H_    0.141971 0.396849 0.305130 0.164695
H21   H     H_    0.653872 0.091726 0.796842 0.170139
H22   H     H_    0.345162 0.909225 0.204088 0.170482
H23   H     H_    0.149339 0.403897 0.699285 0.168067
H24   H     H_    0.854810 0.600089 0.303552 0.165885
H25   H     H_    0.652951 0.907377 0.202321 0.169537
H26   H     H_    0.345306 0.090899 0.796047 0.170036
H27   H     H_    0.148534 0.596880 0.301254 0.168235
H28   H     H_    0.853160 0.401486 0.697490 0.167141
H29   H     H_    0.347522 0.093113 0.201908 0.169640
H30   H     H_    0.654044 0.908436 0.796675 0.170116
H31   H     H_    0.844178 0.410211 0.294947 0.170774
H32   H     H_    0.151040 0.594470 0.700638 0.168894
H33   H     H_    0.910210 0.344177 0.205057 0.171033
H34   H     H_    0.094472 0.651036 0.799368 0.169061
H35   H     H_    0.406888 0.152475 0.298094 0.169435
H36   H     H_    0.591562 0.845958 0.703323 0.169902
H37   H     H_    0.096878 0.648540 0.198752 0.168156
H38   H     H_    0.901492 0.353146 0.802500 0.167039
H39   H     H_    0.592621 0.847043 0.297673 0.169777
H40   H     H_    0.409101 0.154698 0.703955 0.170268
H41   H     H_    0.096105 0.350661 0.800718 0.168270
H42   H     H_    0.899907 0.645188 0.196444 0.166129
H43   H     H_    0.591736 0.153859 0.703140 0.169964
H44   H     H_    0.409224 0.845166 0.295919 0.170352
H45   H     H_    0.900624 0.645926 0.802962 0.166535
H46   H     H_    0.103148 0.358030 0.194871 0.164425
H47   H     H_    0.410334 0.844043 0.705225 0.170463
H48   H     H_    0.588539 0.157079 0.293560 0.170777
H49   H     H_    0.287435 0.853306 0.794687 0.157986
H50   H     H_    0.713719 0.145540 0.206565 0.157664
H51   H     H_    0.797395 0.656458 0.697135 0.155589
H52   H     H_    0.198640 0.339699 0.305062 0.155352
H53   H     H_    0.710459 0.148773 0.796781 0.158560
H54   H     H_    0.288565 0.852186 0.204160 0.158399
H55   H     H_    0.206006 0.346867 0.699405 0.155956
H56   H     H_    0.798146 0.657162 0.303460 0.155461
H57   H     H_    0.709510 0.850287 0.202355 0.158547
H58   H     H_    0.288711 0.147951 0.795977 0.158150
H59   H     H_    0.205195 0.653926 0.301143 0.156088
H60   H     H_    0.796512 0.344429 0.697583 0.155866
H61   H     H_    0.290961 0.150208 0.201936 0.158716
H62   H     H_    0.710632 0.851374 0.796619 0.158403
H63   H     H_    0.787534 0.353212 0.294812 0.157182
H64   H     H_    0.207708 0.651481 0.700771 0.156041
H65   H     H_    0.853216 0.287528 0.205193 0.157231
H66   H     H_    0.151491 0.707695 0.799239 0.156166
H67   H     H_    0.349789 0.209033 0.298065 0.158704
H68   H     H_    0.648628 0.789373 0.703382 0.158373
H69   H     H_    0.153914 0.705210 0.198869 0.156026
H70   H     H_    0.844453 0.296479 0.802388 0.155829
H71   H     H_    0.649700 0.790473 0.297633 0.158606
H72   H     H_    0.352053 0.211297 0.704026 0.158238
H73   H     H_    0.153140 0.293998 0.800601 0.156048
H74   H     H_    0.842830 0.701848 0.196531 0.155558
H75   H     H_    0.648811 0.210417 0.703182 0.158609
H76   H     H_    0.352177 0.788577 0.295849 0.158429
H77   H     H_    0.843544 0.702603 0.802865 0.155467
H78   H     H_    0.160295 0.301359 0.194939 0.155214
H79   H     H_    0.353314 0.787426 0.705320 0.157955
H80   H     H_    0.645543 0.213716 0.293441 0.157637
O1    O     O_3   1.000000 0.500000 0.750000 -0.484133
O2    O     O_3   1.000000 0.500000 0.250000 -0.484313
O3    O     O_3   0.500000 0.000000 0.750000 -0.483391
O4    O     O_3   0.500000 0.000000 0.250000 -0.483444
O5    O     O_R   0.036310 0.500000 0.668570 -0.634978
O6    O     O_R   0.963690 0.500000 0.331430 -0.634767
O7    O     O_R   0.500000 0.963690 0.668570 -0.634484
O8    O     O_R   0.500000 0.036310 0.331430 -0.634448
O9    O     O_R   0.963690 0.500000 0.668570 -0.635466
O10   O     O_R   0.036310 0.500000 0.331430 -0.635535
O11   O     O_R   0.500000 0.036310 0.668570 -0.634654
O12   O     O_R   0.500000 0.963690 0.331430 -0.634734
O13   O     O_R   0.536310 0.000000 0.168570 -0.634417
O14   O     O_R   0.463690 0.000000 0.831430 -0.634417
O15   O     O_R   1.000000 0.463690 0.168570 -0.634876
O16   O     O_R   1.000000 0.536310 0.831430 -0.635196
O17   O     O_R   0.463690 0.000000 0.168570 -0.634783
O18   O     O_R   0.536310 0.000000 0.831430 -0.634740
O19   O     O_R   1.000000 0.536310 0.168570 -0.635485
O20   O     O_R   1.000000 0.463690 0.831430 -0.635302
O21   O     O_R   0.912500 0.551110 0.728680 -0.639134
O22   O     O_R   0.087500 0.448890 0.271320 -0.638248
O23   O     O_R   0.551110 0.087500 0.728680 -0.641132
O24   O     O_R   0.448890 0.912500 0.271320 -0.641107
O25   O     O_R   0.087500 0.448890 0.728680 -0.640302
O26   O     O_R   0.912500 0.551110 0.271320 -0.639834
O27   O     O_R   0.448890 0.912500 0.728680 -0.641363
O28   O     O_R   0.551110 0.087500 0.271320 -0.641326
O29   O     O_R   0.087500 0.551110 0.271320 -0.639402
O30   O     O_R   0.912500 0.448890 0.728680 -0.639226
O31   O     O_R   0.448890 0.087500 0.271320 -0.641213
O32   O     O_R   0.551110 0.912500 0.728680 -0.641350
O33   O     O_R   0.912500 0.448890 0.271320 -0.640757
O34   O     O_R   0.087500 0.551110 0.728680 -0.640455
O35   O     O_R   0.551110 0.912500 0.271320 -0.640983
O36   O     O_R   0.448890 0.087500 0.728680 -0.641168
O37   O     O_R   0.412500 0.051110 0.228680 -0.640892
O38   O     O_R   0.587500 0.948890 0.771320 -0.641077
O39   O     O_R   0.051110 0.587500 0.228680 -0.639682
O40   O     O_R   0.948890 0.412500 0.771320 -0.639563
O41   O     O_R   0.587500 0.948890 0.228680 -0.641335
O42   O     O_R   0.412500 0.051110 0.771320 -0.641488
O43   O     O_R   0.948890 0.412500 0.228680 -0.640512
O44   O     O_R   0.051110 0.587500 0.771320 -0.640073
O45   O     O_R   0.587500 0.051110 0.771320 -0.641102
O46   O     O_R   0.412500 0.948890 0.228680 -0.641086
O47   O     O_R   0.948890 0.587500 0.771320 -0.639672
O48   O     O_R   0.051110 0.412500 0.228680 -0.639208
O49   O     O_R   0.412500 0.948890 0.771320 -0.641410
O50   O     O_R   0.587500 0.051110 0.228680 -0.641347
O51   O     O_R   0.051110 0.412500 0.771320 -0.639807
O52   O     O_R   0.948890 0.587500 0.228680 -0.638931
Zn1   Zn    Zn3+2 1.000000 0.551890 0.780540 0.994447
Zn2   Zn    Zn3+2 1.000000 0.448110 0.219460 0.994464
Zn3   Zn    Zn3+2 0.551890 0.000000 0.780540 0.994307
Zn4   Zn    Zn3+2 0.448110 0.000000 0.219460 0.994314
Zn5   Zn    Zn3+2 1.000000 0.448110 0.780540 0.994555
Zn6   Zn    Zn3+2 1.000000 0.551890 0.219460 0.994625
Zn7   Zn    Zn3+2 0.448110 0.000000 0.780540 0.994129
Zn8   Zn    Zn3+2 0.551890 0.000000 0.219460 0.994174
Zn9   Zn    Zn3+2 0.500000 0.051890 0.280540 0.994223
Zn10  Zn    Zn3+2 0.500000 0.948110 0.719460 0.994170
Zn11  Zn    Zn3+2 0.051890 0.500000 0.280540 0.994957
Zn12  Zn    Zn3+2 0.948110 0.500000 0.719460 0.994846
Zn13  Zn    Zn3+2 0.500000 0.948110 0.280540 0.994271
Zn14  Zn    Zn3+2 0.500000 0.051890 0.719460 0.994277
Zn15  Zn    Zn3+2 0.948110 0.500000 0.280540 0.994160
Zn16  Zn    Zn3+2 0.051890 0.500000 0.719460 0.994170
Br1   Br    Br    0.347369 0.729805 0.788592 -0.374237
Br2   Br    Br    0.654756 0.267893 0.207079 -0.373803
Br3   Br    Br    0.727380 0.649572 0.781732 -0.371534
Br4   Br    Br    0.274145 0.352071 0.223023 -0.371300
Br5   Br    Br    0.649952 0.273057 0.781997 -0.374126
Br6   Br    Br    0.348893 0.728172 0.214991 -0.373782
Br7   Br    Br    0.271849 0.349528 0.784011 -0.372692
Br8   Br    Br    0.726230 0.648408 0.221513 -0.372831
Br9   Br    Br    0.649073 0.725993 0.220467 -0.374807
Br10  Br    Br    0.349041 0.271937 0.784730 -0.374404
Br11  Br    Br    0.271724 0.650563 0.215783 -0.371078
Br12  Br    Br    0.727096 0.350655 0.781071 -0.371077
Br13  Br    Br    0.351277 0.274449 0.221754 -0.375548
Br14  Br    Br    0.650231 0.727213 0.782718 -0.375006
Br15  Br    Br    0.732097 0.345369 0.207245 -0.373065
Br16  Br    Br    0.270163 0.652199 0.787991 -0.372389
Br17  Br    Br    0.845373 0.232091 0.292761 -0.372994
Br18  Br    Br    0.152209 0.770149 0.712021 -0.372198
Br19  Br    Br    0.225547 0.148718 0.278247 -0.374846
Br20  Br    Br    0.772789 0.849772 0.717281 -0.374461
Br21  Br    Br    0.150552 0.771739 0.284231 -0.371285
Br22  Br    Br    0.850697 0.227070 0.718894 -0.371394
Br23  Br    Br    0.773988 0.850915 0.279522 -0.375435
Br24  Br    Br    0.228067 0.150967 0.715274 -0.374855
Br25  Br    Br    0.150477 0.228159 0.715994 -0.372050
Br26  Br    Br    0.851578 0.773764 0.278477 -0.371673
Br27  Br    Br    0.773108 0.149916 0.717966 -0.374015
Br28  Br    Br    0.228163 0.848907 0.285022 -0.373742
Br29  Br    Br    0.850428 0.772621 0.718268 -0.372137
Br30  Br    Br    0.147926 0.225850 0.276979 -0.372437
Br31  Br    Br    0.229812 0.847357 0.711418 -0.374377
Br32  Br    Br    0.767896 0.154751 0.292927 -0.373898

loop_
_geom_bond_atom_site_label_1
_geom_bond_atom_site_label_2
_ccdc_geom_bond_type
C185  H25   S    
C71   C104  A    
C24   C184  A    
C160  C176  A    
C173  H2    S    
C189  H29   S    
C50   C79   S    
C200  H40   S    
C82   Br2   S    
C93   Br13  S    
C108  Br28  S    
C152  O42   A    
C66   C97   A    
C19   H51   S    
C3    C179  A    
O46   Zn4   S    
C119  C130  S    
C117  C132  S    
C118  C131  S    
C157  C169  A    
C55   C74   S    
C158  C174  A    
C65   C96   A    
C155  C167  A    
C190  H30   S    
C67   C94   A    
C169  C174  A    
C104  Br24  S    
O27   Zn10  S    
C134  O14   A    
O3    Zn14  S    
C172  C175  A    
O4    Zn8   S    
C48   C50   A    
C100  C109  A    
C35   H67   S    
O21   Zn12  S    
C97   Br17  S    
C36   C62   A    
C104  C105  A    
C110  Br30  S    
C40   C58   A    
C46   H78   S    
O2    Zn11  S    
C97   C112  A    
C116  C133  S    
C139  O45   A    
C145  O29   A    
C102  Br22  S    
C99   C110  A    
C132  O8    A    
C153  C161  A    
C73   C88   A    
C162  C165  A    
C75   C86   A    
C129  O5    A    
C48   C208  A    
C160  C172  A    
C27   C187  A    
O33   Zn15  S    
C121  C153  S    
C67   C100  A    
C43   H75   S    
C171  H8    S    
C72   C103  A    
C76   C107  A    
C137  O47   A    
C29   C189  A    
C2    C208  A    
C151  O35   A    
C52   C77   S    
C19   C179  A    
C15   C149  S    
C17   C177  A    
C15   C191  A    
C9    C151  S    
C56   C73   S    
C11   C145  S    
O26   Zn15  S    
C95   Br15  S    
O29   Zn11  S    
C23   C55   A    
C100  Br20  S    
C115  C134  S    
C24   C56   A    
C130  O6    A    
C49   C80   S    
C7    C183  A    
C29   H61   S    
C51   C78   S    
C7    C201  A    
C46   C52   A    
O40   Zn5   S    
C22   H54   S    
C85   Br5   S    
C129  O9    A    
C84   C93   A    
C147  O37   A    
O35   Zn13  S    
C88   C89   A    
O50   Zn8   S    
C12   C198  A    
O16   Zn1   S    
C76   C85   A    
C36   H68   S    
C66   C95   A    
C26   H58   S    
C2    C144  S    
C149  O43   A    
C70   C91   A    
O11   Zn14  S    
O8    Zn9   S    
O2    Zn6   S    
C70   C101  A    
C22   C54   A    
C170  H5    S    
C140  O24   A    
C112  Br32  S    
C6    C182  A    
C192  H32   S    
C156  C168  A    
O2    Zn2   S    
C197  H37   S    
O48   Zn2   S    
C182  H22   S    
C38   C198  A    
C74   C87   A    
C106  Br26  S    
C150  O44   A    
C42   C56   A    
C168  H11   S    
C25   C57   A    
C85   C92   A    
C5    C139  S    
C28   C60   A    
C29   C61   A    
C120  C129  S    
C3    C205  A    
O15   Zn2   S    
C31   C63   A    
C32   C64   A    
C144  O28   A    
C17   C49   A    
C158  C170  A    
C113  C126  T    
C77   C84   A    
C155  C163  A    
C115  C128  T    
C117  C122  T    
C36   C196  A    
O7    Zn10  S    
C23   C183  A    
O12   Zn13  S    
C136  O20   A    
C162  H13   S    
C33   C63   A    
C103  Br23  S    
C34   C64   A    
C102  C107  A    
C35   C61   A    
C166  H9    S    
C37   C59   A    
C38   C60   A    
O18   Zn3   S    
C151  O41   A    
C201  H41   S    
C203  H43   S    
C42   C202  A    
C13   C147  S    
C17   H49   S    
C69   C92   A    
C89   Br9   S    
C7    C141  S    
C205  H45   S    
C91   Br11  S    
C46   C206  A    
C39   C199  A    
C146  O30   A    
C82   C95   A    
C132  O12   A    
C153  C165  A    
C133  O13   A    
C154  C162  A    
C5    C203  A    
C79   C82   A    
C142  O52   A    
C171  C176  A    
O1    Zn16  S    
C163  C168  A    
O32   Zn10  S    
C22   C182  A    
C134  O18   A    
C74   C105  A    
C26   C186  A    
C34   C194  A    
C71   C90   A    
C33   H65   S    
C60   C69   S    
O23   Zn14  S    
C10   C186  A    
C145  O39   A    
C78   C109  A    
C30   C190  A    
C179  H19   S    
C16   C194  A    
C177  H17   S    
C54   C75   S    
C14   C190  A    
C44   C54   A    
C139  O23   A    
C18   C178  A    
C44   C204  A    
C16   C150  S    
C2    C178  A    
C149  O33   A    
C1    C177  A    
C9    C199  A    
C37   H69   S    
C186  H26   S    
O3    Zn7   S    
C183  H23   S    
C174  H1    S    
C141  O51   A    
C138  O48   A    
C30   H62   S    
O47   Zn1   S    
C123  C155  S    
C163  H16   S    
C159  C171  A    
C79   C112  A    
C65   C98   A    
C86   C91   A    
C28   C188  A    
C25   C185  A    
C125  C157  S    
C58   C71   S    
O9    Zn12  S    
C90   Br10  S    
C44   H76   S    
C31   C191  A    
C45   H77   S    
C32   C192  A    
O34   Zn16  S    
C41   C55   A    
C195  H35   S    
C10   C152  S    
C78   C83   A    
C43   C53   A    
C27   H59   S    
C116  C127  T    
O4    Zn13  S    
C3    C137  S    
C120  C123  T    
C35   C195  A    
O28   Zn9   S    
C101  C108  A    
C63   C66   S    
C33   C193  A    
C75   C108  A    
C131  O11   A    
O20   Zn5   S    
C193  H33   S    
O24   Zn13  S    
C4    C180  A    
C5    C181  A    
O51   Zn5   S    
O10   Zn11  S    
C141  O25   A    
C47   C49   A    
C81   C96   A    
C80   C81   A    
C40   C200  A    
C119  C124  T    
C83   C94   A    
C180  H20   S    
C140  O46   A    
C6    C204  A    
O43   Zn2   S    
O2    Zn15  S    
C26   C58   A    
O22   Zn11  S    
O37   Zn4   S    
C130  O10   A    
C30   C62   A    
C31   H63   S    
C88   Br8   S    
C32   H64   S    
C53   C76   S    
C41   C201  A    
C18   C50   A    
C45   C205  A    
C164  C167  A    
O41   Zn8   S    
C135  O15   A    
C148  O32   A    
C136  O16   A    
C9    C185  A    
C176  H3    S    
C64   C65   S    
C47   H79   S    
C48   H80   S    
C164  H15   S    
C86   Br6   S    
O39   Zn6   S    
C198  H38   S    
C84   Br4   S    
C80   C111  A    
C144  O50   A    
C57   C72   S    
C6    C140  S    
O36   Zn14  S    
C18   H50   S    
C137  O21   A    
C59   C70   S    
C4    C138  S    
C15   C193  A    
C39   H71   S    
C40   H72   S    
C13   C195  A    
C87   C90   A    
C45   C51   A    
C154  C166  A    
C8    C142  S    
C143  O27   A    
O44   Zn1   S    
O5    Zn16  S    
C157  C173  A    
C170  C173  A    
C39   C57   A    
O30   Zn12  S    
C135  O19   A    
C20   C180  A    
C69   C102  A    
O4    Zn4   S    
C21   C181  A    
C169  H6    S    
C34   H66   S    
C62   C67   S    
C196  H36   S    
C11   C187  A    
C111  Br31  S    
C41   H73   S    
O19   Zn6   S    
C109  Br29  S    
C138  O22   A    
C152  O36   A    
C12   C188  A    
C14   C148  S    
C13   C189  A    
C12   C146  S    
O13   Zn8   S    
C207  H47   S    
O45   Zn3   S    
O1    Zn1   S    
C16   C192  A    
O3    Zn3   S    
O4    Zn9   S    
C38   H70   S    
C181  H21   S    
C113  C136  S    
C114  C135  S    
C23   H55   S    
C172  H7    S    
C161  C166  A    
C188  H28   S    
C105  Br25  S    
C8    C184  A    
C107  Br27  S    
C143  O49   A    
C159  C175  A    
C122  C154  S    
O17   Zn4   S    
O52   Zn6   S    
O38   Zn3   S    
C42   H74   S    
C146  O40   A    
C126  C158  S    
C191  H31   S    
C99   Br19  S    
C87   Br7   S    
C184  H24   S    
C114  C125  T    
C96   Br16  S    
C147  O31   A    
C118  C121  T    
O49   Zn7   S    
O42   Zn7   S    
C11   C197  A    
C1    C143  S    
O1    Zn5   S    
C148  O38   A    
C161  H14   S    
C24   H56   S    
C131  O7    A    
C81   Br1   S    
C175  H4    S    
C133  O17   A    
C83   Br3   S    
C165  H10   S    
C20   H52   S    
C101  Br21  S    
C21   H53   S    
C202  H42   S    
C37   C197  A    
C124  C156  S    
C43   C203  A    
C206  H46   S    
O1    Zn12  S    
C127  C159  S    
C167  H12   S    
C128  C160  S    
O3    Zn10  S    
C14   C196  A    
C98   C111  A    
C194  H34   S    
C92   Br12  S    
O6    Zn15  S    
C25   H57   S    
C4    C206  A    
C199  H39   S    
C208  H48   S    
O31   Zn9   S    
C68   C93   A    
C28   H60   S    
C47   C207  A    
C8    C202  A    
C68   C99   A    
C20   C52   A    
C27   C59   A    
C21   C53   A    
C72   C89   A    
C61   C68   S    
C73   C106  A    
C142  O26   A    
C98   Br18  S    
C103  C106  A    
O14   Zn7   S    
C77   C110  A    
C1    C207  A    
C150  O34   A    
C178  H18   S    
C10   C200  A    
C204  H44   S    
C19   C51   A    
C156  C164  A    
O25   Zn16  S    
C94   Br14  S    
C187  H27   S    
