data_mof_unit_66066.cif
_audit_creation_date              2012-12-10T18:40:58-0500
_audit_creation_method            fapswitch 2.2
_symmetry_space_group_name_H-M    P1
_symmetry_Int_Tables_number       1
_space_group_crystal_system       triclinic
_cell_length_a                    19.160564
_cell_length_b                    11.575132
_cell_length_c                    10.772877
_cell_angle_alpha                 90.000018
_cell_angle_beta                  90.0
_cell_angle_gamma                 89.999988
_cell_volume                      2389.2739177

loop_
_atom_site_label
_atom_site_type_symbol
_atom_type_description
_atom_site_fract_x
_atom_site_fract_y
_atom_site_fract_z
_atom_type_partial_charge
C1    C     C_R   0.500000 0.281150 0.500000 0.917206
C2    C     C_1   0.500000 0.940844 0.500000 0.008495
C3    C     C_1   0.500000 0.500003 0.069745 0.032769
C4    C     C_1   0.500000 0.500003 0.930254 0.032769
C5    C     C_R   0.253444 0.526427 0.612662 -0.189531
C6    C     C_R   0.746556 0.526428 0.387338 -0.189531
C7    C     C_R   0.746556 0.526425 0.612662 -0.189532
C8    C     C_R   0.253444 0.526427 0.387338 -0.189531
C9    C     C_R   0.182250 0.547890 0.612687 -0.159493
C10   C     C_R   0.817750 0.547891 0.387313 -0.159493
C11   C     C_R   0.817750 0.547889 0.612687 -0.159492
C12   C     C_R   0.500000 0.718850 0.500000 0.916003
C13   C     C_R   0.182250 0.547891 0.387313 -0.159493
C14   C     C_R   0.146121 0.558514 0.500000 0.085808
C15   C     C_R   0.853879 0.558514 0.500000 0.085807
C16   C     C_R   0.289413 0.515698 0.500000 -0.037505
C17   C     C_R   0.710587 0.515698 0.500000 -0.037505
C18   C     C_R   0.929574 0.572766 0.500000 0.291077
C19   C     C_R   0.070425 0.572766 0.500000 0.291078
C20   C     C_R   0.364890 0.501555 0.500000 0.862552
C21   C     C_R   0.635110 0.501555 0.500000 0.862553
C22   C     C_1   0.500000 0.161032 0.500000 -0.188092
C23   C     C_1   0.500000 0.838963 0.500000 -0.186357
C24   C     C_1   0.500000 0.059149 0.500000 0.008404
H1    H     H_    0.280325 0.519270 0.700783 0.160551
H2    H     H_    0.719675 0.519273 0.299217 0.160551
H3    H     H_    0.719675 0.519268 0.700783 0.160551
H4    H     H_    0.280325 0.519271 0.299217 0.160551
H5    H     H_    0.155591 0.555153 0.700974 0.152195
H6    H     H_    0.844409 0.555155 0.299026 0.152195
H7    H     H_    0.844409 0.555150 0.700974 0.152195
H8    H     H_    0.155591 0.555153 0.299026 0.152195
N1    N     N_1   0.500000 0.500000 0.180630 -0.081417
N2    N     N_1   0.500000 0.500000 0.819370 -0.081417
N3    N     N_R   0.034611 0.574488 0.391545 -0.177173
N4    N     N_R   0.965388 0.574486 0.608456 -0.177173
N5    N     N_R   0.965389 0.574488 0.391545 -0.177173
N6    N     N_R   0.034611 0.574486 0.608456 -0.177173
O1    O     O_R   0.500000 0.334450 0.602530 -0.605383
O2    O     O_R   0.500000 0.665550 0.397470 -0.606451
O3    O     O_R   0.500000 0.665550 0.602530 -0.606451
O4    O     O_R   0.500000 0.334450 0.397470 -0.605383
O5    O     O_R   0.398140 0.500000 0.602560 -0.616996
O6    O     O_R   0.601860 0.500000 0.397440 -0.616996
O7    O     O_R   0.601860 0.500000 0.602560 -0.616996
O8    O     O_R   0.398140 0.500000 0.397440 -0.616996
Zn1   Zn    Zn3+2 0.500000 0.500000 0.636920 0.981616
Zn2   Zn    Zn3+2 0.500000 0.500000 0.363080 0.981616

loop_
_geom_bond_atom_site_label_1
_geom_bond_atom_site_label_2
_ccdc_geom_bond_type
C6    C10   A    
C15   C18   S    
C9    C14   A    
C5    C9    A    
C8    C13   A    
C19   N6    A    
C21   O6    A    
C10   H6    S    
C13   H8    S    
C9    H5    S    
C16   C20   S    
N4    N6    A    
O3    Zn1   S    
C11   H7    S    
C1    C22   S    
C8    C16   A    
O4    Zn2   S    
C13   C14   A    
N1    Zn2   S    
C7    C11   A    
C12   C23   S    
C18   N4    A    
C6    H2    S    
C11   C15   A    
C5    H1    S    
C22   C24   T    
N3    N5    A    
C18   N5    A    
C21   O7    A    
C10   C15   A    
O7    Zn1   S    
C2    C24   S    
C8    H4    S    
C4    N2    T    
C3    N1    T    
C3    C4    S    
O8    Zn2   S    
C1    O4    A    
C20   O5    A    
C7    H3    S    
C12   O3    A    
O1    Zn1   S    
C2    C23   T    
O2    Zn2   S    
C6    C17   A    
C1    O1    A    
C5    C16   A    
C19   N3    A    
N2    Zn1   S    
C12   O2    A    
O5    Zn1   S    
C14   C19   S    
C20   O8    A    
O6    Zn2   S    
C7    C17   A    
C17   C21   S    
