data_mof_unit_60623.cif
_audit_creation_date              2012-10-26T18:34:45-0400
_audit_creation_method            fapswitch 2.2
_symmetry_space_group_name_H-M    P1
_symmetry_Int_Tables_number       1
_space_group_crystal_system       triclinic
_cell_length_a                    10.849119
_cell_length_b                    9.716921
_cell_length_c                    17.798297
_cell_angle_alpha                 89.994884
_cell_angle_beta                  93.732775
_cell_angle_gamma                 89.997183
_cell_volume                      1872.31654508

loop_
_atom_site_label
_atom_site_type_symbol
_atom_type_description
_atom_site_fract_x
_atom_site_fract_y
_atom_site_fract_z
_atom_type_partial_charge
C1    C     C_R   0.263438 0.500002 0.506927 0.563889
C2    C     C_R   0.491080 0.499995 0.643923 0.558711
C3    C     C_R   0.871264 0.499996 0.486603 -0.032353
C4    C     C_R   0.128736 0.500004 0.513397 -0.032353
C5    C     C_R   0.483264 0.623780 0.846851 -0.083500
C6    C     C_R   0.516735 0.376220 0.153149 -0.083500
C7    C     C_R   0.516693 0.623799 0.153135 -0.083500
C8    C     C_R   0.483306 0.376201 0.846865 -0.083500
C9    C     C_R   0.471361 0.624582 0.768315 0.085240
C10   C     C_R   0.528638 0.375418 0.231685 0.085239
C11   C     C_R   0.528594 0.624610 0.231669 0.085237
C12   C     C_R   0.736562 0.499998 0.493073 0.563889
C13   C     C_R   0.471406 0.375390 0.768331 0.085237
C14   C     C_R   0.478199 0.499988 0.727151 0.017877
C15   C     C_R   0.521801 0.500012 0.272849 0.017877
C16   C     C_R   0.419390 0.073890 0.452151 0.224898
C17   C     C_R   0.580610 0.926110 0.547848 0.224898
C18   C     C_R   0.580610 0.073868 0.547848 0.224893
C19   C     C_R   0.419390 0.926132 0.452152 0.224893
C20   C     C_R   0.492921 0.499993 0.885864 -0.010624
C21   C     C_R   0.507078 0.500007 0.114136 -0.010624
C22   C     C_1   0.498157 0.499998 0.966266 0.005664
C23   C     C_1   0.501842 0.500002 0.033734 0.005664
C24   C     C_R   0.062843 0.375238 0.510653 0.088889
C25   C     C_R   0.937156 0.624762 0.489347 0.088889
C26   C     C_R   0.937174 0.375233 0.489383 0.088889
C27   C     C_R   0.062826 0.624767 0.510617 0.088889
C28   C     C_R   0.508920 0.500005 0.356077 0.558711
Cu1   Cu    Cu3+1 0.500000 0.640660 0.500000 1.103266
Cu2   Cu    Cu3+1 0.500000 0.359340 0.500000 1.103266
H1    H     H_    0.478776 0.719695 0.877660 0.152474
H2    H     H_    0.521223 0.280305 0.122340 0.152474
H3    H     H_    0.521147 0.719714 0.122312 0.152469
H4    H     H_    0.478852 0.280286 0.877688 0.152469
I1    I     I_    0.407432 0.812687 0.721572 -0.214252
I2    I     I_    0.863918 0.806132 0.435968 -0.136780
I3    I     I_    0.863978 0.193852 0.436031 -0.136769
I4    I     I_    0.136022 0.806148 0.563969 -0.136770
I5    I     I_    0.592568 0.187313 0.278428 -0.214252
I6    I     I_    0.592433 0.812747 0.278387 -0.214288
I7    I     I_    0.407567 0.187253 0.721613 -0.214288
I8    I     I_    0.289529 0.177362 0.374771 -0.153013
I9    I     I_    0.710471 0.822638 0.625229 -0.153013
I10   I     I_    0.710472 0.177308 0.625226 -0.152991
I11   I     I_    0.289528 0.822692 0.374774 -0.152991
I12   I     I_    0.136082 0.193868 0.564032 -0.136780
N1    N     N_R   0.500000 0.852070 0.500000 -0.252667
N2    N     N_R   0.500000 0.147930 0.500000 -0.252667
O1    O     O_R   0.319640 0.618740 0.499990 -0.471147
O2    O     O_R   0.680360 0.381260 0.500010 -0.471147
O3    O     O_R   0.680360 0.618740 0.500010 -0.471149
O4    O     O_R   0.319640 0.381260 0.499990 -0.471149
O5    O     O_R   0.500000 0.618830 0.391250 -0.469681
O6    O     O_R   0.500000 0.381170 0.608750 -0.469681
O7    O     O_R   0.500000 0.618830 0.608750 -0.469683
O8    O     O_R   0.500000 0.381170 0.391250 -0.469683

loop_
_geom_bond_atom_site_label_1
_geom_bond_atom_site_label_2
_ccdc_geom_bond_type
C6    C10   A    
C6    H2    S    
C9    C14   A    
C19   I11   S    
C26   I3    S    
C5    C9    A    
C8    C13   A    
C3    C12   S    
C18   I10   S    
C25   C27   A    
C7    H3    S    
C12   O2    A    
C28   O5    A    
C1    C4    S    
C24   I12   S    
Cu2   O8    S    
C16   N2    A    
C13   I7    S    
C17   C18   A    
C28   O8    A    
C5    C20   A    
C8    H4    S    
C13   C14   A    
C6    C21   A    
C7    C11   A    
Cu2   O6    S    
C15   C28   S    
Cu1   Cu2   S    
Cu1   O5    S    
C8    C20   A    
C16   C19   A    
C2    C14   S    
Cu2   N2    S    
Cu1   N1    S    
C11   C15   A    
C2    O7    A    
C21   C23   S    
C2    O6    A    
C11   I6    S    
C4    C24   A    
C1    O4    A    
C19   N1    A    
C20   C22   S    
C25   I2    S    
C16   I8    S    
C3    C25   A    
C12   O3    A    
Cu1   O3    S    
C17   I9    S    
C9    I1    S    
Cu2   O4    S    
C22   C23   T    
Cu1   O1    S    
C4    C27   A    
C27   I4    S    
Cu2   O2    S    
C10   C15   A    
C7    C21   A    
Cu1   O7    S    
C1    O1    A    
C3    C26   A    
C17   N1    A    
C24   C26   A    
C10   I5    S    
C5    H1    S    
C18   N2    A    
