data_mof_unit_43603.cif
_audit_creation_date              2012-12-10T17:42:17-0500
_audit_creation_method            fapswitch 2.2
_symmetry_space_group_name_H-M    P1
_symmetry_Int_Tables_number       1
_space_group_crystal_system       triclinic
_cell_length_a                    15.036223
_cell_length_b                    13.747657
_cell_length_c                    10.78127
_cell_angle_alpha                 90.279692
_cell_angle_beta                  90.041802
_cell_angle_gamma                 89.94
_cell_volume                      2228.59854117

loop_
_atom_site_label
_atom_site_type_symbol
_atom_type_description
_atom_site_fract_x
_atom_site_fract_y
_atom_site_fract_z
_atom_type_partial_charge
C1    C     C_R   0.328748 0.499923 0.498123 0.849819
C2    C     C_3   0.534560 0.600484 0.929439 -0.352026
C3    C     C_R   0.813386 0.562915 0.423237 -0.261309
C4    C     C_R   0.767591 0.499981 0.501741 -0.045468
C5    C     C_R   0.813892 0.436681 0.579672 -0.178955
C6    C     C_R   0.906696 0.438015 0.582128 0.110790
C7    C     C_R   0.953221 0.498222 0.499073 0.071721
C8    C     C_R   0.905945 0.559943 0.418258 0.090338
C9    C     C_R   0.953226 0.379904 0.665939 -0.275975
C10   C     C_R   0.046247 0.379923 0.668484 -0.128339
C11   C     C_R   0.093802 0.437713 0.582173 0.045114
C12   C     C_R   0.503345 0.500041 0.260466 0.847572
C13   C     C_R   0.046618 0.496442 0.496308 0.050805
C14   C     C_R   0.092523 0.553190 0.407219 0.039679
C15   C     C_R   0.043681 0.609030 0.320500 0.011036
C16   C     C_R   0.951284 0.615079 0.330500 -0.244644
C17   C     C_R   0.186934 0.440594 0.580957 -0.194728
C18   C     C_R   0.232125 0.498862 0.496310 -0.081475
C19   C     C_R   0.185707 0.554031 0.409171 -0.195725
C20   C     C_R   0.424074 0.793108 0.535082 0.644444
C21   C     C_R   0.427125 0.205737 0.541857 0.665616
C22   C     C_R   0.572757 0.793497 0.457904 -0.084034
C23   C     C_R   0.572645 0.205999 0.457286 -0.073890
C24   C     C_R   0.574300 0.896198 0.456627 0.006059
C25   C     C_R   0.574311 0.103041 0.456232 0.001471
C26   C     C_R   0.671165 0.499965 0.501286 0.830592
C27   C     C_R   0.496484 0.947941 0.486387 0.062981
C28   C     C_R   0.496704 0.051464 0.487233 0.047771
C29   C     C_R   0.417967 0.896374 0.512627 -0.137329
C30   C     C_R   0.419555 0.103301 0.520451 -0.185500
C31   C     C_R   0.651126 0.948231 0.423321 -0.166282
C32   C     C_R   0.651030 0.050581 0.422664 -0.151083
C33   C     C_R   0.337493 0.051923 0.524827 -0.116140
C34   C     C_R   0.337003 0.949397 0.504915 -0.093144
C35   C     C_R   0.501516 0.500148 0.740109 0.871268
C36   C     C_3   0.407520 0.483274 0.074736 0.272354
C37   C     C_3   0.562828 0.412922 0.071249 0.266816
C38   C     C_3   0.407105 0.477320 0.929985 -0.249825
C39   C     C_3   0.568412 0.417974 0.926613 -0.227191
C40   C     C_3   0.543145 0.597957 0.070879 -0.446440
C41   C     C_3   0.505170 0.500427 0.123672 -0.110550
C42   C     C_3   0.503157 0.500117 0.878257 -0.111002
Cu1   Cu    Cu3+1 0.499990 0.597420 0.500010 1.001650
Cu2   Cu    Cu3+1 0.499990 0.402580 0.500010 1.012209
H1    H     H_    0.225663 0.399901 0.647439 0.198892
H2    H     H_    0.222762 0.598119 0.344271 0.165737
H3    H     H_    0.914138 0.658839 0.264827 0.163296
H4    H     H_    0.631089 0.753505 0.428662 0.151865
H5    H     H_    0.630474 0.245715 0.426314 0.173374
H6    H     H_    0.711460 0.909779 0.398218 0.148024
H7    H     H_    0.711268 0.088679 0.397079 0.153887
H8    H     H_    0.390178 0.408171 0.104511 0.116882
H9    H     H_    0.521610 0.347064 0.088061 0.109547
H10   H     H_    0.393954 0.400208 0.904462 0.073199
H11   H     H_    0.542469 0.347411 0.890660 0.095666
H12   H     H_    0.512056 0.663625 0.111050 0.188481
H13   H     H_    0.613289 0.609465 0.095929 0.171383
H14   H     H_    0.487556 0.658913 0.902573 0.224658
H15   H     H_    0.599184 0.622432 0.888737 0.219739
H16   H     H_    0.776738 0.611335 0.362613 0.129226
H17   H     H_    0.777524 0.387928 0.639789 0.160880
H18   H     H_    0.916879 0.333948 0.729720 0.151686
N1    N     N_R   0.499930 0.743810 0.499950 -0.216997
N2    N     N_R   0.499930 0.256190 0.499950 -0.227584
O1    O     O_R   0.370250 0.582280 0.500040 -0.566581
O2    O     O_R   0.370250 0.417720 0.500040 -0.514983
O3    O     O_R   0.499970 0.582270 0.317700 -0.610046
O4    O     O_R   0.499970 0.417730 0.317700 -0.572786
O5    O     O_R   0.629730 0.582260 0.499980 -0.596864
O6    O     O_R   0.629730 0.417740 0.499980 -0.596247
O7    O     O_R   0.500000 0.582270 0.682320 -0.516109
O8    O     O_R   0.500000 0.417730 0.682320 -0.604817
O9    O     O_3   0.336862 0.537933 0.130745 -0.544835
C43   C     C_3   0.345012 0.640082 0.125511 -0.191148
H19   H     H_    0.372264 0.666966 0.037193 0.168405
H20   H     H_    0.382156 0.667975 0.206723 0.179788
H21   H     H_    0.278288 0.672860 0.134050 0.189687
O10   O     O_3   0.643080 0.385967 0.133660 -0.538251
C44   C     C_3   0.703002 0.462262 0.158550 -0.205657
H22   H     H_    0.677752 0.510302 0.233221 0.108896
H23   H     H_    0.721299 0.503563 0.074500 0.160418
H24   H     H_    0.765546 0.429843 0.194073 0.191408
C45   C     C_2   0.090582 0.317705 0.762366 0.915420
O11   O     O_2   0.147274 0.259334 0.730258 -0.522405
O12   O     O_R   0.066296 0.322339 0.887431 -0.682756
H25   H     H_    0.021109 0.375244 0.905599 0.304288
C46   C     C_2   0.084849 0.653374 0.210450 0.797960
O13   O     O_2   0.075875 0.740365 0.190883 -0.584005
O14   O     O_R   0.127278 0.593520 0.123681 -0.708332
H26   H     H_    0.143890 0.629710 0.045356 0.340130
O15   O     O_3   0.373698 0.749294 0.627806 -0.540455
C47   C     C_3   0.281600 0.748891 0.604353 -0.179709
H27   H     H_    0.250590 0.689303 0.657656 0.204234
H28   H     H_    0.265815 0.732635 0.505941 0.147109
H29   H     H_    0.250572 0.816749 0.639638 0.174539
O16   O     O_3   0.362510 0.255088 0.607781 -0.551664
C48   C     C_3   0.371225 0.231740 0.734503 -0.271658
H30   H     H_    0.439247 0.247694 0.769680 0.140312
H31   H     H_    0.354355 0.154350 0.752192 0.171503
H32   H     H_    0.323591 0.276792 0.788130 0.220931
C49   C     C_2   0.251739 0.105407 0.530486 0.994416
O17   O     O_2   0.195034 0.081010 0.605329 -0.514400
O18   O     O_R   0.235598 0.182662 0.449551 -0.713249
H33   H     H_    0.175073 0.213510 0.463044 0.355239
C50   C     C_2   0.264306 0.907538 0.427018 0.807605
O19   O     O_2   0.186147 0.923687 0.450695 -0.545431
O20   O     O_R   0.286405 0.849036 0.324993 -0.790013
H34   H     H_    0.232131 0.824126 0.279061 0.352779
C51   C     C_2   0.329728 0.531368 0.872466 0.878561
O21   O     O_2   0.341173 0.607157 0.816499 -0.603849
O22   O     O_R   0.243927 0.493735 0.885478 -0.718841
H35   H     H_    0.197221 0.535326 0.843305 0.315546
C52   C     C_2   0.662941 0.420918 0.877120 0.882005
O23   O     O_2   0.690122 0.489896 0.817034 -0.656568
O24   O     O_R   0.719084 0.341771 0.899472 -0.717500
H36   H     H_    0.781168 0.351864 0.865451 0.317090

loop_
_geom_bond_atom_site_label_1
_geom_bond_atom_site_label_2
_ccdc_geom_bond_type
C22   H4    S    
C46   O13   D    
C49   O17   D    
C27   C29   A    
O9    C43   S    
Cu2   O2    S    
O22   H35   S    
C24   C27   A    
C6    C9    A    
C48   H30   S    
C19   H2    S    
Cu1   N1    S    
C7    C8    A    
O12   H25   S    
Cu2   N2    S    
C25   C28   A    
C12   O4    A    
C1    C18   S    
C43   H20   S    
C33   C49   S    
C17   H1    S    
C38   C42   S    
C51   O22   S    
C5    C6    A    
C23   H5    S    
O24   H36   S    
C10   C45   S    
C18   C19   A    
C8    C16   A    
C35   C42   S    
C21   N2    A    
C22   N1    A    
C39   H11   S    
C45   O11   D    
C40   H12   S    
C43   H21   S    
C1    O1    A    
O20   H34   S    
Cu2   O6    S    
C9    C10   A    
C21   C30   A    
C36   H8    S    
C37   H9    S    
C3    H16   S    
C25   C32   A    
C35   O7    A    
C49   O18   S    
C13   C14   A    
C36   C41   S    
C16   H3    S    
C48   H31   S    
C17   C18   A    
C39   C42   S    
C20   C29   A    
C12   O3    A    
C43   H19   S    
C9    H18   S    
C3    C8    A    
C36   O9    S    
O15   C47   S    
C44   H23   S    
O10   C44   S    
C39   C52   S    
C29   C34   A    
C47   H29   S    
C1    O2    A    
Cu1   Cu2   S    
C32   H7    S    
C12   C41   S    
C50   O20   S    
C31   C32   A    
C38   H10   S    
Cu1   O1    S    
O16   C48   S    
C47   H28   S    
C33   C34   A    
C5    H17   S    
C38   C51   S    
C40   C41   S    
C45   O12   S    
C35   O8    A    
C46   O14   S    
C26   O6    A    
C22   C24   A    
Cu2   O4    S    
C31   H6    S    
C3    C4    A    
O18   H33   S    
C48   H32   S    
C15   C46   S    
C52   O23   D    
C37   O10   S    
C23   N2    A    
Cu1   O7    S    
C40   H13   S    
C30   C33   A    
C2    H15   S    
C34   C50   S    
C14   C19   A    
C4    C5    A    
C11   C17   A    
C44   H24   S    
C4    C26   S    
C2    H14   S    
C6    C7    A    
C21   O16   S    
C50   O19   D    
C20   N1    A    
C28   C30   A    
C24   C31   A    
C37   C39   S    
C51   O21   D    
C11   C13   A    
C2    C42   S    
C36   C38   S    
C47   H27   S    
Cu2   O8    S    
C23   C25   A    
C37   C41   S    
C10   C11   A    
C44   H22   S    
C2    C40   S    
C20   O15   S    
C7    C13   A    
Cu1   O3    S    
C27   C28   A    
C26   O5    A    
C14   C15   A    
O14   H26   S    
Cu1   O5    S    
C15   C16   A    
C52   O24   S    
