data_mof_unit_5805.cif
_audit_creation_date              2012-12-10T19:43:25-0500
_audit_creation_method            fapswitch 2.2
_symmetry_space_group_name_H-M    P1
_symmetry_Int_Tables_number       1
_space_group_crystal_system       triclinic
_cell_length_a                    10.99025
_cell_length_b                    10.869744
_cell_length_c                    9.705793
_cell_angle_alpha                 88.536829
_cell_angle_beta                  90.843651
_cell_angle_gamma                 95.699107
_cell_volume                      1153.27185269

loop_
_atom_site_label
_atom_site_type_symbol
_atom_type_description
_atom_site_fract_x
_atom_site_fract_y
_atom_site_fract_z
_atom_type_partial_charge
C1    C     C_R   0.492092 0.262198 0.501942 0.873473
C2    C     C_R   0.885307 0.540576 0.962523 0.340121
C3    C     C_R   0.811181 0.442669 0.023767 -0.255632
C4    C     C_R   0.262041 0.492031 0.498743 0.774171
C5    C     C_R   0.772432 0.337632 0.947476 0.374749
C6    C     C_R   0.809123 0.330675 0.809648 0.370279
C7    C     C_R   0.884294 0.430059 0.750929 -0.082462
C8    C     C_R   0.341883 0.105498 0.707904 -0.119108
C9    C     C_R   0.268191 0.031696 0.798820 -0.067431
C10   C     C_R   0.259466 0.904105 0.789550 -0.140085
C11   C     C_R   0.327873 0.849193 0.692813 -0.148613
C12   C     C_R   0.244204 0.637532 0.007626 -0.204272
C13   C     C_R   0.405835 0.922072 0.601463 0.062830
C14   C     C_R   0.411312 0.053190 0.607406 0.116330
C15   C     C_R   0.477490 0.126676 0.504771 -0.162833
C16   C     C_R   0.488357 0.735944 0.497854 0.806733
C17   C     C_R   0.517529 0.070009 0.389360 -0.105373
C18   C     C_R   0.501845 0.943719 0.378335 0.387321
C19   C     C_R   0.465781 0.868033 0.493142 -0.222892
C20   C     C_R   0.647681 0.683704 0.138841 -0.162709
C21   C     C_R   0.705988 0.784977 0.065987 0.544744
C22   C     C_R   0.705869 0.785012 0.921709 0.070422
C23   C     C_R   0.936967 0.536550 0.388227 -0.173296
C24   C     C_R   0.647156 0.683426 0.854387 -0.201017
C25   C     C_R   0.570937 0.591290 0.924228 0.141268
C26   C     C_R   0.570880 0.591426 0.072685 0.063553
C27   C     C_R   0.435823 0.409753 0.073540 0.492979
C28   C     C_R   0.737300 0.498075 0.501224 0.825195
C29   C     C_R   0.435797 0.410840 0.927094 -0.077431
C30   C     C_R   0.240447 0.724538 0.110437 -0.008081
C31   C     C_R   0.182254 0.691507 0.234850 -0.081167
C32   C     C_R   0.124201 0.571533 0.254247 0.076307
C33   C     C_R   0.126327 0.484501 0.149609 0.485821
C34   C     C_R   0.870716 0.489879 0.502307 -0.122873
C35   C     C_R   0.185365 0.518879 0.026484 -0.163308
C36   C     C_3   0.775231 0.885291 0.836009 -0.606043
C37   C     C_3   0.111962 0.317977 0.686931 -0.793490
C38   C     C_R   0.932294 0.431793 0.610775 0.130384
C39   C     C_R   0.057316 0.415641 0.598887 0.144535
C40   C     C_R   0.126374 0.480996 0.494341 -0.092096
C41   C     C_R   0.063376 0.534818 0.384279 -0.004492
C42   C     C_R   0.920744 0.534050 0.827554 -0.254572
Cl1   Cl    Cl    0.679959 0.215785 0.027367 -0.481123
Cl2   Cl    Cl    0.762755 0.199580 0.711741 -0.593582
Cl3   Cl    Cl    0.495553 0.892469 0.209579 -0.607019
Cl4   Cl    Cl    0.347067 0.286372 0.154271 -0.544602
Cl5   Cl    Cl    0.791307 0.901749 0.160617 -0.471973
Cl6   Cl    Cl    0.053203 0.333159 0.168953 -0.535907
Cl7   Cl    Cl    0.939621 0.673074 0.050012 -0.698144
Cu1   Cu    Cu3+1 0.499990 0.499990 0.640660 0.943958
Cu2   Cu    Cu3+1 0.500010 0.500010 0.359340 1.023230
H1    H     H_    0.291703 0.661847 0.912730 0.157056
H2    H     H_    0.667376 0.676986 0.747793 0.216439
H3    H     H_    0.381746 0.338539 0.873977 0.147313
H4    H     H_    0.180717 0.759169 0.314673 0.145853
H5    H     H_    0.186034 0.453073 0.945934 0.155098
H6    H     H_    0.890083 0.577970 0.303211 0.205456
H7    H     H_    0.978944 0.610410 0.781969 0.180405
H8    H     H_    0.815135 0.964095 0.897517 0.304732
H9    H     H_    0.850528 0.846367 0.781885 0.210739
H10   H     H_    0.712263 0.921691 0.757927 0.247036
H11   H     H_    0.044161 0.265967 0.755448 0.260393
H12   H     H_    0.784129 0.447618 0.129947 0.208104
H13   H     H_    0.146451 0.249847 0.617870 0.233768
H14   H     H_    0.187669 0.358137 0.752014 0.216402
H15   H     H_    0.554349 0.124621 0.301794 0.253119
H16   H     H_    0.335787 0.202922 0.711641 0.132924
H17   H     H_    0.213114 0.073968 0.872446 0.180341
H18   H     H_    0.195221 0.847987 0.853734 0.162561
H19   H     H_    0.311152 0.750200 0.683426 0.152688
H20   H     H_    0.280114 0.818215 0.092219 0.200178
H21   H     H_    0.664864 0.680505 0.247280 0.216481
N1    N     N_R   0.501190 0.501210 0.147910 -0.220442
N2    N     N_R   0.501230 0.501290 0.852040 -0.222163
O1    O     O_R   0.499990 0.319640 0.618810 -0.566384
O2    O     O_R   0.500000 0.319660 0.381240 -0.523865
O3    O     O_R   0.319640 0.500000 0.618780 -0.611929
O4    O     O_R   0.319650 0.500020 0.381210 -0.551021
O5    O     O_R   0.500000 0.680340 0.618760 -0.610212
O6    O     O_R   0.500010 0.680360 0.381190 -0.554819
O7    O     O_R   0.680350 0.499980 0.618790 -0.590350
O8    O     O_R   0.680360 0.500000 0.381220 -0.602679

loop_
_geom_bond_atom_site_label_1
_geom_bond_atom_site_label_2
_ccdc_geom_bond_type
C18   Cl3   S    
C27   C29   A    
C36   H8    S    
Cu1   O5    S    
C42   H7    S    
C30   H20   S    
C11   H19   S    
C17   H15   S    
C21   C22   A    
C18   C19   A    
Cu1   N2    S    
C30   C31   A    
C29   H3    S    
C26   N1    A    
C15   C17   A    
C25   N2    A    
C7    C42   A    
Cu2   O6    S    
C4    C40   S    
C8    C9    A    
C37   H14   S    
C32   C41   S    
C1    C15   S    
C9    C10   A    
C5    Cl1   S    
C28   C34   S    
C6    Cl2   S    
C13   C14   A    
C12   H1    S    
Cu1   Cu2   S    
C38   C39   A    
C13   C19   A    
C28   O8    A    
C1    O1    A    
Cu2   O2    S    
C39   C40   A    
C29   N2    A    
C3    C5    A    
C24   H2    S    
C16   O6    A    
C4    O4    A    
C2    Cl7   S    
C31   C32   A    
C23   C34   A    
C17   C18   A    
C25   C26   A    
C24   C25   A    
C12   C35   A    
Cu2   O8    S    
C27   Cl4   S    
C40   C41   A    
C22   C24   A    
C36   H10   S    
Cu1   O3    S    
C37   H13   S    
C23   H6    S    
C8    C14   A    
C12   C30   A    
C35   H5    S    
C34   C38   A    
C1    O2    A    
Cu2   N1    S    
C36   H9    S    
C6    C7    A    
C3    H12   S    
C22   C36   S    
C23   C41   A    
C16   O5    A    
C32   C33   A    
C2    C3    A    
C28   O7    A    
C9    H17   S    
C4    O3    A    
C37   C39   S    
Cu1   O1    S    
C11   C13   A    
C5    C6    A    
C20   C26   A    
C2    C42   A    
C16   C19   S    
C33   C35   A    
C7    C38   S    
Cu2   O4    S    
C10   C11   A    
C10   H18   S    
C20   C21   A    
C8    H16   S    
C33   Cl6   S    
C37   H11   S    
C14   C15   A    
C20   H21   S    
C31   H4    S    
C27   N1    A    
Cu1   O7    S    
C21   Cl5   S    
