data_mof_unit_6364.cif
_audit_creation_date              2012-12-10T20:42:37-0500
_audit_creation_method            fapswitch 2.2
_symmetry_space_group_name_H-M    P1
_symmetry_Int_Tables_number       1
_space_group_crystal_system       triclinic
_cell_length_a                    8.880432
_cell_length_b                    10.680767
_cell_length_c                    9.923617
_cell_angle_alpha                 89.601834
_cell_angle_beta                  90.149941
_cell_angle_gamma                 91.118459
_cell_volume                      941.048382667

loop_
_atom_site_label
_atom_site_type_symbol
_atom_type_description
_atom_site_fract_x
_atom_site_fract_y
_atom_site_fract_z
_atom_type_partial_charge
C1    C     C_R   0.499241 0.260499 0.500184 0.888134
C2    C     C_R   0.373574 0.527577 0.929412 0.180715
C3    C     C_3   0.215747 0.471887 0.926641 -0.148763
C4    C     C_R   0.218944 0.499681 0.499870 0.927822
C5    C     C_3   0.215565 0.481909 0.081173 0.217984
C6    C     C_R   0.505387 0.739635 0.499546 0.880305
C7    C     C_R   0.780998 0.498207 0.500100 0.928626
C8    C     C_1   0.065484 0.498654 0.499829 -0.192935
C9    C     C_1   0.934475 0.498011 0.500117 -0.195711
C10   C     C_R   0.608962 0.067185 0.578291 -0.003801
C11   C     C_R   0.506109 0.128922 0.497457 -0.102118
C12   C     C_R   0.427844 0.934183 0.398562 -0.191139
C13   C     C_R   0.424282 0.063396 0.399147 -0.193130
C14   C     C_3   0.189782 0.337701 0.869655 -0.221616
C15   C     C_3   0.311321 0.241434 0.899446 -0.777224
C16   C     C_3   0.821425 0.889197 0.750898 -0.274799
C17   C     C_3   0.838252 0.750253 0.724445 -0.833156
C18   C     C_R   0.514405 0.871838 0.495441 -0.092773
C19   C     C_R   0.616386 0.939255 0.576166 -0.061877
C20   C     C_3   0.659780 0.934391 0.723788 0.532635
C21   C     C_3   0.645400 0.077635 0.724661 0.119983
C22   C     C_R   0.374883 0.531478 0.070329 0.053140
C23   C     C_R   0.628392 0.478056 0.072151 -0.077615
C24   C     C_R   0.628600 0.478823 0.928657 -0.145556
H1    H     H_    0.351567 0.111329 0.328559 0.162858
H2    H     H_    0.283420 0.153978 0.844076 0.214247
H3    H     H_    0.080659 0.300350 0.908963 0.225137
H4    H     H_    0.175098 0.343283 0.759148 0.204182
H5    H     H_    0.287061 0.346251 0.199854 0.369670
H6    H     H_    0.450708 0.902290 0.781526 0.313925
H7    H     H_    0.757273 0.694570 0.786443 0.305820
H8    H     H_    0.818787 0.732108 0.615935 0.241948
H9    H     H_    0.954284 0.721508 0.750620 0.223011
H10   H     H_    0.903707 0.940998 0.685891 0.207611
H11   H     H_    0.851240 0.908138 0.857786 0.221663
H12   H     H_    0.137278 0.553496 0.119127 0.112182
H13   H     H_    0.757024 0.233384 0.743732 0.351036
H14   H     H_    0.356377 0.883190 0.328282 0.161670
H15   H     H_    0.551469 0.111113 0.787199 0.113886
H16   H     H_    0.731438 0.458326 0.125779 0.160762
H17   H     H_    0.731847 0.459881 0.875734 0.144375
H18   H     H_    0.135814 0.538892 0.880652 0.098590
H19   H     H_    0.422728 0.275478 0.865168 0.258817
H20   H     H_    0.318380 0.216769 0.007600 0.271884
N1    N     N_R   0.499010 0.499140 0.142800 -0.117776
N2    N     N_R   0.499010 0.499180 0.857150 -0.096914
O1    O     O_R   0.500020 0.316790 0.614690 -0.640007
O2    O     O_3   0.552478 0.872813 0.806683 -0.757020
O3    O     O_3   0.781818 0.143232 0.745608 -0.787234
O4    O     O_R   0.500000 0.316760 0.385350 -0.628024
O5    O     O_R   0.285350 0.500020 0.614650 -0.633081
O6    O     O_R   0.285340 0.499980 0.385310 -0.612982
O7    O     O_R   0.500000 0.683240 0.614650 -0.577367
O8    O     O_R   0.499980 0.683210 0.385310 -0.618923
O9    O     O_R   0.714660 0.500020 0.614690 -0.639271
O10   O     O_R   0.714650 0.499980 0.385350 -0.613329
O11   O     O_3   0.195242 0.365849 0.147775 -0.742917
Zn1   Zn    Zn3+2 0.500010 0.500020 0.653130 0.935354
Zn2   Zn    Zn3+2 0.499990 0.499980 0.346870 0.949085

loop_
_geom_bond_atom_site_label_1
_geom_bond_atom_site_label_2
_ccdc_geom_bond_type
C2    C22   A    
O7    Zn1   S    
C3    H18   S    
C14   H4    S    
C23   N1    A    
O6    Zn2   S    
C7    O9    A    
C14   H3    S    
H13   O3    S    
C1    O4    A    
C19   C20   S    
C21   H15   S    
O10   Zn2   S    
C5    O11   S    
C10   C19   A    
C16   C20   S    
C24   N2    A    
C20   C21   S    
C21   O3    S    
C2    C3    S    
C15   H19   S    
C23   C24   A    
C16   H11   S    
O5    Zn1   S    
N2    Zn1   S    
O1    Zn1   S    
C24   H17   S    
C11   C13   A    
C13   H1    S    
C20   O2    S    
C3    C14   S    
C17   H9    S    
C7    O10   A    
C6    O8    A    
C6    C18   S    
O4    Zn2   S    
H6    O2    S    
C4    O6    A    
C15   H20   S    
O8    Zn2   S    
C10   C21   S    
C12   H14   S    
C17   H7    S    
C16   C17   S    
C10   C11   A    
C6    O7    A    
C23   H16   S    
C5    H12   S    
C22   N1    A    
C12   C13   A    
N1    Zn2   S    
C18   C19   A    
O9    Zn1   S    
C12   C18   A    
C4    C8    S    
C7    C9    S    
C17   H8    S    
C14   C15   S    
C1    O1    A    
C15   H2    S    
C4    O5    A    
C16   H10   S    
C2    N2    A    
C5    C22   S    
H5    O11   S    
C8    C9    T    
C3    C5    S    
C1    C11   S    
