data_mof_unit_32699.cif
_audit_creation_date              2012-12-10T16:56:34-0500
_audit_creation_method            fapswitch 2.2
_symmetry_space_group_name_H-M    P1
_symmetry_Int_Tables_number       1
_space_group_crystal_system       triclinic
_cell_length_a                    7.772522
_cell_length_b                    8.575438
_cell_length_c                    15.709573
_cell_angle_alpha                 90.88341
_cell_angle_beta                  85.903195
_cell_angle_gamma                 93.627361
_cell_volume                      1042.25636529

loop_
_atom_site_label
_atom_site_type_symbol
_atom_type_description
_atom_site_fract_x
_atom_site_fract_y
_atom_site_fract_z
_atom_type_partial_charge
C1    C     C_R   0.545758 0.794719 0.497811 0.961571
C2    C     C_3   0.403132 0.376613 0.029118 0.257355
C3    C     C_1   0.506503 0.499565 0.750665 -0.178820
C4    C     C_1   0.493501 0.500453 0.249335 -0.178820
C5    C     C_3   0.337682 0.506771 0.975497 -0.213435
C6    C     C_3   0.662324 0.493268 0.024502 -0.213428
C7    C     C_3   0.504070 0.499546 0.916901 0.150221
C8    C     C_3   0.495935 0.500493 0.083100 0.150214
C9    C     C_1   0.506992 0.499375 0.825948 -0.053343
C10   C     C_1   0.493012 0.500653 0.174052 -0.053344
C11   C     C_3   0.707499 0.764028 0.936250 -0.933508
C12   C     C_R   0.454242 0.205281 0.502188 0.961570
C13   C     C_3   0.292509 0.236012 0.063750 -0.933453
C14   C     C_R   0.502201 0.500062 0.661934 0.902563
C15   C     C_R   0.497800 0.499939 0.338066 0.902563
C16   C     C_2   0.569846 0.958197 0.496559 -0.378245
C17   C     C_2   0.430154 0.041803 0.503440 -0.378246
C18   C     C_3   0.431794 0.632323 0.030836 -0.213830
C19   C     C_3   0.568212 0.367715 0.969164 -0.213834
C20   C     C_3   0.596874 0.623426 0.970884 0.257354
H1    H     H_    0.794827 0.489158 0.046204 0.146745
H2    H     H_    0.622567 0.259279 0.942346 0.147854
H3    H     H_    0.701794 0.009217 0.489992 0.181100
H4    H     H_    0.298206 0.990783 0.510007 0.181100
H5    H     H_    0.013384 0.382010 0.436414 0.193041
H6    H     H_    0.986615 0.617990 0.563586 0.193041
H7    H     H_    0.205181 0.510881 0.953795 0.146753
H8    H     H_    0.758642 0.833738 0.990032 0.242779
H9    H     H_    0.817079 0.723940 0.894093 0.245483
H10   H     H_    0.628230 0.837949 0.899229 0.244459
H11   H     H_    0.241522 0.166205 0.009963 0.242768
H12   H     H_    0.371735 0.162173 0.100846 0.244450
H13   H     H_    0.182817 0.276103 0.105837 0.245465
H14   H     H_    0.377439 0.740759 0.057653 0.147855
N1    N     N_2   0.950320 0.457950 0.477300 -0.172703
N2    N     N_2   0.049680 0.542050 0.522700 -0.172703
O1    O     O_R   0.389250 0.738570 0.505570 -0.613142
O2    O     O_R   0.610750 0.261430 0.494430 -0.613142
O3    O     O_R   0.678390 0.711630 0.491020 -0.630741
O4    O     O_R   0.321610 0.288370 0.508980 -0.630741
O5    O     O_R   0.355460 0.513480 0.630490 -0.611997
O6    O     O_R   0.644540 0.486520 0.369510 -0.611999
O7    O     O_R   0.644600 0.486540 0.615950 -0.621298
O8    O     O_R   0.355400 0.513460 0.384050 -0.621298
Zn1   Zn    Zn3+2 0.306940 0.517990 0.509710 0.947882
Zn2   Zn    Zn3+2 0.693060 0.482010 0.490290 0.947881

loop_
_geom_bond_atom_site_label_1
_geom_bond_atom_site_label_2
_ccdc_geom_bond_type
C12   C17   S    
C12   O4    A    
C13   H13   S    
C3    C9    T    
C6    C20   S    
N1    Zn2   S    
C13   H12   S    
C18   C20   S    
N1    N2    D    
C1    O1    A    
C4    C15   S    
N2    Zn1   S    
C1    C16   S    
C11   H10   S    
C6    C19   S    
C18   H14   S    
C3    C14   S    
C11   H8    S    
H5    N1    S    
C14   O5    A    
H6    N2    S    
C15   O8    A    
C16   H3    S    
C7    C19   S    
O3    Zn2   S    
C12   O2    A    
O4    Zn1   S    
O7    Zn2   S    
C2    C8    S    
C11   C20   S    
O2    Zn2   S    
C2    C5    S    
C1    O3    A    
O1    Zn1   S    
C17   H4    S    
C7    C9    S    
C19   H2    S    
O8    Zn1   S    
C11   H9    S    
C8    C10   S    
C7    C20   S    
O6    Zn2   S    
C5    C7    S    
C2    C13   S    
O5    Zn1   S    
C14   O7    A    
C6    C8    S    
C5    C18   S    
C2    C19   S    
C5    H7    S    
C6    H1    S    
C4    C10   T    
C13   H11   S    
C8    C18   S    
C15   O6    A    
C16   C17   D    
