data_mof_unit_36330.cif
_audit_creation_date              2012-12-11T14:14:32-0500
_audit_creation_method            fapswitch 2.2
_symmetry_space_group_name_H-M    P1
_symmetry_Int_Tables_number       1
_space_group_crystal_system       triclinic
_cell_length_a                    24.42992
_cell_length_b                    17.277566
_cell_length_c                    15.558743
_cell_angle_alpha                 90.000025
_cell_angle_beta                  129.118119
_cell_angle_gamma                 89.999962
_cell_volume                      5095.12867301

loop_
_atom_site_label
_atom_site_type_symbol
_atom_type_description
_atom_site_fract_x
_atom_site_fract_y
_atom_site_fract_z
_atom_type_partial_charge
C1    C     C_R   0.350224 0.360616 0.244145 -0.110201
C2    C     C_R   0.649776 0.360616 0.755855 -0.110202
C3    C     C_R   0.850224 0.860616 0.244145 -0.110201
C4    C     C_R   0.149776 0.860616 0.755855 -0.110202
C5    C     C_R   0.409077 0.639564 0.592998 -0.121561
C6    C     C_R   0.590923 0.639564 0.407002 -0.121561
C7    C     C_R   0.909076 0.139564 0.592998 -0.121560
C8    C     C_R   0.090923 0.139564 0.407002 -0.121561
C9    C     C_R   0.355219 0.680746 0.500281 0.135261
C10   C     C_R   0.644781 0.680746 0.499719 0.135261
C11   C     C_R   0.855219 0.180746 0.500281 0.135261
C12   C     C_R   0.144781 0.180745 0.499719 0.135261
C13   C     C_R   0.352922 0.626480 0.136527 0.157055
C14   C     C_R   0.647078 0.626480 0.863473 0.157055
C15   C     C_R   0.852922 0.126480 0.136527 0.157055
C16   C     C_R   0.147078 0.126480 0.863473 0.157055
C17   C     C_2   0.649560 0.795021 0.412338 -0.112629
C18   C     C_2   0.350440 0.795022 0.587662 -0.112629
C19   C     C_2   0.149560 0.295021 0.412338 -0.112629
C20   C     C_2   0.850440 0.295021 0.587662 -0.112629
C21   C     C_2   0.678441 0.750744 0.502390 -0.189270
C22   C     C_2   0.321559 0.750744 0.497610 -0.189270
C23   C     C_2   0.178441 0.250744 0.502390 -0.189270
C24   C     C_2   0.821558 0.250744 0.497610 -0.189270
C25   C     C_2   0.193733 0.347205 0.404977 -0.133008
C26   C     C_2   0.806267 0.347205 0.595023 -0.133008
C27   C     C_2   0.693733 0.847205 0.404977 -0.133008
C28   C     C_2   0.306267 0.847205 0.595023 -0.133008
C29   C     C_2   0.255044 0.374303 0.496149 -0.173781
C30   C     C_2   0.744956 0.374303 0.503851 -0.173781
C31   C     C_2   0.755044 0.874303 0.496149 -0.173781
C32   C     C_2   0.244956 0.874303 0.503851 -0.173780
C33   C     C_2   0.641573 0.243733 0.847110 -0.216106
C34   C     C_2   0.358427 0.243733 0.152890 -0.216106
C35   C     C_2   0.141573 0.743733 0.847110 -0.216106
C36   C     C_2   0.858427 0.743733 0.152890 -0.216106
C37   C     C_2   0.695995 0.206108 0.866065 -0.107042
C38   C     C_2   0.304005 0.206108 0.133935 -0.107043
C39   C     C_2   0.195995 0.706108 0.866065 -0.107042
C40   C     C_2   0.804005 0.706108 0.133935 -0.107043
C41   C     C_2   0.307386 0.653760 0.021922 -0.222594
C42   C     C_2   0.692614 0.653760 0.978078 -0.222595
C43   C     C_2   0.807386 0.153760 0.021922 -0.222594
C44   C     C_2   0.192614 0.153760 0.978078 -0.222595
C45   C     C_R   0.615801 0.401128 0.409206 0.168800
C46   C     C_R   0.384199 0.401128 0.590793 0.168801
C47   C     C_R   0.115801 0.901128 0.409206 0.168801
C48   C     C_R   0.884199 0.901128 0.590793 0.168801
C49   C     C_2   0.237261 0.654281 0.960888 -0.107572
C50   C     C_2   0.762739 0.654281 0.039112 -0.107572
C51   C     C_2   0.737261 0.154281 0.960888 -0.107572
C52   C     C_2   0.262739 0.154280 0.039112 -0.107572
C53   C     C_R   0.688771 0.399791 0.592622 -0.192827
C54   C     C_R   0.311229 0.399791 0.407378 -0.192827
C55   C     C_R   0.188771 0.899791 0.592622 -0.192827
C56   C     C_R   0.811229 0.899791 0.407378 -0.192827
C57   C     C_R   0.558318 0.358006 0.755354 -0.174526
C58   C     C_R   0.441682 0.358006 0.244646 -0.174525
C59   C     C_R   0.058318 0.858006 0.755354 -0.174526
C60   C     C_R   0.941682 0.858006 0.244646 -0.174525
C61   C     C_R   0.383126 0.316836 0.213622 0.151523
C62   C     C_R   0.616874 0.316836 0.786378 0.151523
C63   C     C_R   0.883126 0.816836 0.213622 0.151523
C64   C     C_R   0.116874 0.816836 0.786378 0.151523
C65   C     C_R   0.685031 0.386735 0.501776 0.104075
C66   C     C_R   0.314969 0.386735 0.498224 0.104075
C67   C     C_R   0.185031 0.886735 0.501776 0.104075
C68   C     C_R   0.814969 0.886735 0.498224 0.104075
C69   C     C_R   0.333687 0.639462 0.407639 -0.141919
C70   C     C_R   0.666313 0.639462 0.592360 -0.141919
C71   C     C_R   0.833687 0.139462 0.407639 -0.141919
C72   C     C_R   0.166313 0.139462 0.592360 -0.141919
C73   C     C_R   0.423527 0.608253 0.198310 -0.165667
C74   C     C_R   0.576473 0.608253 0.801690 -0.165667
C75   C     C_R   0.923527 0.108253 0.198310 -0.165667
C76   C     C_R   0.076473 0.108253 0.801690 -0.165667
C77   C     C_R   0.667578 0.606034 0.801369 -0.123779
C78   C     C_R   0.332421 0.606034 0.198631 -0.123779
C79   C     C_R   0.167579 0.106034 0.801369 -0.123779
C80   C     C_R   0.832421 0.106034 0.198631 -0.123779
H1    H     H_    0.302359 0.347343 0.231234 0.087684
H2    H     H_    0.697641 0.347344 0.768766 0.087684
H3    H     H_    0.802359 0.847343 0.231234 0.087684
H4    H     H_    0.197641 0.847344 0.768766 0.087684
H5    H     H_    0.731620 0.760507 0.578346 0.131304
H6    H     H_    0.268380 0.760507 0.421653 0.131304
H7    H     H_    0.231620 0.260507 0.578346 0.131304
H8    H     H_    0.768380 0.260507 0.421653 0.131304
H9    H     H_    0.181470 0.349810 0.324827 0.120277
H10   H     H_    0.818530 0.349810 0.675173 0.120277
H11   H     H_    0.681470 0.849810 0.324827 0.120277
H12   H     H_    0.318530 0.849810 0.675173 0.120277
H13   H     H_    0.264626 0.375898 0.574231 0.159360
H14   H     H_    0.735374 0.375898 0.425769 0.159359
H15   H     H_    0.764626 0.875898 0.574231 0.159360
H16   H     H_    0.235374 0.875898 0.425769 0.159359
H17   H     H_    0.211753 0.627949 0.990778 0.125390
H18   H     H_    0.788247 0.627948 0.009222 0.125390
H19   H     H_    0.711753 0.127949 0.990778 0.125390
H20   H     H_    0.288247 0.127948 0.009222 0.125390
H21   H     H_    0.717886 0.223900 0.826369 0.127388
H22   H     H_    0.282114 0.223900 0.173631 0.127388
H23   H     H_    0.217886 0.723900 0.826369 0.127387
H24   H     H_    0.782114 0.723900 0.173631 0.127388
H25   H     H_    0.332217 0.680877 0.991169 0.129374
H26   H     H_    0.667783 0.680877 0.008831 0.129375
H27   H     H_    0.832217 0.180877 0.991169 0.129374
H28   H     H_    0.167783 0.180877 0.008831 0.129375
H29   H     H_    0.620465 0.225859 0.888093 0.131272
H30   H     H_    0.379535 0.225859 0.111907 0.131272
H31   H     H_    0.120465 0.725859 0.888093 0.131272
H32   H     H_    0.879535 0.725859 0.111907 0.131272
H33   H     H_    0.736422 0.407064 0.677110 0.103525
H34   H     H_    0.263578 0.407064 0.322890 0.103525
H35   H     H_    0.236422 0.907064 0.677110 0.103525
H36   H     H_    0.763578 0.907064 0.322890 0.103525
H37   H     H_    0.520765 0.340363 0.766237 0.130407
H38   H     H_    0.479235 0.340363 0.233763 0.130407
H39   H     H_    0.020765 0.840363 0.766237 0.130407
H40   H     H_    0.979235 0.840363 0.233763 0.130407
H41   H     H_    0.291730 0.654300 0.322095 0.097843
H42   H     H_    0.708270 0.654300 0.677905 0.097843
H43   H     H_    0.791730 0.154300 0.322095 0.097843
H44   H     H_    0.208270 0.154300 0.677905 0.097843
H45   H     H_    0.452951 0.606334 0.167940 0.092013
H46   H     H_    0.547049 0.606334 0.832060 0.092013
H47   H     H_    0.952951 0.106334 0.167940 0.092013
H48   H     H_    0.047049 0.106334 0.832060 0.092013
H49   H     H_    0.720721 0.602943 0.829232 0.080371
H50   H     H_    0.279278 0.602943 0.170768 0.080371
H51   H     H_    0.220721 0.102943 0.829232 0.080371
H52   H     H_    0.779279 0.102943 0.170768 0.080371
H53   H     H_    0.436300 0.653607 0.678856 0.090640
H54   H     H_    0.563700 0.653607 0.321144 0.090640
H55   H     H_    0.936300 0.153607 0.678856 0.090640
H56   H     H_    0.063700 0.153607 0.321144 0.090640
H57   H     H_    0.597015 0.782597 0.336247 0.120141
H58   H     H_    0.402985 0.782597 0.663753 0.120141
H59   H     H_    0.097015 0.282598 0.336247 0.120141
H60   H     H_    0.902985 0.282598 0.663753 0.120141
N1    N     N_R   0.389060 0.424180 0.294540 -0.041251
N2    N     N_R   0.610940 0.424180 0.705460 -0.041251
N3    N     N_R   0.889060 0.924180 0.294540 -0.041251
N4    N     N_R   0.110940 0.924180 0.705460 -0.041251
N5    N     N_R   0.579670 0.423790 0.443360 -0.075571
N6    N     N_R   0.420330 0.423790 0.556640 -0.075571
N7    N     N_R   0.079670 0.923790 0.443360 -0.075571
N8    N     N_R   0.920330 0.923790 0.556640 -0.075571
N9    N     N_R   0.625470 0.423490 0.556600 -0.051576
N10   N     N_R   0.374530 0.423490 0.443400 -0.051576
N11   N     N_R   0.125470 0.923490 0.556600 -0.051576
N12   N     N_R   0.874530 0.923490 0.443400 -0.051576
N13   N     N_R   0.555250 0.423100 0.705420 -0.045480
N14   N     N_R   0.444750 0.423100 0.294580 -0.045480
N15   N     N_R   0.055250 0.923100 0.705420 -0.045480
N16   N     N_R   0.944750 0.923100 0.294580 -0.045480
N17   N     N_R   0.375210 0.577180 0.443400 -0.040471
N18   N     N_R   0.624790 0.577180 0.556600 -0.040471
N19   N     N_R   0.875210 0.077180 0.443400 -0.040471
N20   N     N_R   0.124790 0.077180 0.556600 -0.040471
N21   N     N_R   0.445430 0.577570 0.294580 -0.040886
N22   N     N_R   0.554570 0.577570 0.705420 -0.040886
N23   N     N_R   0.945430 0.077570 0.294580 -0.040886
N24   N     N_R   0.054570 0.077570 0.705420 -0.040886
N25   N     N_R   0.611620 0.576500 0.705460 -0.040502
N26   N     N_R   0.388380 0.576500 0.294540 -0.040502
N27   N     N_R   0.111620 0.076500 0.705460 -0.040502
N28   N     N_R   0.888380 0.076500 0.294540 -0.040502
N29   N     N_R   0.421010 0.576890 0.556640 -0.048956
N30   N     N_R   0.578990 0.576890 0.443360 -0.048955
N31   N     N_R   0.921010 0.076890 0.556640 -0.048956
N32   N     N_R   0.078990 0.076890 0.443360 -0.048955
Ni1   Ni    Ni4+2 0.383200 0.500680 0.370150 0.207548
Ni2   Ni    Ni4+2 0.616800 0.500680 0.629850 0.207547
Ni3   Ni    Ni4+2 0.883200 0.000680 0.370150 0.207548
Ni4   Ni    Ni4+2 0.116800 0.000680 0.629850 0.207547
Ni5   Ni    Ni4+2 0.512440 0.500680 0.370150 0.205113
Ni6   Ni    Ni4+2 0.487560 0.500680 0.629850 0.205113
Ni7   Ni    Ni4+2 0.012440 0.000680 0.370150 0.205113
Ni8   Ni    Ni4+2 0.987560 0.000680 0.629850 0.205113
N33   N     N_2   0.594154 0.419867 0.302762 -0.113136
H61   H     H_    0.549620 0.453951 0.254345 0.165993
C81   C     C_3   0.598289 0.358641 0.243325 -1.000388
H62   H     H_    0.544855 0.345403 0.165011 0.250404
H63   H     H_    0.620912 0.304461 0.292819 0.255345
H64   H     H_    0.631776 0.378152 0.222167 0.262595
N34   N     N_2   0.405846 0.419867 0.697238 -0.113136
H65   H     H_    0.450380 0.453951 0.745655 0.165993
C82   C     C_3   0.401711 0.358641 0.756675 -1.000392
H66   H     H_    0.455145 0.345402 0.834988 0.250404
H67   H     H_    0.379087 0.304461 0.707181 0.255346
H68   H     H_    0.368225 0.378152 0.777834 0.262596
N35   N     N_2   0.094154 0.919867 0.302762 -0.113136
H69   H     H_    0.049620 0.953951 0.254345 0.165993
C83   C     C_3   0.098288 0.858641 0.243325 -1.000390
H70   H     H_    0.044855 0.845402 0.165012 0.250404
H71   H     H_    0.120913 0.804461 0.292819 0.255346
H72   H     H_    0.131775 0.878152 0.222166 0.262595
N36   N     N_2   0.905846 0.919867 0.697238 -0.113136
H73   H     H_    0.950380 0.953951 0.745655 0.165993
C84   C     C_3   0.901712 0.858641 0.756675 -1.000393
H74   H     H_    0.955145 0.845402 0.834988 0.250405
H75   H     H_    0.879087 0.804461 0.707181 0.255346
H76   H     H_    0.868225 0.878152 0.777834 0.262596

loop_
_geom_bond_atom_site_label_1
_geom_bond_atom_site_label_2
_ccdc_geom_bond_type
N28   Ni3   S    
C15   C75   A    
C80   H52   S    
C7    N31   A    
C8    H56   S    
C84   H75   S    
C84   H74   S    
C35   C39   D    
N3    Ni3   S    
C13   C41   S    
C45   N33   S    
C57   C62   A    
C54   N10   A    
C74   H46   S    
N33   H61   S    
C7    C11   A    
N17   Ni1   S    
C12   C23   S    
C59   C64   A    
C41   H25   S    
C60   C63   A    
C45   N5    A    
C14   C74   A    
C71   H43   S    
C9    C69   A    
C46   C66   A    
C81   H63   S    
C82   H67   S    
C37   C51   S    
N16   Ni7   S    
C11   C71   A    
C9    C22   S    
C38   C52   S    
C77   N25   A    
N22   N25   A    
C16   C76   A    
C54   H34   S    
C11   C24   S    
C58   H38   S    
N6    Ni6   S    
C75   N23   A    
N9    Ni2   S    
C14   C77   A    
C41   C49   D    
C18   H58   S    
C73   N21   A    
C58   N14   A    
N17   N29   A    
N6    N10   A    
N12   Ni3   S    
N18   Ni2   S    
C20   C24   D    
C33   C62   S    
N35   C83   S    
C36   H32   S    
C69   N17   A    
C27   H11   S    
C35   C64   S    
C69   H41   S    
C46   N34   S    
C56   N12   A    
C36   C63   S    
C53   C65   A    
C16   C44   S    
N21   N26   A    
N24   Ni8   S    
C14   C42   S    
C83   H72   S    
C44   C52   D    
C58   C61   A    
N33   C81   S    
C12   C72   A    
N36   H73   S    
N8    Ni8   S    
C23   H7    S    
C72   H44   S    
C53   N9    A    
N20   Ni4   S    
C47   C67   A    
C29   H13   S    
C53   H33   S    
C47   N7    A    
C44   H28   S    
C10   C21   S    
C25   C29   D    
C31   C68   S    
C21   H5    S    
C50   H18   S    
C78   N26   A    
N30   Ni5   S    
C27   C31   D    
N13   Ni6   S    
C17   C27   S    
C28   C32   D    
C3    N3    A    
N2    Ni2   S    
C81   H64   S    
C74   N22   A    
C59   N15   A    
N18   N30   A    
C77   H49   S    
C48   N36   S    
C6    C10   A    
N25   Ni2   S    
C56   C68   A    
C57   N13   A    
C52   H20   S    
C34   C61   S    
C33   C37   D    
C83   H70   S    
C70   N18   A    
C82   H68   S    
C19   C23   D    
C81   H62   S    
C60   N16   A    
C76   N24   A    
C5    C9    A    
C40   H24   S    
C51   H19   S    
C24   H8    S    
C70   H42   S    
C15   C80   A    
C4    H4    S    
C36   C40   D    
C8    C12   A    
C79   H51   S    
N4    Ni4   S    
C56   H36   S    
C18   C28   S    
C28   H12   S    
C43   H27   S    
C48   C68   A    
C55   N11   A    
C42   H26   S    
N19   N31   A    
C42   C50   D    
C32   C67   S    
C10   C70   A    
N32   Ni7   S    
C19   H59   S    
C39   C49   S    
C13   C73   A    
C26   C30   D    
C3    C63   A    
N1    Ni1   S    
C3    H3    S    
N19   Ni3   S    
C2    N2    A    
C84   H76   S    
N31   Ni8   S    
C2    H2    S    
C33   H29   S    
N21   Ni5   S    
N34   C82   S    
C73   H45   S    
N29   Ni6   S    
C35   H31   S    
N15   Ni8   S    
C57   H37   S    
C6    N30   A    
C13   C78   A    
N26   Ni1   S    
C59   H39   S    
N11   Ni4   S    
C32   H16   S    
C34   C38   D    
C47   N35   S    
N24   N27   A    
N8    N12   A    
C1    C61   A    
C4    N4    A    
C55   C67   A    
C39   H23   S    
C54   C66   A    
C5    H53   S    
C26   H10   S    
C71   N19   A    
C4    C64   A    
C25   H9    S    
C72   N20   A    
C16   C79   A    
C45   C65   A    
C20   H60   S    
N4    N15   A    
C18   C22   D    
N23   N28   A    
C78   H50   S    
C15   C43   S    
N34   H65   S    
C30   H14   S    
C37   H21   S    
C55   H35   S    
C43   C51   D    
N3    N16   A    
C46   N6    A    
C20   C26   S    
C31   H15   S    
N7    N11   A    
C48   N8    A    
C60   H40   S    
C75   H47   S    
C22   H6    S    
N2    N13   A    
C38   H22   S    
C82   H66   S    
C19   C25   S    
C17   C21   D    
N22   Ni6   S    
C30   C65   S    
C1    N1    A    
C7    H55   S    
C49   H17   S    
C29   C66   S    
N7    Ni7   S    
C40   C50   S    
N10   Ni1   S    
C6    H54   S    
N35   H69   S    
N14   Ni5   S    
N5    Ni5   S    
N36   C84   S    
C5    N29   A    
N20   N32   A    
C17   H57   S    
C34   H30   S    
C79   N27   A    
N1    N14   A    
N23   Ni7   S    
C1    H1    S    
C80   N28   A    
N5    N9    A    
C8    N32   A    
C2    C62   A    
N27   Ni4   S    
C83   H71   S    
C76   H48   S    
