data_mof_unit_14831.cif
_audit_creation_date              2012-12-10T17:56:43-0500
_audit_creation_method            fapswitch 2.2
_symmetry_space_group_name_H-M    P1
_symmetry_Int_Tables_number       1
_space_group_crystal_system       triclinic
_cell_length_a                    10.821394
_cell_length_b                    9.506115
_cell_length_c                    10.844596
_cell_angle_alpha                 89.545183
_cell_angle_beta                  90.474256
_cell_angle_gamma                 89.991546
_cell_volume                      1115.50386741

loop_
_atom_site_label
_atom_site_type_symbol
_atom_type_description
_atom_site_fract_x
_atom_site_fract_y
_atom_site_fract_z
_atom_type_partial_charge
C1    C     C_R   0.262038 0.499976 0.500076 0.788081
C2    C     C_R   0.737965 0.499962 0.500355 0.788574
C3    C     C_R   0.936112 0.627887 0.501800 -0.197647
C4    C     C_R   0.063882 0.627886 0.501795 -0.202917
C5    C     C_R   0.423491 0.075884 0.422739 -0.159958
C6    C     C_R   0.576330 0.074505 0.577428 -0.142006
C7    C     C_R   0.422558 0.924791 0.421390 0.492973
C8    C     C_R   0.577186 0.923410 0.578850 0.496006
C9    C     C_R   0.507977 0.501513 0.262138 0.796818
C10   C     C_R   0.490728 0.500382 0.737590 0.793958
C11   C     C_R   0.545818 0.766797 0.110451 -0.296096
C12   C     C_R   0.429566 0.759131 0.881942 -0.308170
C13   C     C_R   0.520007 0.893001 0.047320 0.419801
C14   C     C_R   0.449635 0.888901 0.938868 0.393698
C15   C     C_R   0.472969 0.632492 0.936421 0.034204
C16   C     C_R   0.511309 0.635389 0.060321 0.024711
C17   C     C_R   0.514369 0.506386 0.127511 -0.091470
C18   C     C_R   0.481859 0.503451 0.871891 -0.095051
C19   C     C_R   0.508181 0.378951 0.064354 -0.208906
C20   C     C_R   0.499548 0.377699 0.937388 -0.213525
C21   C     C_R   0.063908 0.372114 0.499926 -0.192840
C22   C     C_R   0.936137 0.372109 0.499943 -0.196080
C23   C     C_R   0.871787 0.499995 0.500728 -0.013412
C24   C     C_R   0.128228 0.500006 0.500594 -0.012920
Cu1   Cu    Cu3+1 0.500000 0.640660 0.500000 1.017305
Cu2   Cu    Cu3+1 0.500000 0.359340 0.500000 0.933593
H1    H     H_    0.511675 0.279770 0.113282 0.221381
H2    H     H_    0.505923 0.277765 0.890737 0.216544
H3    H     H_    0.597701 0.774027 0.195464 0.190961
H4    H     H_    0.378416 0.759648 0.796016 0.182980
H5    H     H_    0.112012 0.272156 0.499231 0.143818
H6    H     H_    0.888053 0.272149 0.499185 0.145596
H7    H     H_    0.888014 0.727842 0.502634 0.165438
H8    H     H_    0.111967 0.727840 0.502523 0.163823
H9    H     H_    0.364311 0.137557 0.362734 0.139426
H10   H     H_    0.635903 0.135067 0.637073 0.133548
N1    N     N_R   0.500000 0.852070 0.500000 -0.234557
N2    N     N_R   0.500000 0.147940 0.500000 -0.190294
O1    O     O_R   0.319640 0.618740 0.499990 -0.551547
O2    O     O_R   0.680360 0.618740 0.500010 -0.551270
O3    O     O_R   0.319620 0.381170 0.499990 -0.594376
O4    O     O_R   0.680380 0.381170 0.500010 -0.597558
O5    O     O_R   0.500000 0.618810 0.319650 -0.543575
O6    O     O_R   0.500000 0.618810 0.680350 -0.538831
O7    O     O_R   0.499970 0.381240 0.319640 -0.592973
O8    O     O_R   0.500030 0.381240 0.680360 -0.583381
O9    O     O_3   0.550925 0.021632 0.097640 -0.594082
C25   C     C_3   0.680844 0.035727 0.110243 0.028182
H11   H     H_    0.710769 0.125697 0.051733 0.163541
H12   H     H_    0.735596 0.942628 0.080342 0.126882
C26   C     C_3   0.713760 0.068158 0.243839 -0.805157
H13   H     H_    0.685527 0.979686 0.304776 0.233197
H14   H     H_    0.815078 0.083735 0.253291 0.196437
H15   H     H_    0.666138 0.165508 0.273346 0.272264
O10   O     O_3   0.417105 0.012746 0.879159 -0.582239
C27   C     C_3   0.287529 0.030299 0.883975 0.049548
H16   H     H_    0.260306 0.062754 0.978290 0.151594
H17   H     H_    0.236049 0.932862 0.859131 0.125254
C28   C     C_3   0.248440 0.144670 0.792615 -0.766743
H18   H     H_    0.278758 0.116818 0.698249 0.252092
H19   H     H_    0.146261 0.155616 0.792472 0.187472
H20   H     H_    0.289901 0.247019 0.818611 0.247668
O11   O     O_3   0.348034 0.844387 0.343289 -0.532199
C29   C     C_3   0.265063 0.922283 0.268531 0.021611
H21   H     H_    0.316058 0.993358 0.204860 0.165314
H22   H     H_    0.199738 0.982967 0.326423 0.123132
C30   C     C_3   0.190095 0.820953 0.189956 -0.792773
H23   H     H_    0.137093 0.747925 0.249937 0.253233
H24   H     H_    0.124445 0.880756 0.130272 0.183376
H25   H     H_    0.252539 0.758828 0.130543 0.249373
O12   O     O_3   0.653199 0.841640 0.655524 -0.533563
C31   C     C_3   0.727741 0.918139 0.738599 0.020526
H26   H     H_    0.670085 0.984108 0.799950 0.164058
H27   H     H_    0.795639 0.983916 0.687524 0.123926
C32   C     C_3   0.799541 0.814981 0.819671 -0.790555
H28   H     H_    0.857816 0.746126 0.761738 0.251490
H29   H     H_    0.860094 0.873479 0.884592 0.182472
H30   H     H_    0.734581 0.748613 0.873488 0.250790

loop_
_geom_bond_atom_site_label_1
_geom_bond_atom_site_label_2
_ccdc_geom_bond_type
C15   C18   A    
O10   C27   S    
C9    O7    A    
C3    C23   A    
C19   C20   A    
Cu1   O5    S    
C21   H5    S    
C22   H6    S    
C10   C18   S    
Cu1   O2    S    
C4    C24   A    
C3    H7    S    
C15   C16   A    
C27   H16   S    
Cu2   O7    S    
Cu1   N1    S    
C25   C26   S    
C27   H17   S    
C16   C17   A    
C8    O12   S    
C10   O8    A    
C6    N2    A    
C19   H1    S    
C25   H12   S    
C14   O10   S    
C28   H18   S    
C13   C14   A    
C31   C32   S    
Cu1   O6    S    
C4    H8    S    
C9    O5    A    
C28   H19   S    
C10   O6    A    
C30   H23   S    
C29   C30   S    
C5    N2    A    
C31   H27   S    
C5    C7    A    
Cu2   O8    S    
Cu2   N2    S    
C6    C8    A    
C20   H2    S    
Cu1   Cu2   S    
C26   H13   S    
C30   H24   S    
C29   H22   S    
C32   H28   S    
C11   C16   A    
O9    C25   S    
C12   C15   A    
C7    N1    A    
C32   H29   S    
C7    O11   S    
C1    O3    A    
C25   H11   S    
C12   C14   A    
C8    N1    A    
C3    C4    A    
Cu2   O4    S    
C13   O9    S    
C9    C17   S    
C28   H20   S    
C12   H4    S    
C31   H26   S    
C27   C28   S    
C30   H25   S    
C29   H21   S    
C26   H15   S    
O12   C31   S    
Cu1   O1    S    
C11   C13   A    
C2    O4    A    
C5    H9    S    
C17   C19   A    
C6    H10   S    
C18   C20   A    
C32   H30   S    
C1    O1    A    
O11   C29   S    
C2    O2    A    
C11   H3    S    
C1    C24   S    
C21   C24   A    
C2    C23   S    
C22   C23   A    
C26   H14   S    
C21   C22   A    
Cu2   O3    S    
