data_mof_unit_23333.cif
_audit_creation_date              2013-03-05T15:52:54-0500
_audit_creation_method            fapswitch 2.2
_symmetry_space_group_name_H-M    P1
_symmetry_Int_Tables_number       1
_space_group_crystal_system       triclinic
_cell_length_a                    14.994734
_cell_length_b                    10.721719
_cell_length_c                    9.909594
_cell_angle_alpha                 91.067265
_cell_angle_beta                  90.286593
_cell_angle_gamma                 92.188089
_cell_volume                      1591.6949129

loop_
_atom_site_label
_atom_site_type_symbol
_atom_site_description
_atom_site_fract_x
_atom_site_fract_y
_atom_site_fract_z
_atom_type_partial_charge
O1    O     O_R   0.500000 0.316780 0.614690 -0.652803
O2    O     O_R   0.499990 0.316750 0.385360 -0.582591
C1    C     C_R   0.511490 0.261723 0.499030 0.899399
O3    O     O_R   0.367850 0.499980 0.614680 -0.651843
O4    O     O_R   0.367840 0.499960 0.385350 -0.656244
C2    C     C_R   0.326671 0.498164 0.499696 0.886853
Zn1   Zn    Zn3+2 0.500010 0.500020 0.653130 0.982946
Zn2   Zn    Zn3+2 0.499990 0.499980 0.346870 0.982968
O5    O     O_R   0.500010 0.683250 0.614640 -0.588204
O6    O     O_R   0.500000 0.683220 0.385310 -0.627610
O7    O     O_R   0.632160 0.500040 0.614650 -0.591349
O8    O     O_R   0.632150 0.500020 0.385320 -0.616791
C3    C     C_R   0.494474 0.740228 0.501898 0.927556
C4    C     C_R   0.673290 0.498960 0.500126 0.914049
C5    C     C_R   0.814883 0.505803 0.377656 -0.216726
C6    C     C_R   0.769095 0.493497 0.499675 -0.086178
C7    C     C_R   0.814713 0.474219 0.620446 -0.196393
C8    C     C_R   0.906884 0.470754 0.620823 0.104683
C9    C     C_R   0.953253 0.485025 0.498167 0.062398
C10   C     C_R   0.906910 0.501383 0.375926 0.110562
C11   C     C_R   0.953358 0.454590 0.741770 -0.174207
C12   C     C_R   0.046055 0.454777 0.741704 -0.171951
C13   C     C_R   0.092489 0.470814 0.620630 0.115948
C14   C     C_R   0.046029 0.484634 0.497995 0.062944
C15   C     C_R   0.092381 0.499948 0.375462 0.120686
C16   C     C_R   0.045863 0.513585 0.254118 -0.193529
C17   C     C_R   0.953244 0.514532 0.254383 -0.183335
C18   C     C_R   0.184797 0.474956 0.620197 -0.184558
C19   C     C_R   0.230609 0.492334 0.498921 -0.064624
C20   C     C_R   0.184677 0.503140 0.376767 -0.249968
H1    H     H_    0.779163 0.519899 0.284030 0.181174
H2    H     H_    0.778697 0.461981 0.714082 0.200757
H3    H     H_    0.918116 0.443264 0.836265 0.165514
H4    H     H_    0.081405 0.443532 0.836140 0.153730
H5    H     H_    0.220740 0.465232 0.714421 0.164056
H6    H     H_    0.220549 0.515789 0.282911 0.165532
H7    H     H_    0.081092 0.524849 0.159598 0.150457
H8    H     H_    0.917944 0.526523 0.160052 0.166542
C21   C     C_R   0.572863 0.126406 0.739389 -0.145531
H9    H     H_    0.610503 0.214411 0.734976 0.162027
C22   C     C_R   0.563469 0.070782 0.864535 -0.072298
H10   H     H_    0.591759 0.116841 0.953662 0.209526
C23   C     C_R   0.514920 0.958321 0.874722 -0.050017
H11   H     H_    0.503520 0.917209 0.972317 0.170962
C24   C     C_R   0.483169 0.896285 0.758326 -0.079488
H12   H     H_    0.442792 0.812058 0.772247 0.157959
C25   C     C_R   0.502633 0.944357 0.628992 0.113112
C26   C     C_R   0.535409 0.067869 0.621875 0.062656
C27   C     C_R   0.527860 0.129440 0.497715 -0.237600
C28   C     C_R   0.516372 0.060319 0.376356 0.330446
H13   H     H_    0.492846 0.881823 0.287565 0.198658
C29   C     C_R   0.498941 0.934016 0.382134 -0.268501
C30   C     C_R   0.492581 0.874825 0.506244 -0.185897
H14   H     H_    0.612632 0.619761 0.131347 0.179572
C31   C     C_R   0.376924 0.344926 0.136219 -0.133784
H15   H     H_    0.377160 0.334257 0.242833 0.218433
C32   C     C_R   0.314828 0.269757 0.064764 -0.219546
H16   H     H_    0.268785 0.210002 0.120223 0.201427
C33   C     C_R   0.314223 0.267922 0.924104 0.300989
C34   C     C_R   0.376741 0.343933 0.856359 -0.230885
H17   H     H_    0.377444 0.334695 0.749585 0.242624
C35   C     C_R   0.437995 0.425109 0.925910 0.038005
C36   C     C_R   0.438252 0.425050 0.070309 0.171146
N1    N     N_R   0.499150 0.498800 0.142780 -0.133297
C37   C     C_R   0.562052 0.566221 0.074596 -0.162976
C38   C     C_R   0.563897 0.564691 0.931639 0.319503
N2    N     N_R   0.499120 0.498720 0.857170 -0.172960
N3    N     N_R   0.251709 0.187033 0.850001 0.210767
O9    O     O_R   0.193280 0.117194 0.913260 -0.373746
O10   O     O_R   0.252237 0.182779 0.718635 -0.407287
N4    N     N_R   0.639350 0.623865 0.867866 0.215077
O11   O     O_R   0.719001 0.605688 0.914493 -0.438350
O12   O     O_R   0.628674 0.716152 0.787272 -0.372040
N5    N     N_R   0.524979 0.115619 0.246253 0.206730
O13   O     O_R   0.466319 0.087730 0.152356 -0.452847
O14   O     O_R   0.597041 0.180587 0.216326 -0.402415

loop_
_geom_bond_atom_site_label_1
_geom_bond_atom_site_label_2
_geom_bond_distance
_ccdc_geom_bond_type
C31   H15   1.064794 S    
C8    C11   1.400265 A    
C22   H10   1.080686 S    
C9    C10   1.410626 A    
C1    C27   1.448430 S    
C21   C22   1.391532 A    
H14   C37   1.082351 S    
C24   H12   1.079273 S    
Zn1   O7    2.019775 S    
C16   C17   1.389240 A    
C35   C36   1.430936 A    
N5    O14   1.301600 A    
C35   N2    1.377684 A    
C18   C19   1.399196 A    
C28   N5    1.433431 S    
O4    C2    1.293183 A    
O7    C4    1.294413 A    
C32   C33   1.393629 A    
C11   H3    1.084043 S    
C17   H8    1.084088 S    
C5    C6    1.399352 A    
C34   C35   1.409402 A    
C8    C9    1.411193 A    
O5    C3    1.287115 A    
C25   C26   1.397959 A    
C18   H5    1.084460 S    
N3    O9    1.301594 A    
C31   C36   1.406013 A    
C28   C29   1.371645 A    
C13   C14   1.410770 A    
C25   C30   1.419118 A    
C38   N2    1.381761 A    
C33   C34   1.400702 A    
C11   C12   1.389903 A    
C22   C23   1.390061 A    
O3    Zn1   2.016110 S    
C3    C30   1.444312 S    
C24   C25   1.417858 A    
C5    C10   1.382716 A    
C12   H4    1.084157 S    
N5    O13   1.300100 A    
H13   C29   1.084181 S    
C14   C15   1.411234 A    
O3    C2    1.292750 A    
C21   H9    1.082534 S    
N4    O12   1.297228 A    
C6    C7    1.398122 A    
C15   C16   1.399927 A    
C34   H17   1.061024 S    
O1    C1    1.294727 A    
C23   H11   1.081962 S    
C19   C20   1.398592 A    
C33   N3    1.441324 S    
C38   N4    1.431515 S    
Zn2   O8    2.016112 S    
C7    C8    1.383989 A    
C13   C18   1.383178 A    
C23   C24   1.393282 A    
Zn2   N1    2.022226 S    
Zn2   O6    1.994253 S    
C26   C27   1.413157 A    
O8    C4    1.291895 A    
C37   C38   1.416860 A    
C31   C32   1.390231 A    
C4    C6    1.440033 S    
C29   C30   1.396446 A    
C15   C20   1.383063 A    
Zn1   O5    2.008186 S    
O1    Zn1   1.994253 S    
O2    Zn2   2.008186 S    
O6    C3    1.301459 A    
O4    Zn2   2.019775 S    
C16   H7    1.084086 S    
C5    H1    1.084877 S    
C10   C17   1.400162 A    
C20   H6    1.084856 S    
N1    C37   1.356907 A    
O2    C1    1.295077 A    
N4    O11   1.301369 A    
C32   H16   1.082733 S    
C9    C14   1.391324 A    
Zn1   N2    2.022368 S    
C36   N1    1.375492 A    
C2    C19   1.439363 S    
N3    O10   1.301809 A    
C27   C28   1.407181 A    
C7    H2    1.083504 S    
C12   C13   1.400266 A    
C21   C26   1.415884 A    
