data_mof_unit_17715.cif
_audit_creation_date              2013-03-05T16:21:58-0500
_audit_creation_method            fapswitch 2.2
_symmetry_space_group_name_H-M    P1
_symmetry_Int_Tables_number       1
_space_group_crystal_system       triclinic
_cell_length_a                    15.20209
_cell_length_b                    13.847996
_cell_length_c                    10.878266
_cell_angle_alpha                 89.46423
_cell_angle_beta                  91.650351
_cell_angle_gamma                 89.021595
_cell_volume                      2288.68135516

loop_
_atom_site_label
_atom_site_type_symbol
_atom_site_description
_atom_site_fract_x
_atom_site_fract_y
_atom_site_fract_z
_atom_type_partial_charge
O1    O     O_R   0.371460 0.581430 0.500010 -0.562817
O2    O     O_R   0.628540 0.418570 0.499990 -0.566111
O3    O     O_R   0.628540 0.581430 0.499990 -0.559970
O4    O     O_R   0.371460 0.418570 0.500010 -0.530448
C1    C     C_R   0.329415 0.500837 0.502082 0.824001
C2    C     C_R   0.669849 0.499419 0.495409 0.874417
O5    O     O_R   0.499990 0.581440 0.319660 -0.557911
O6    O     O_R   0.500010 0.418560 0.680340 -0.592338
O7    O     O_R   0.500010 0.581440 0.680340 -0.587109
O8    O     O_R   0.499990 0.418560 0.319660 -0.627004
C3    C     C_R   0.499055 0.500343 0.262805 0.807323
C4    C     C_R   0.501530 0.499124 0.737843 0.786646
Cu1   Cu    Cu3+1 0.500000 0.596430 0.500000 1.012966
Cu2   Cu    Cu3+1 0.500000 0.403570 0.500000 1.001042
C5    C     C_R   0.359709 0.594160 0.120581 -0.192430
C6    C     C_R   0.622738 0.375386 0.885244 -0.138473
C7    C     C_R   0.360297 0.593024 0.864986 -0.198397
C8    C     C_R   0.631282 0.392916 0.138518 -0.157038
C9    C     C_R   0.290750 0.638804 0.053420 0.207146
C10   C     C_R   0.679434 0.314545 0.955178 0.239179
C11   C     C_R   0.291007 0.638586 0.925007 0.134084
C12   C     C_R   0.686191 0.325635 0.082594 0.123700
C13   C     C_R   0.431300 0.547526 0.931846 0.055065
C14   C     C_R   0.564333 0.444509 0.070420 0.062629
C15   C     C_R   0.431021 0.548551 0.061497 0.008746
C16   C     C_R   0.562208 0.439141 0.941201 -0.015052
C17   C     C_R   0.499285 0.496355 0.872108 -0.121103
C18   C     C_R   0.499550 0.500309 0.129421 -0.097277
H1    H     H_    0.354866 0.593783 0.219519 0.159836
H2    H     H_    0.626151 0.369573 0.787177 0.202434
H3    H     H_    0.355409 0.591164 0.765801 0.178705
H4    H     H_    0.640786 0.402227 0.236328 0.169717
C19   C     C_R   0.091193 0.586251 0.461546 -0.197717
C20   C     C_R   0.909223 0.440484 0.557588 -0.185429
C21   C     C_R   0.899017 0.557847 0.392099 -0.199836
C22   C     C_R   0.095011 0.413464 0.492781 -0.209158
H5    H     H_    0.054252 0.653356 0.448553 0.186882
H6    H     H_    0.947980 0.397501 0.623706 0.181781
H7    H     H_    0.930586 0.602615 0.324746 0.186083
H8    H     H_    0.061193 0.345533 0.500652 0.185299
C23   C     C_R   0.182609 0.589221 0.476302 0.304974
C24   C     C_R   0.818257 0.439105 0.563384 0.317962
C25   C     C_R   0.806983 0.558882 0.397197 0.292224
C26   C     C_R   0.185826 0.414234 0.512390 0.304814
C27   C     C_R   0.231811 0.502192 0.500189 -0.294299
C28   C     C_R   0.765824 0.498064 0.483478 -0.290515
C29   C     C_R   0.047026 0.499097 0.470619 0.014323
C30   C     C_R   0.950288 0.498341 0.471484 0.013411
C31   C     C_R   0.534109 0.106190 0.600636 -0.243753
C32   C     C_R   0.436483 0.893470 0.430645 -0.230139
C33   C     C_R   0.465083 0.109283 0.398926 -0.245524
C34   C     C_R   0.563422 0.890403 0.568190 -0.256094
H9    H     H_    0.559922 0.069069 0.682166 0.137147
H10   H     H_    0.384848 0.930638 0.377550 0.157498
H11   H     H_    0.438956 0.074527 0.317447 0.137368
H12   H     H_    0.615118 0.925126 0.620860 0.145406
C35   C     C_R   0.534211 0.207663 0.598522 0.162719
C36   C     C_R   0.438342 0.791928 0.431259 0.168638
C37   C     C_R   0.465168 0.210793 0.401471 0.123929
C38   C     C_R   0.561901 0.788950 0.567909 0.121390
H13   H     H_    0.561418 0.245221 0.676782 0.135110
H14   H     H_    0.389953 0.753496 0.376824 0.159885
H15   H     H_    0.437301 0.251019 0.323701 0.133067
H16   H     H_    0.610892 0.748247 0.621760 0.134114
N1    N     N_R   0.500000 0.258690 0.500000 -0.182956
N2    N     N_R   0.500000 0.741310 0.500000 -0.189456
C39   C     C_R   0.499664 0.054510 0.499621 0.126112
C40   C     C_R   0.499809 0.945154 0.499479 0.109526
N3    N     N_3   0.749152 0.268622 0.154220 -0.571190
H17   H     H_    0.751434 0.291386 0.245639 0.236639
H18   H     H_    0.726928 0.197609 0.155408 0.219938
N4    N     N_3   0.219831 0.683584 0.855701 -0.575948
H19   H     H_    0.193777 0.632800 0.794711 0.248313
H20   H     H_    0.245570 0.740020 0.804234 0.276126
N5    N     N_3   0.729757 0.241479 0.894985 -0.497823
H21   H     H_    0.710645 0.174163 0.928169 0.200933
H22   H     H_    0.796260 0.249908 0.918958 0.286912
N6    N     N_3   0.219964 0.682994 0.117619 -0.528719
H23   H     H_    0.215451 0.755767 0.091320 0.257160
H24   H     H_    0.161444 0.649835 0.090062 0.247800
N7    N     N_R   0.222918 0.681990 0.470993 0.128512
O9    O     O_R   0.260568 0.716533 0.569614 -0.386460
O10   O     O_R   0.202245 0.740880 0.380464 -0.359701
N8    N     N_R   0.780974 0.383956 0.659358 0.103628
O11   O     O_R   0.745432 0.301545 0.633502 -0.366010
O12   O     O_R   0.805442 0.401833 0.772256 -0.376972
N9    N     N_R   0.757193 0.621498 0.313978 0.140925
O13   O     O_R   0.687016 0.590767 0.256803 -0.374694
O14   O     O_R   0.788634 0.704536 0.281864 -0.335474
N10   N     N_R   0.228938 0.325762 0.551834 0.146144
O15   O     O_R   0.271800 0.322075 0.657141 -0.337543
O16   O     O_R   0.211070 0.245535 0.495785 -0.341435

loop_
_geom_bond_atom_site_label_1
_geom_bond_atom_site_label_2
_geom_bond_distance
_ccdc_geom_bond_type
C36   H14   1.081296 S    
N9    O13   1.299357 A    
C20   C24   1.386572 A    
O3    C2    1.290400 A    
N7    O9    1.300363 A    
C15   C18   1.414299 A    
C5    C9    1.392933 A    
C16   C17   1.424522 A    
C32   H10   1.081308 S    
C8    H4    1.078869 S    
C8    C14   1.420178 A    
C9    C11   1.397064 A    
C14   C16   1.407811 A    
C2    C28   1.468313 S    
N6    H24   1.045611 S    
C5    C15   1.418313 A    
C6    H2    1.073264 S    
C31   C35   1.405205 A    
C22   C29   1.396948 A    
C24   C28   1.407879 A    
N3    H18   1.045330 S    
O7    Cu1   1.970803 S    
C34   C38   1.405539 A    
C36   N2    1.362534 A    
C5    H1    1.080865 S    
C13   C17   1.419451 A    
C21   C25   1.401637 A    
C12   N3    1.437459 S    
C34   C40   1.411189 A    
O6    C4    1.284367 A    
C38   N2    1.362633 A    
C20   H6    1.083683 S    
Cu1   Cu2   2.670726 S    
O2    C2    1.294271 A    
C21   C30   1.399383 A    
N7    O10   1.300787 A    
C7    H3    1.079958 S    
O5    C3    1.287226 A    
Cu1   N2    2.006296 S    
C6    C16   1.418194 A    
C11   N4    1.431306 S    
C39   C40   1.514344 S    
C32   C36   1.405901 A    
C22   H8    1.083550 S    
C24   N8    1.424225 S    
N8    O11   1.300668 A    
N4    H20   1.045100 S    
O8    Cu2   1.970804 S    
N6    H23   1.045577 S    
O4    C1    1.297446 A    
C33   C39   1.410401 A    
C4    C17   1.462113 S    
C1    C27   1.483132 S    
C19   H5    1.083539 S    
C10   N5    1.432682 S    
C9    N6    1.431428 S    
C21   H7    1.083233 S    
N5    H21   1.045331 S    
N10   O16   1.301252 A    
C29   C30   1.471141 S    
C6    C10   1.398906 A    
C23   N7    1.434131 S    
C7    C13   1.419178 A    
N5    H22   1.045541 S    
C10   C12   1.397006 A    
N9    O14   1.301406 A    
C19   C29   1.395155 A    
O1    C1    1.295892 A    
C22   C26   1.391117 A    
C33   C37   1.406257 A    
C26   N10   1.435700 S    
C26   C27   1.421738 A    
O6    Cu2   1.974664 S    
C31   C39   1.410040 A    
C8    C12   1.395801 A    
C14   C18   1.413731 A    
C35   N1    1.363683 A    
N4    H19   1.046301 S    
O3    Cu1   1.961559 S    
C35   H13   1.077802 S    
C20   C30   1.394881 A    
C37   H15   1.080730 S    
C38   H16   1.081614 S    
C19   C23   1.395697 A    
C25   N9    1.437971 S    
C37   N1    1.364458 A    
N10   O15   1.301639 A    
C25   C28   1.420852 A    
C3    C18   1.451226 S    
C31   H9    1.081384 S    
Cu2   N1    2.006296 S    
C33   H11   1.081315 S    
C13   C15   1.410713 A    
O4    Cu2   1.961559 S    
N3    H17   1.045858 S    
O2    Cu2   1.968613 S    
O7    C4    1.294661 A    
C7    C11   1.399487 A    
O8    C3    1.284985 A    
O5    Cu1   1.974665 S    
O1    Cu1   1.968613 S    
C23   C27   1.425335 A    
N8    O12   1.300188 A    
C32   C40   1.411289 A    
C34   H12   1.081310 S    
