data_mof_unit_25282.cif
_audit_creation_date              2012-12-10T18:01:15-0500
_audit_creation_method            fapswitch 2.2
_symmetry_space_group_name_H-M    P1
_symmetry_Int_Tables_number       1
_space_group_crystal_system       triclinic
_cell_length_a                    9.517218
_cell_length_b                    10.82539
_cell_length_c                    17.273914
_cell_angle_alpha                 90.414449
_cell_angle_beta                  87.295898
_cell_angle_gamma                 89.390031
_cell_volume                      1777.5541069

loop_
_atom_site_label
_atom_site_type_symbol
_atom_type_description
_atom_site_fract_x
_atom_site_fract_y
_atom_site_fract_z
_atom_type_partial_charge
C1    C     C_R   0.498898 0.737578 0.503553 0.789530
C2    C     C_R   0.501335 0.262195 0.496925 0.795839
C3    C     C_R   0.601839 0.929566 0.458893 -0.233974
C4    C     C_R   0.400334 0.069715 0.543365 -0.239692
C5    C     C_R   0.606874 0.057611 0.453965 0.097497
C6    C     C_R   0.396715 0.941574 0.548988 0.094005
C7    C     C_R   0.503505 0.128130 0.496796 -0.069758
C8    C     C_R   0.498020 0.871349 0.504887 -0.072879
C9    C     C_R   0.919965 0.556828 0.558252 -0.023966
C10   C     C_R   0.080095 0.442861 0.441854 -0.030370
C11   C     C_R   0.068712 0.556198 0.558376 -0.026813
C12   C     C_R   0.931345 0.442769 0.441932 -0.035075
C13   C     C_R   0.483656 0.501116 0.649921 0.790913
C14   C     C_R   0.516301 0.501932 0.349919 0.788457
C15   C     C_R   0.483047 0.511468 0.734043 -0.046586
C16   C     C_R   0.518077 0.501982 0.265198 -0.060642
C17   C     C_R   0.600569 0.467414 0.771632 -0.225067
C18   C     C_R   0.392254 0.526009 0.228259 -0.212328
C19   C     C_R   0.618138 0.493810 0.849704 0.134534
C20   C     C_R   0.386183 0.517508 0.147458 0.126580
C21   C     C_R   0.508750 0.558109 0.891877 0.161348
C22   C     C_R   0.510723 0.483551 0.104413 0.147941
C23   C     C_R   0.391376 0.602386 0.854101 -0.197569
C24   C     C_R   0.636010 0.460477 0.141241 -0.196165
C25   C     C_R   0.378433 0.579350 0.775358 -0.225593
C26   C     C_R   0.640635 0.472196 0.221162 -0.214502
C27   C     C_2   0.507451 0.571890 0.976063 -0.250115
C28   C     C_2   0.513700 0.471601 0.020323 -0.270865
Cu1   Cu    Cu3+1 0.359340 0.499980 0.500000 0.933029
Cu2   Cu    Cu3+1 0.640660 0.500020 0.500000 0.935841
H1    H     H_    0.681519 0.415053 0.739145 0.148892
H2    H     H_    0.299110 0.550409 0.263380 0.148633
H3    H     H_    0.529080 0.380250 0.994561 0.160813
H4    H     H_    0.490026 0.662910 0.001951 0.155971
H5    H     H_    0.308514 0.653136 0.886105 0.135082
H6    H     H_    0.730454 0.433479 0.107719 0.138727
H7    H     H_    0.677592 0.873972 0.424650 0.151840
H8    H     H_    0.324103 0.124748 0.577675 0.156467
H9    H     H_    0.859604 0.602739 0.604861 0.122113
H10   H     H_    0.140532 0.396779 0.395342 0.117067
H11   H     H_    0.120292 0.600625 0.605250 0.125884
H12   H     H_    0.880175 0.396735 0.395418 0.115900
N1    N     N_R   0.147930 0.499970 0.499980 -0.157158
N2    N     N_R   0.852070 0.500030 0.500020 -0.155709
O1    O     O_R   0.381260 0.680340 0.500000 -0.581805
O2    O     O_R   0.618740 0.319660 0.500000 -0.583105
O3    O     O_R   0.618830 0.680370 0.500010 -0.580619
O4    O     O_R   0.381170 0.319630 0.499990 -0.580273
O5    O     O_R   0.367440 0.500000 0.613600 -0.591443
O6    O     O_R   0.632560 0.500000 0.386400 -0.587043
O7    O     O_R   0.605010 0.500030 0.613600 -0.590671
O8    O     O_R   0.394990 0.499970 0.386400 -0.594249
H13   H     H_    0.738769 0.454745 0.248571 0.159076
H14   H     H_    0.288846 0.616665 0.746515 0.138311
C29   C     C_3   0.249906 0.540145 0.106169 -0.402466
C30   C     C_3   0.119100 0.571226 0.158669 -0.376084
C31   C     C_3   0.990095 0.591727 0.111025 -0.860382
H15   H     H_    0.008619 0.667694 0.069000 0.255010
H16   H     H_    0.965725 0.505804 0.079151 0.245324
H17   H     H_    0.898355 0.617173 0.150190 0.251514
H18   H     H_    0.097034 0.494052 0.199455 0.214955
H19   H     H_    0.137205 0.657165 0.192219 0.220984
H20   H     H_    0.266330 0.618026 0.065393 0.200464
H21   H     H_    0.227507 0.456159 0.071593 0.206560
C32   C     C_3   0.755202 0.454434 0.884500 -0.432358
C33   C     C_3   0.881889 0.518858 0.844680 -0.348921
C34   C     C_3   0.019272 0.477079 0.878757 -0.858290
H22   H     H_    0.021664 0.505361 0.940517 0.254322
H23   H     H_    0.032023 0.375172 0.873828 0.256860
H24   H     H_    0.108404 0.520670 0.846252 0.247591
H25   H     H_    0.888542 0.497468 0.781620 0.214550
H26   H     H_    0.870033 0.620603 0.852156 0.221394
H27   H     H_    0.756493 0.476497 0.947162 0.216784
H28   H     H_    0.767559 0.352588 0.877978 0.190897
C35   C     C_3   0.718542 0.112287 0.399114 -0.411205
C36   C     C_3   0.655153 0.155471 0.323837 -0.328804
C37   C     C_3   0.770049 0.181715 0.261658 -0.865337
H29   H     H_    0.841566 0.254270 0.281893 0.240551
H30   H     H_    0.832328 0.096456 0.247570 0.251264
H31   H     H_    0.721398 0.213419 0.208048 0.249965
H32   H     H_    0.585833 0.082597 0.301508 0.219893
H33   H     H_    0.590688 0.240311 0.335073 0.211615
H34   H     H_    0.775355 0.188033 0.426971 0.212793
H35   H     H_    0.801121 0.041334 0.384267 0.191401
C38   C     C_3   0.289670 0.886488 0.606306 -0.403880
C39   C     C_3   0.141351 0.890701 0.574933 -0.314075
C40   C     C_3   0.028750 0.868491 0.639122 -0.885353
H36   H     H_    0.051000 0.782205 0.670800 0.239289
H37   H     H_    0.025085 0.946991 0.680962 0.256113
H38   H     H_    0.924267 0.860874 0.613544 0.247851
H39   H     H_    0.120055 0.982288 0.548950 0.218114
H40   H     H_    0.133409 0.819334 0.528850 0.231455
H41   H     H_    0.317369 0.790282 0.621819 0.190367
H42   H     H_    0.290918 0.940362 0.661376 0.193023

loop_
_geom_bond_atom_site_label_1
_geom_bond_atom_site_label_2
_ccdc_geom_bond_type
C40   H36   S    
C1    C8    S    
C2    C7    S    
Cu2   O7    S    
C35   H34   S    
Cu1   O5    S    
C37   H29   S    
C2    O2    A    
C24   H6    S    
C6    C38   S    
C22   C24   A    
C19   C21   A    
C24   C26   A    
C39   H39   S    
C4    C7    A    
C35   H35   S    
C15   C25   A    
C9    H9    S    
C32   H27   S    
C30   C31   S    
C10   H10   S    
C12   H12   S    
C13   O7    A    
C38   H41   S    
C14   O8    A    
C29   H20   S    
C11   N1    A    
C30   H19   S    
C33   C34   S    
Cu2   O6    S    
C22   C28   S    
Cu1   N1    S    
Cu2   N2    S    
C20   C29   S    
C37   H30   S    
C27   H4    S    
C16   C26   A    
C33   H26   S    
Cu1   O4    S    
C34   H22   S    
Cu2   O3    S    
C36   C37   S    
C4    C6    A    
C3    C8    A    
C36   H33   S    
C5    C7    A    
C39   C40   S    
C1    O3    A    
C31   H17   S    
C6    C8    A    
C2    O4    A    
C38   C39   S    
C32   H28   S    
Cu1   O1    S    
C34   H23   S    
C5    C35   S    
C35   C36   S    
Cu1   Cu2   S    
C38   H42   S    
C33   H25   S    
C29   H21   S    
C29   C30   S    
C25   H14   S    
C9    C11   A    
C10   C12   A    
C13   O5    A    
C20   C22   A    
C28   H3    S    
C23   H5    S    
C13   C15   S    
C17   H1    S    
C14   C16   S    
C18   H2    S    
C26   H13   S    
C37   H31   S    
C15   C17   A    
C9    N2    A    
C10   N1    A    
Cu2   O2    S    
C4    H8    S    
C3    C5    A    
C36   H32   S    
C19   C32   S    
C34   H24   S    
C21   C23   A    
C12   N2    A    
C39   H40   S    
C1    O1    A    
C31   H15   S    
C14   O6    A    
C17   C19   A    
C11   H11   S    
C18   C20   A    
C23   C25   A    
C21   C27   S    
C31   H16   S    
C3    H7    S    
C16   C18   A    
C32   C33   S    
C40   H38   S    
C27   C28   D    
C40   H37   S    
C30   H18   S    
Cu1   O8    S    
