data_mof_unit_10778.cif
_audit_creation_date              2012-12-11T17:14:54-0500
_audit_creation_method            fapswitch 2.2
_symmetry_space_group_name_H-M    P1
_symmetry_Int_Tables_number       1
_space_group_crystal_system       triclinic
_cell_length_a                    7.222646
_cell_length_b                    12.164359
_cell_length_c                    21.31818
_cell_angle_alpha                 90.003459
_cell_angle_beta                  91.017995
_cell_angle_gamma                 90.018512
_cell_volume                      1872.69524182

loop_
_atom_site_label
_atom_site_type_symbol
_atom_type_description
_atom_site_fract_x
_atom_site_fract_y
_atom_site_fract_z
_atom_type_partial_charge
O1    O     O_R   0.354460 0.152320 0.595720 -0.533351
O2    O     O_R   0.645540 0.847680 0.404280 -0.533350
O3    O     O_R   0.145540 0.652320 0.404280 -0.533339
O4    O     O_R   0.854460 0.347680 0.595720 -0.533339
O5    O     O_R   0.683670 0.140090 0.727290 -0.538908
O6    O     O_R   0.316330 0.859910 0.272710 -0.538906
O7    O     O_R   0.816330 0.640090 0.272710 -0.538890
O8    O     O_R   0.183670 0.359910 0.727290 -0.538894
O9    O     O_R   0.854010 0.349340 0.727750 -0.536468
O10   O     O_R   0.145990 0.650660 0.272250 -0.536465
O11   O     O_R   0.645990 0.849340 0.272250 -0.536324
O12   O     O_R   0.354010 0.150660 0.727750 -0.536321
C1    C     C_R   0.517082 0.112115 0.746836 0.686068
C2    C     C_R   0.482918 0.887888 0.253165 0.686069
C3    C     C_R   0.982851 0.612101 0.253155 0.686194
C4    C     C_R   0.017147 0.387897 0.746845 0.686199
O13   O     O_R   0.684170 0.139420 0.596190 -0.536073
O14   O     O_R   0.315830 0.860580 0.403810 -0.536075
O15   O     O_R   0.815830 0.639420 0.403810 -0.536127
O16   O     O_R   0.184170 0.360580 0.596190 -0.536127
C5    C     C_R   0.514763 0.113148 0.574446 0.712152
C6    C     C_R   0.485237 0.886852 0.425554 0.712151
C7    C     C_R   0.985215 0.613146 0.425555 0.712123
C8    C     C_R   0.014785 0.386854 0.574445 0.712124
O17   O     O_3   0.520730 0.319480 0.661730 -0.375996
O18   O     O_3   0.479270 0.680520 0.338270 -0.375993
O19   O     O_3   0.979270 0.819480 0.338270 -0.375890
O20   O     O_3   0.020730 0.180520 0.661730 -0.375889
V1    V     V_3+5 0.795560 0.238090 0.661730 1.427266
V2    V     V_3+5 0.204440 0.761910 0.338270 1.427264
V3    V     V_3+5 0.704440 0.738090 0.338270 1.427264
V4    V     V_3+5 0.295560 0.261910 0.661730 1.427262
C9    C     C_R   0.016521 0.466562 0.798399 -0.031588
C10   C     C_R   0.983460 0.533439 0.201599 -0.031584
C11   C     C_R   0.483975 0.966453 0.201590 -0.030807
C12   C     C_R   0.516023 0.033560 0.798415 -0.030779
C13   C     C_R   0.082427 0.647961 0.838589 -0.168779
C14   C     C_R   0.917497 0.352045 0.161410 -0.168783
C15   C     C_R   0.424752 0.148740 0.161642 -0.169045
C16   C     C_R   0.575071 0.851252 0.838361 -0.169045
C17   C     C_R   0.065662 0.575928 0.788136 -0.178457
C18   C     C_R   0.934350 0.424068 0.211865 -0.178455
C19   C     C_R   0.439428 0.076440 0.212030 -0.178786
C20   C     C_R   0.560397 0.923550 0.787972 -0.178804
C21   C     C_R   0.984849 0.428735 0.859064 -0.218143
C22   C     C_R   0.015023 0.571278 0.140930 -0.218139
C23   C     C_R   0.513042 0.928253 0.140843 -0.217889
C24   C     C_R   0.487102 0.071783 0.859166 -0.217878
C25   C     C_R   0.006699 0.499083 0.911495 0.080403
C26   C     C_R   0.993120 0.500936 0.088499 0.080408
C27   C     C_R   0.493494 0.998965 0.088502 0.080839
C28   C     C_R   0.506561 0.001061 0.911505 0.080848
C29   C     C_R   0.055357 0.610382 0.899997 0.130256
C30   C     C_R   0.944477 0.389636 0.099998 0.130250
C31   C     C_R   0.449574 0.110897 0.100158 0.129921
C32   C     C_R   0.550365 0.889112 0.899847 0.129923
C33   C     C_R   0.985890 0.462170 0.974672 0.052824
C34   C     C_R   0.013884 0.537855 0.025321 0.052825
C35   C     C_R   0.512451 0.961908 0.025276 0.053129
C36   C     C_R   0.487605 0.038118 0.974731 0.053123
C37   C     C_R   0.060512 0.647978 0.011095 -0.194780
C38   C     C_R   0.939239 0.352050 0.988897 -0.194777
C39   C     C_R   0.445712 0.148852 0.989105 -0.195325
C40   C     C_R   0.554273 0.851164 0.010901 -0.195312
C41   C     C_R   0.080229 0.683111 0.949754 -0.199401
C42   C     C_R   0.919544 0.316914 0.050239 -0.199398
C43   C     C_R   0.427500 0.184081 0.050494 -0.200273
C44   C     C_R   0.572416 0.815926 0.949512 -0.200262
H1    H     H_    0.117378 0.768159 0.941248 0.139963
H2    H     H_    0.882383 0.231868 0.058746 0.139967
H3    H     H_    0.394029 0.269624 0.059115 0.139550
H4    H     H_    0.605802 0.730371 0.940889 0.139548
H5    H     H_    0.049737 0.656975 0.136578 0.099228
H6    H     H_    0.950100 0.343043 0.863415 0.099236
H7    H     H_    0.455760 0.157910 0.863624 0.098702
H8    H     H_    0.544570 0.842150 0.136389 0.098730
H9    H     H_    0.907329 0.394917 0.258845 0.106760
H10   H     H_    0.092756 0.605070 0.741159 0.106767
H11   H     H_    0.585129 0.894054 0.740904 0.106497
H12   H     H_    0.414579 0.105916 0.259093 0.106508
H13   H     H_    0.120807 0.732660 0.829752 0.125793
H14   H     H_    0.879127 0.267346 0.170248 0.125793
H15   H     H_    0.390116 0.233957 0.170605 0.125599
H16   H     H_    0.609597 0.766020 0.829395 0.125595
H17   H     H_    0.084069 0.710062 0.046257 0.129755
H18   H     H_    0.915654 0.289970 0.953735 0.129751
H19   H     H_    0.424915 0.211384 0.954029 0.129904
H20   H     H_    0.575002 0.788623 0.045976 0.129895
C45   C     C_1   0.995787 0.533148 0.478084 -0.177801
C46   C     C_1   0.004213 0.466851 0.521916 -0.177801
C47   C     C_1   0.504184 0.033150 0.521917 -0.177807
C48   C     C_1   0.495816 0.966849 0.478083 -0.177807

loop_
_geom_bond_atom_site_label_1
_geom_bond_atom_site_label_2
_ccdc_geom_bond_type
O1    C5    A    
C9    C21   A    
C16   H16   S    
O3    C7    A    
C10   C18   A    
C11   C23   A    
C25   C33   A    
C33   C38   A    
C38   H18   S    
C35   C40   A    
C26   C30   A    
C36   C39   A    
C40   C44   A    
O20   V1    S    
O9    C4    A    
C23   H8    S    
C14   C18   A    
C24   C28   A    
O10   C3    A    
C5    C47   S    
O4    C8    A    
O11   C2    A    
C25   C29   A    
C43   H3    S    
O13   V1    S    
C28   C36   A    
C15   C31   A    
O16   C8    A    
C16   C32   A    
O2    C6    A    
C7    C45   S    
C10   C22   A    
C11   C19   A    
C3    C10   S    
O5    C1    A    
O4    V1    S    
C47   C48   T    
O9    V1    S    
C13   C29   A    
C34   C37   A    
O7    C3    A    
O15   V3    S    
C35   C36   A    
O8    C4    A    
C14   H14   S    
O19   V2    S    
C24   H7    S    
C13   H13   S    
O5    V1    S    
C15   C19   A    
C39   C43   A    
O7    V3    S    
C38   C42   A    
O8    V4    S    
C1    C12   S    
C17   H10   S    
C23   C27   A    
C19   H12   S    
C32   C44   A    
O1    V4    S    
O13   C5    A    
O2    V3    S    
C26   C34   A    
O3    V2    S    
O15   C7    A    
C4    C9    S    
O6    C2    A    
O10   V2    S    
C14   C30   A    
C21   C25   A    
C44   H4    S    
C37   H17   S    
O14   V2    S    
O6    V2    S    
C16   C20   A    
C12   C20   A    
C27   C35   A    
C2    C11   S    
C29   C41   A    
O16   V4    S    
C39   H19   S    
O14   C6    A    
C20   H11   S    
C8    C46   S    
C31   C43   A    
C30   C42   A    
C22   C26   A    
C9    C17   A    
C15   H15   S    
C33   C34   A    
C42   H2    S    
O17   V4    S    
C41   H1    S    
C12   C24   A    
C27   C31   A    
C13   C17   A    
O11   V3    S    
C37   C41   A    
O18   V3    S    
O12   C1    A    
C18   H9    S    
C6    C48   S    
C21   H6    S    
C45   C46   T    
C40   H20   S    
C22   H5    S    
O12   V4    S    
C28   C32   A    
