data_mof_unit_21526.cif
_audit_creation_date              2012-12-10T18:47:42-0500
_audit_creation_method            fapswitch 2.2
_symmetry_space_group_name_H-M    P1
_symmetry_Int_Tables_number       1
_space_group_crystal_system       triclinic
_cell_length_a                    9.922499
_cell_length_b                    10.673178
_cell_length_c                    15.51405
_cell_angle_alpha                 91.205964
_cell_angle_beta                  68.183867
_cell_angle_gamma                 91.000408
_cell_volume                      1524.91883304

loop_
_atom_site_label
_atom_site_type_symbol
_atom_type_description
_atom_site_fract_x
_atom_site_fract_y
_atom_site_fract_z
_atom_type_partial_charge
C1    C     C_R   0.500508 0.739808 0.500571 0.865291
C2    C     C_R   0.499516 0.260188 0.499379 0.865521
C3    C     C_R   0.316885 0.521716 0.107638 -0.228109
C4    C     C_R   0.644323 0.629894 0.911169 -0.228936
C5    C     C_R   0.215543 0.507541 0.065934 -0.247550
C6    C     C_R   0.745044 0.644967 0.953468 -0.241107
C7    C     C_R   0.632383 0.936866 0.462088 -0.199767
C8    C     C_R   0.367652 0.063105 0.537701 -0.201299
C9    C     C_R   0.631591 0.065254 0.460884 -0.183292
C10   C     C_R   0.368451 0.934725 0.538938 -0.182963
C11   C     C_R   0.499204 0.127623 0.498718 -0.010417
C12   C     C_R   0.500840 0.872360 0.501137 -0.008959
C13   C     C_R   0.951385 0.408670 0.454210 -0.129702
C14   C     C_R   0.048643 0.591393 0.545728 -0.127280
C15   C     C_R   0.094703 0.407483 0.453827 0.248479
C16   C     C_R   0.905439 0.592729 0.545927 0.253624
C17   C     C_R   0.409166 0.501769 0.675693 0.867019
C18   C     C_R   0.590741 0.501373 0.324343 0.864014
C19   C     C_R   0.352524 0.511224 0.776769 -0.058575
C20   C     C_R   0.644736 0.521094 0.224532 -0.056246
C21   C     C_R   0.160423 0.487407 0.926893 -0.219224
C22   C     C_R   0.814947 0.615767 0.085735 -0.225582
C23   C     C_R   0.206742 0.485831 0.830404 -0.199788
C24   C     C_R   0.780573 0.576176 0.176668 -0.207593
C25   C     C_R   0.448981 0.544887 0.819699 -0.266499
C26   C     C_R   0.546352 0.503094 0.180700 -0.253812
C27   C     C_R   0.404689 0.549870 0.916108 0.098644
C28   C     C_R   0.572565 0.552726 0.093613 0.099104
C29   C     C_R   0.259156 0.516123 0.970047 0.177936
C30   C     C_R   0.711714 0.604458 0.043821 0.177205
C31   C     C_R   0.504916 0.577205 0.959513 0.068045
C32   C     C_R   0.464442 0.549564 0.054509 0.068281
H1    H     H_    0.104024 0.484587 0.108479 0.149428
H2    H     H_    0.850265 0.686366 0.914706 0.149400
H3    H     H_    0.447716 0.451377 0.216813 0.146410
H4    H     H_    0.561151 0.559968 0.776553 0.155342
H5    H     H_    0.857559 0.592231 0.210290 0.156450
H6    H     H_    0.130300 0.460500 0.797941 0.160809
H7    H     H_    0.049011 0.461807 0.967518 0.150165
H8    H     H_    0.920241 0.658424 0.049232 0.145970
H9    H     H_    0.275915 0.513491 0.182206 0.154401
H10   H     H_    0.676752 0.664484 0.841432 0.146991
H11   H     H_    0.734620 0.888281 0.431300 0.147001
H12   H     H_    0.265397 0.111679 0.568437 0.147386
H13   H     H_    0.733652 0.115554 0.429875 0.144987
H14   H     H_    0.266386 0.884431 0.569956 0.144764
H15   H     H_    0.914558 0.335691 0.418388 0.140938
H16   H     H_    0.085501 0.664481 0.581452 0.140210
N1    N     N_R   0.142780 0.500030 0.500020 -0.094917
N2    N     N_R   0.857220 0.499970 0.499980 -0.094876
O1    O     O_R   0.385370 0.683250 0.500010 -0.620588
O2    O     O_R   0.614630 0.316750 0.499990 -0.619987
O3    O     O_R   0.614700 0.683220 0.500000 -0.623312
O4    O     O_R   0.385300 0.316780 0.500000 -0.622139
O5    O     O_R   0.319830 0.500020 0.632250 -0.614518
O6    O     O_R   0.680170 0.499980 0.367750 -0.615074
O7    O     O_R   0.549160 0.499990 0.632240 -0.616745
O8    O     O_R   0.450840 0.500010 0.367760 -0.615740
Zn1   Zn    Zn3+2 0.346870 0.500020 0.500000 0.939644
Zn2   Zn    Zn3+2 0.653130 0.499980 0.500000 0.938870
C33   C     C_3   0.188457 0.299273 0.404529 -0.846479
H17   H     H_    0.142917 0.248604 0.358027 0.192598
H18   H     H_    0.298304 0.330540 0.360039 0.263398
H19   H     H_    0.192623 0.230821 0.456072 0.245980
C34   C     C_3   0.812309 0.701720 0.594252 -0.852814
H20   H     H_    0.856629 0.751674 0.641670 0.190026
H21   H     H_    0.810584 0.770259 0.542097 0.245572
H22   H     H_    0.701466 0.671552 0.637523 0.263991

loop_
_geom_bond_atom_site_label_1
_geom_bond_atom_site_label_2
_ccdc_geom_bond_type
C21   C29   A    
C10   H14   S    
C33   H19   S    
C19   C23   A    
C9    H13   S    
C14   C16   A    
C7    H11   S    
C27   C29   A    
C23   H6    S    
C9    C11   A    
C17   O5    A    
C5    C29   A    
C31   C32   A    
N1    Zn1   S    
C13   C15   A    
C18   O6    A    
C34   H22   S    
C22   H8    S    
C4    H10   S    
C28   C30   A    
C24   H5    S    
C15   C33   S    
N2    Zn2   S    
C3    C32   A    
C33   H18   S    
C6    C30   A    
C1    O1    A    
C34   H21   S    
C8    H12   S    
C33   H17   S    
C1    C12   S    
C2    O2    A    
O2    Zn2   S    
C8    C11   A    
C2    C11   S    
C10   C12   A    
C4    C6    A    
C17   C19   S    
O3    Zn2   S    
C16   N2    A    
O5    Zn1   S    
O4    Zn1   S    
C15   N1    A    
C21   C23   A    
C7    C12   A    
C19   C25   A    
C22   C24   A    
C4    C31   A    
O1    Zn1   S    
C25   H4    S    
C27   C31   A    
C13   N2    A    
C14   N1    A    
C20   C24   A    
C26   H3    S    
C28   C32   A    
O6    Zn2   S    
C18   C20   S    
C13   H15   S    
C34   H20   S    
C2    O4    A    
C7    C9    A    
C1    O3    A    
C3    H9    S    
O7    Zn2   S    
C14   H16   S    
C16   C34   S    
C22   C30   A    
C3    C5    A    
O8    Zn1   S    
C26   C28   A    
C21   H7    S    
C18   O8    A    
C8    C10   A    
C6    H2    S    
C17   O7    A    
C20   C26   A    
C25   C27   A    
C5    H1    S    
