data_mof_unit_43955.cif
_audit_creation_date              2012-12-10T18:52:58-0500
_audit_creation_method            fapswitch 2.2
_symmetry_space_group_name_H-M    P1
_symmetry_Int_Tables_number       1
_space_group_crystal_system       triclinic
_cell_length_a                    9.843326
_cell_length_b                    10.655098
_cell_length_c                    16.636234
_cell_angle_alpha                 90.010819
_cell_angle_beta                  84.261039
_cell_angle_gamma                 89.108961
_cell_volume                      1735.87683585

loop_
_atom_site_label
_atom_site_type_symbol
_atom_type_description
_atom_site_fract_x
_atom_site_fract_y
_atom_site_fract_z
_atom_type_partial_charge
C1    C     C_R   0.499537 0.739289 0.498727 0.856798
C2    C     C_R   0.500490 0.260437 0.500330 0.845631
C3    C     C_R   0.484104 0.933586 0.573389 -0.020493
C4    C     C_R   0.516996 0.065441 0.425349 -0.020252
C5    C     C_R   0.480266 0.064250 0.574726 -0.057677
C6    C     C_R   0.515974 0.934722 0.423970 -0.084227
C7    C     C_R   0.500514 0.127600 0.500293 -0.171650
C8    C     C_R   0.498450 0.871729 0.498495 -0.176863
C9    C     C_R   0.937901 0.413467 0.455640 0.066723
C10   C     C_R   0.061898 0.588037 0.543092 0.058728
C11   C     C_R   0.081566 0.413081 0.456355 -0.094423
C12   C     C_R   0.918241 0.586927 0.543514 -0.073636
C13   C     C_R   0.480575 0.491581 0.653848 0.828845
C14   C     C_R   0.520214 0.503397 0.345473 0.858802
C15   C     C_R   0.469332 0.445370 0.738264 -0.210676
C16   C     C_R   0.535608 0.496070 0.255813 -0.140663
C17   C     C_R   0.572599 0.362674 0.762372 -0.016717
C18   C     C_R   0.417896 0.486204 0.213955 -0.031570
C19   C     C_R   0.558136 0.308098 0.838007 -0.090091
C20   C     C_R   0.430194 0.443660 0.135119 -0.146824
C21   C     C_R   0.446336 0.337129 0.892941 0.057187
C22   C     C_R   0.557529 0.411615 0.094993 0.097597
C23   C     C_R   0.338978 0.414638 0.870475 -0.023427
C24   C     C_R   0.677939 0.435549 0.131427 -0.043320
C25   C     C_R   0.349396 0.467668 0.791900 -0.063192
C26   C     C_R   0.667229 0.482418 0.211594 -0.054496
C27   C     C_2   0.462325 0.315945 0.978386 -0.219206
C28   C     C_2   0.563597 0.376525 0.009318 -0.208596
H1    H     H_    0.643865 0.418295 0.968686 0.172002
H2    H     H_    0.379280 0.275440 0.017252 0.158869
H3    H     H_    0.338644 0.438674 0.104091 0.148663
H4    H     H_    0.639626 0.248373 0.856773 0.156520
H5    H     H_    0.144382 0.344307 0.421308 0.144962
H6    H     H_    0.855358 0.656422 0.577876 0.148501
N1    N     N_R   0.142790 0.500030 0.500020 -0.105638
N2    N     N_R   0.857210 0.499970 0.499980 -0.101357
O1    O     O_R   0.385380 0.683250 0.500010 -0.618153
O2    O     O_R   0.614620 0.316750 0.499990 -0.603905
O3    O     O_R   0.614710 0.683220 0.500000 -0.599426
O4    O     O_R   0.385290 0.316780 0.500000 -0.624685
O5    O     O_R   0.371780 0.500040 0.615800 -0.623473
O6    O     O_R   0.628220 0.499960 0.384200 -0.589521
O7    O     O_R   0.601110 0.500010 0.615800 -0.601033
O8    O     O_R   0.398890 0.499990 0.384200 -0.616244
Zn1   Zn    Zn3+2 0.346870 0.500020 0.500000 0.970386
Zn2   Zn    Zn3+2 0.653130 0.499980 0.500000 1.001762
C29   C     C_1   0.694146 0.326749 0.710628 0.256670
N3    N     N_1   0.791340 0.297656 0.669460 -0.164973
C30   C     C_1   0.281842 0.521412 0.248580 0.233096
N4    N     N_1   0.172863 0.549711 0.275842 -0.163848
C31   C     C_2   0.793607 0.517501 0.247433 0.563874
H7    H     H_    0.881416 0.454161 0.242920 0.069997
O9    O     O_2   0.802071 0.619836 0.279483 -0.521615
C32   C     C_2   0.237327 0.548157 0.766340 0.540101
H8    H     H_    0.261117 0.635221 0.735094 0.075172
O10   O     O_2   0.118470 0.515940 0.777970 -0.540132
C33   C     C_2   0.223468 0.447154 0.932268 0.492788
H9    H     H_    0.186120 0.377891 0.976525 0.052983
O11   O     O_2   0.172826 0.552571 0.936561 -0.492231
C34   C     C_2   0.813059 0.410961 0.084420 0.358841
H10   H     H_    0.825072 0.333333 0.041930 0.086805
O12   O     O_2   0.910151 0.479251 0.089963 -0.535103
C35   C     C_1   0.473105 0.861528 0.647934 0.293250
N5    N     N_1   0.465160 0.804173 0.707237 -0.190295
C36   C     C_1   0.526506 0.136823 0.350596 0.274415
N6    N     N_1   0.533849 0.193429 0.291002 -0.190266
C37   C     C_2   0.448967 0.136044 0.651804 0.398614
H11   H     H_    0.406523 0.230242 0.650652 0.069374
O13   O     O_2   0.470122 0.091942 0.717184 -0.556668
C38   C     C_2   0.531668 0.862213 0.346371 0.481431
H12   H     H_    0.490515 0.768739 0.343761 0.042741
O14   O     O_2   0.593299 0.904244 0.285171 -0.517096
C39   C     C_1   0.878183 0.322564 0.406553 0.200531
N7    N     N_1   0.831317 0.249039 0.366677 -0.196060
C40   C     C_1   0.120853 0.686490 0.586512 0.239695
N8    N     N_1   0.166134 0.767434 0.621190 -0.202626

loop_
_geom_bond_atom_site_label_1
_geom_bond_atom_site_label_2
_ccdc_geom_bond_type
C19   C21   A    
C9    N2    A    
C38   O14   D    
C40   N8    T    
C32   O10   D    
N2    Zn2   S    
C10   N1    A    
C11   H5    S    
C3    C35   S    
C12   N2    A    
C1    C8    S    
C17   C29   S    
C10   C40   S    
C2    O2    A    
C14   O8    A    
C18   C20   A    
C2    C7    S    
C13   C15   S    
C1    O1    A    
C14   O6    A    
O4    Zn1   S    
C3    C5    A    
C13   O5    A    
C21   C27   S    
C16   C18   A    
C22   C28   S    
C26   C31   S    
O8    Zn1   S    
C27   H2    S    
C9    C11   A    
C33   H9    S    
C38   H12   S    
C9    C39   S    
C5    C37   S    
O3    Zn2   S    
C23   C33   S    
C19   H4    S    
C10   C12   A    
C34   O12   D    
C28   H1    S    
C17   C19   A    
C24   C26   A    
C36   N6    T    
C31   O9    D    
C22   C24   A    
C4    C7    A    
C21   C23   A    
C16   C26   A    
C4    C36   S    
O7    Zn2   S    
C14   C16   S    
C33   O11   D    
C4    C6    A    
C15   C25   A    
C1    O3    A    
C35   N5    T    
O1    Zn1   S    
C31   H7    S    
N1    Zn1   S    
C29   N3    T    
C2    O4    A    
C13   O7    A    
C23   C25   A    
C25   C32   S    
C3    C8    A    
C5    C7    A    
C30   N4    T    
O6    Zn2   S    
C27   C28   D    
C6    C38   S    
O5    Zn1   S    
C32   H8    S    
C39   N7    T    
C6    C8    A    
C24   C34   S    
O2    Zn2   S    
C15   C17   A    
C12   H6    S    
C11   N1    A    
C37   H11   S    
C18   C30   S    
C20   C22   A    
C34   H10   S    
C37   O13   D    
C20   H3    S    
