data_mof_unit_52597.cif
_audit_creation_date              2012-12-11T15:43:47-0500
_audit_creation_method            fapswitch 2.2
_symmetry_space_group_name_H-M    P1
_symmetry_Int_Tables_number       1
_space_group_crystal_system       triclinic
_cell_length_a                    14.613833
_cell_length_b                    16.140021
_cell_length_c                    6.919185
_cell_angle_alpha                 88.481036
_cell_angle_beta                  98.445461
_cell_angle_gamma                 90.317079
_cell_volume                      1613.74453359

loop_
_atom_site_label
_atom_site_type_symbol
_atom_type_description
_atom_site_fract_x
_atom_site_fract_y
_atom_site_fract_z
_atom_type_partial_charge
O1    O     O_R   0.831700 0.662810 0.581550 -0.531347
O2    O     O_R   0.168300 0.337190 0.418450 -0.532780
O3    O     O_R   0.168300 0.162810 0.418450 -0.530501
O4    O     O_R   0.831700 0.837190 0.581550 -0.531704
O5    O     O_R   0.842890 0.834390 0.255500 -0.555930
O6    O     O_R   0.157110 0.165610 0.744500 -0.554725
O7    O     O_R   0.157110 0.334390 0.744500 -0.553450
O8    O     O_R   0.842890 0.665610 0.255500 -0.548888
O9    O     O_R   0.661690 0.835580 0.024130 -0.560914
O10   O     O_R   0.338310 0.164420 0.975870 -0.552788
O11   O     O_R   0.338310 0.335580 0.975870 -0.551418
O12   O     O_R   0.661690 0.664420 0.024130 -0.564424
C1    C     C_R   0.863148 0.866493 0.427178 0.709935
C2    C     C_R   0.136344 0.133768 0.572534 0.714435
C3    C     C_R   0.134764 0.364534 0.567560 0.699796
C4    C     C_R   0.865248 0.635478 0.432192 0.705208
C5    C     C_R   0.069470 0.061932 0.546216 -0.167060
C6    C     C_R   0.929394 0.938622 0.452791 -0.164827
C7    C     C_R   0.934138 0.565844 0.466064 -0.166877
C8    C     C_R   0.065630 0.433951 0.532201 -0.169481
C9    C     C_R   0.006847 0.942963 0.351028 -0.032273
C10   C     C_R   0.991748 0.057756 0.647545 -0.031248
C11   C     C_R   0.975490 0.423271 0.581604 -0.059493
C12   C     C_R   0.024352 0.576517 0.416849 -0.069407
O13   O     O_3   0.687240 0.750000 0.366320 -0.378380
O14   O     O_3   0.312760 0.250000 0.633680 -0.373576
V1    V     V_3+5 0.757720 0.750000 0.115230 1.400990
V2    V     V_3+5 0.242280 0.250000 0.884770 1.401765
O15   O     O_R   0.650500 0.664000 0.690740 -0.521563
O16   O     O_R   0.349500 0.336000 0.309260 -0.533673
O17   O     O_R   0.349500 0.164000 0.309260 -0.542097
O18   O     O_R   0.650500 0.836000 0.690740 -0.541565
C13   C     C_R   0.624594 0.638510 0.856339 0.716774
C14   C     C_R   0.369905 0.365684 0.142847 0.709245
C15   C     C_R   0.369491 0.134397 0.148076 0.734699
C16   C     C_R   0.630817 0.865845 0.852150 0.729101
C17   C     C_R   0.078940 0.000807 0.405652 0.123034
C18   C     C_R   0.919508 0.999933 0.592523 0.123559
C19   C     C_R   0.909798 0.489015 0.549993 0.153589
C20   C     C_R   0.088837 0.509803 0.442089 0.139635
V3    V     V_3+5 0.735670 0.750000 0.607790 1.451300
V4    V     V_3+5 0.264330 0.250000 0.392210 1.429159
O19   O     O_3   0.806150 0.750000 0.906560 -0.369638
O20   O     O_3   0.193850 0.250000 0.093440 -0.371545
C21   C     C_2   0.575035 0.943412 0.843233 -0.029615
C22   C     C_2   0.423774 0.056036 0.158780 -0.060206
C23   C     C_2   0.439447 0.433782 0.137628 -0.068456
C24   C     C_2   0.551699 0.572420 0.860799 -0.055408
C25   C     C_2   0.518829 0.956979 0.981653 0.001768
C26   C     C_2   0.484882 0.042617 0.030168 -0.011140
C27   C     C_2   0.423232 0.500948 0.010695 0.015023
C28   C     C_2   0.493712 0.569054 0.001253 0.002220
C29   C     C_2   0.009938 0.890659 0.178062 0.394568
H1    H     H_    0.953578 0.893522 0.057166 0.055824
O21   O     O_2   0.074516 0.844122 0.168701 -0.501546
C30   C     C_2   0.988629 0.110087 0.820443 0.395881
H2    H     H_    0.045436 0.107957 0.940418 0.055941
O22   O     O_2   0.923443 0.155748 0.831087 -0.504564
C31   C     C_2   0.949160 0.340669 0.654343 0.412630
H3    H     H_    0.988229 0.312940 0.785146 0.086556
O23   O     O_2   0.885858 0.301715 0.563354 -0.488147
C32   C     C_2   0.051778 0.659529 0.348217 0.435721
H4    H     H_    0.009897 0.691001 0.226268 0.081751
O24   O     O_2   0.119680 0.694644 0.433106 -0.463311
C33   C     C_3   0.168116 0.992698 0.320521 -0.648520
H5    H     H_    0.157082 0.009954 0.162429 0.187992
H6    H     H_    0.224848 0.029920 0.396453 0.181113
H7    H     H_    0.194276 0.928314 0.342528 0.260051
C34   C     C_3   0.829754 0.008083 0.675996 -0.648467
H8    H     H_    0.772795 0.970846 0.599638 0.180263
H9    H     H_    0.840306 0.991006 0.834187 0.189193
H10   H     H_    0.803795 0.072518 0.653505 0.256391
C35   C     C_3   0.813641 0.479026 0.606939 -0.703389
H11   H     H_    0.804010 0.523727 0.721233 0.195822
H12   H     H_    0.760577 0.490392 0.476790 0.188024
H13   H     H_    0.799760 0.417312 0.669434 0.238005
C36   C     C_3   0.180999 0.516866 0.365339 -0.610745
H14   H     H_    0.238699 0.501970 0.483686 0.214507
H15   H     H_    0.182235 0.472807 0.245373 0.164366
H16   H     H_    0.195026 0.578490 0.302513 0.247893
C37   C     C_2   0.530290 0.118154 0.961690 0.357392
H17   H     H_    0.492921 0.160093 0.853202 0.064903
O25   O     O_2   0.609847 0.134496 0.030835 -0.508458
C38   C     C_2   0.480331 0.881122 0.065217 0.365727
H18   H     H_    0.515329 0.852500 0.199410 0.060952
O26   O     O_2   0.410093 0.849491 0.980679 -0.497668
C39   C     C_2   0.486982 0.638706 0.135579 0.467507
H19   H     H_    0.513700 0.699652 0.105876 0.059651
O27   O     O_2   0.448497 0.628955 0.279754 -0.513219
C40   C     C_2   0.329484 0.517580 0.899833 0.400529
H20   H     H_    0.271401 0.477009 0.914103 0.020454
O28   O     O_2   0.315683 0.579048 0.792934 -0.488801
C41   C     C_3   0.402561 0.992084 0.309567 -0.750313
H21   H     H_    0.378238 0.021451 0.435555 0.204039
H22   H     H_    0.348684 0.948576 0.243310 0.250669
H23   H     H_    0.465431 0.957989 0.373809 0.209311
C42   C     C_3   0.591352 0.007343 0.688281 -0.759429
H24   H     H_    0.610842 0.977658 0.557569 0.202315
H25   H     H_    0.527804 0.043441 0.637018 0.210650
H26   H     H_    0.648417 0.049383 0.745959 0.249690
C43   C     C_3   0.547826 0.504929 0.713866 -0.714301
H27   H     H_    0.605404 0.511803 0.626877 0.199728
H28   H     H_    0.555304 0.443250 0.789322 0.205600
H29   H     H_    0.480886 0.507586 0.614499 0.257223
C44   C     C_3   0.534164 0.419396 0.252267 -0.741729
H30   H     H_    0.531510 0.373520 0.373816 0.219499
H31   H     H_    0.580903 0.395503 0.153902 0.220934
H32   H     H_    0.563622 0.477874 0.314145 0.218501

loop_
_geom_bond_atom_site_label_1
_geom_bond_atom_site_label_2
_ccdc_geom_bond_type
C39   H19   S    
O3    V4    S    
C41   H21   S    
O17   V4    S    
C6    C9    A    
C35   H12   S    
C35   H11   S    
C42   H24   S    
C36   H14   S    
C11   C31   S    
C44   H31   S    
O9    V1    S    
C43   H27   S    
C1    C6    S    
O18   C16   A    
C25   C38   S    
C38   O26   D    
C27   C40   S    
C8    C20   A    
O4    V3    S    
C10   C18   A    
O15   C13   A    
C30   H2    S    
O4    C1    A    
C34   H9    S    
C32   O24   D    
C43   H29   S    
C37   O25   D    
O5    V1    S    
O6    V2    S    
C23   C44   S    
C17   C33   S    
O9    C16   A    
O18   V3    S    
O10   C15   A    
C28   C39   S    
O5    C1    A    
O7    C3    A    
C18   C34   S    
C31   H3    S    
O8    C4    A    
V3    O19   S    
C2    C5    S    
V4    O20   S    
C42   H25   S    
C37   H17   S    
C29   O21   D    
C3    C8    S    
C44   H32   S    
C31   O23   D    
O16   C14   A    
O12   V1    S    
C27   C28   S    
C38   H18   S    
O13   V3    S    
C10   C30   S    
C33   H6    S    
C29   H1    S    
V2    O20   S    
O7    V2    S    
C34   H10   S    
C32   H4    S    
O6    C2    A    
C40   O28   D    
C8    C11   A    
C21   C25   D    
C33   H7    S    
C36   H15   S    
C16   C21   S    
O1    C4    A    
C5    C17   A    
O2    C3    A    
O3    C2    A    
C7    C19   A    
O1    V3    S    
C33   H5    S    
C41   H23   S    
C39   O27   D    
C35   H13   S    
O17   C15   A    
C42   H26   S    
O14   V4    S    
C43   H28   S    
C36   H16   S    
O10   V2    S    
C13   C24   S    
C12   C32   S    
O15   V3    S    
O11   C14   A    
C23   C27   D    
O13   V1    S    
C44   H30   S    
C22   C26   D    
O14   V2    S    
C5    C10   A    
C7    C12   A    
C6    C18   A    
C21   C42   S    
C9    C29   S    
C40   H20   S    
C22   C41   S    
O11   V2    S    
O2    V4    S    
C4    C7    S    
C11   C19   A    
C24   C43   S    
C12   C20   A    
C30   O22   D    
C19   C35   S    
C34   H8    S    
V1    O19   S    
C24   C28   D    
C9    C17   A    
C41   H22   S    
C25   C26   S    
O8    V1    S    
C20   C36   S    
O16   V4    S    
C14   C23   S    
O12   C13   A    
C15   C22   S    
C26   C37   S    
