data_mof_unit_67217.cif
_audit_creation_date              2013-03-05T16:01:24-0500
_audit_creation_method            fapswitch 2.2
_symmetry_space_group_name_H-M    P1
_symmetry_Int_Tables_number       1
_space_group_crystal_system       triclinic
_cell_length_a                    20.156242
_cell_length_b                    20.139935
_cell_length_c                    8.518383
_cell_angle_alpha                 90.000769
_cell_angle_beta                  91.756455
_cell_angle_gamma                 89.950955
_cell_volume                      3456.3723981

loop_
_atom_site_label
_atom_site_type_symbol
_atom_site_description
_atom_site_fract_x
_atom_site_fract_y
_atom_site_fract_z
_atom_type_partial_charge
P1    P     P_3+3 0.136530 0.426510 0.931350 0.532797
P2    P     P_3+3 0.136530 0.573490 0.431350 0.530172
P3    P     P_3+3 0.636530 0.926510 0.931350 0.532377
P4    P     P_3+3 0.636530 0.073490 0.431350 0.531879
O1    O     O_2   0.130070 0.404060 0.104920 -0.329160
O2    O     O_2   0.130070 0.595940 0.604920 -0.332525
O3    O     O_2   0.630070 0.904060 0.104920 -0.331368
O4    O     O_2   0.630070 0.095940 0.604920 -0.330889
O5    O     O_3   0.075780 0.466370 0.861070 -0.332056
O6    O     O_3   0.075780 0.533630 0.361070 -0.330629
O7    O     O_3   0.575780 0.966370 0.861070 -0.332932
O8    O     O_3   0.575780 0.033630 0.361070 -0.332649
O9    O     O_3   0.022320 0.344950 0.359800 -0.291531
O10   O     O_3   0.022320 0.655050 0.859800 -0.308263
O11   O     O_3   0.522320 0.844950 0.359800 -0.291702
O12   O     O_3   0.522320 0.155050 0.859800 -0.291553
O13   O     O_2   0.133280 0.294785 0.253693 -0.312012
O14   O     O_2   0.129885 0.710577 0.749432 -0.318153
O15   O     O_2   0.633217 0.794915 0.253436 -0.313096
O16   O     O_2   0.633283 0.205100 0.754109 -0.312320
O17   O     O_3   0.210969 0.471893 0.928650 -0.583316
O18   O     O_3   0.211071 0.528116 0.427681 -0.579674
O19   O     O_3   0.711089 0.971702 0.927524 -0.583594
O20   O     O_3   0.711162 0.028284 0.427737 -0.584797
O21   O     O_3   0.047368 0.207129 0.326864 -0.526000
O22   O     O_3   0.041280 0.793387 0.843381 -0.523508
O23   O     O_3   0.547394 0.707121 0.325974 -0.525141
O24   O     O_3   0.547261 0.292907 0.826253 -0.524685
C1    C     C_3   0.004123 0.112951 0.457934 -0.834297
C2    C     C_3   0.003414 0.871194 0.032940 -0.881564
C3    C     C_3   0.505311 0.612429 0.457205 -0.821235
C4    C     C_3   0.504191 0.387568 0.956112 -0.822917
H1    H     H_    0.054345 0.099831 0.504799 0.290924
H2    H     H_    0.051030 0.869062 0.101731 0.259976
H3    H     H_    0.555773 0.599695 0.503130 0.290249
H4    H     H_    0.554513 0.400801 0.001993 0.290827
P5    P     P_3+3 0.863410 0.426100 0.379280 0.528309
P6    P     P_3+3 0.863410 0.573900 0.879280 0.525739
P7    P     P_3+3 0.363410 0.926100 0.379280 0.528338
P8    P     P_3+3 0.363410 0.073900 0.879280 0.529455
P9    P     P_3+3 0.914767 0.284310 0.930076 0.570469
P10   P     P_3+3 0.913915 0.715028 0.429519 0.555492
P11   P     P_3+3 0.414845 0.784249 0.930047 0.568538
P12   P     P_3+3 0.414762 0.215761 0.430100 0.570168
O25   O     O_2   0.869860 0.403670 0.205810 -0.354434
O26   O     O_2   0.869860 0.596330 0.705810 -0.355854
O27   O     O_2   0.369860 0.903670 0.205810 -0.356650
O28   O     O_2   0.369860 0.096330 0.705810 -0.352700
O29   O     O_3   0.977590 0.344880 0.951200 -0.306820
O30   O     O_3   0.977590 0.655120 0.451200 -0.330229
O31   O     O_3   0.477590 0.844880 0.951200 -0.306169
O32   O     O_3   0.477590 0.155120 0.451200 -0.306780
O33   O     O_2   0.862319 0.300145 0.052891 -0.313899
O34   O     O_2   0.861869 0.700261 0.553962 -0.318471
O35   O     O_2   0.362412 0.800057 0.052881 -0.319742
O36   O     O_2   0.362301 0.199922 0.552824 -0.314230
O37   O     O_3   0.793463 0.477469 0.370768 -0.572240
O38   O     O_3   0.793478 0.522665 0.870194 -0.569891
O39   O     O_3   0.293428 0.977379 0.370068 -0.567379
O40   O     O_3   0.293625 0.022529 0.869989 -0.569022
O41   O     O_3   0.947127 0.208187 0.994925 -0.472731
O42   O     O_3   0.943342 0.793529 0.484320 -0.498867
O43   O     O_3   0.447269 0.708150 0.994919 -0.472064
O44   O     O_3   0.447054 0.291841 0.495088 -0.472564
C5    C     C_3   0.994022 0.186137 0.888324 0.216724
C6    C     C_3   0.009967 0.799614 0.443441 0.276237
C7    C     C_3   0.493984 0.685991 0.887992 0.211577
C8    C     C_3   0.493532 0.314168 0.387867 0.210519
C9    C     C_3   0.030023 0.125938 0.958559 0.035007
C10   C     C_3   0.031527 0.870994 0.475727 0.042227
C11   C     C_3   0.529999 0.625763 0.958039 0.040229
C12   C     C_3   0.529385 0.374443 0.457884 0.041276
C13   C     C_3   0.806698 0.463357 0.791614 0.358225
C14   C     C_3   0.806123 0.536261 0.289631 0.358230
C15   C     C_3   0.307372 0.962940 0.793183 0.317347
C16   C     C_3   0.306722 0.036760 0.291929 0.364825
H5    H     H_    0.827253 0.426531 0.877194 0.116838
H6    H     H_    0.826426 0.573820 0.373618 0.116842
H7    H     H_    0.327777 0.926550 0.879998 0.122610
H8    H     H_    0.327159 0.073471 0.377858 0.117135
C17   C     C_3   0.741191 0.437777 0.721438 -0.755406
C18   C     C_3   0.740352 0.560927 0.218683 -0.748552
C19   C     C_3   0.242222 0.936881 0.722464 -0.692541
C20   C     C_3   0.241303 0.062513 0.221413 -0.770767
H9    H     H_    0.725483 0.468418 0.618676 0.279745
H10   H     H_    0.724503 0.528984 0.118322 0.279791
H11   H     H_    0.226833 0.967095 0.618791 0.283217
H12   H     H_    0.225826 0.032110 0.118125 0.277160
H13   H     H_    0.701751 0.441466 0.808990 0.310006
H14   H     H_    0.701171 0.558358 0.307080 0.308377
H15   H     H_    0.202439 0.940885 0.809045 0.310053
H16   H     H_    0.201703 0.058657 0.308503 0.308619
Ba1   Ba    Ba6+2 0.999980 0.452130 0.155200 1.726587
Ba2   Ba    Ba6+2 0.999980 0.547870 0.655200 1.719443
Ba3   Ba    Ba6+2 0.499980 0.952130 0.155200 1.728043
Ba4   Ba    Ba6+2 0.499980 0.047870 0.655200 1.729062
C21   C     C_3   0.213359 0.525484 0.032681 0.705606
C22   C     C_3   0.214883 0.475741 0.535033 0.711242
C23   C     C_3   0.715002 0.023968 0.035128 0.705879
C24   C     C_3   0.714972 0.975874 0.534973 0.699144
C25   C     C_3   0.283859 0.531645 0.104820 0.064733
C26   C     C_3   0.285655 0.471541 0.606649 0.061765
C27   C     C_3   0.785868 0.028031 0.106079 0.064036
C28   C     C_3   0.785817 0.971499 0.605991 0.070992
O45   O     O_3   0.924190 0.533610 0.949240 -0.318823
O46   O     O_3   0.924190 0.466390 0.449240 -0.318831
O47   O     O_3   0.424190 0.033610 0.949240 -0.320377
O48   O     O_3   0.424190 0.966390 0.449240 -0.321444
P13   P     P_3+3 0.081225 0.717873 0.885218 0.590228
P14   P     P_3+3 0.082733 0.283172 0.383364 0.609749
P15   P     P_3+3 0.582607 0.216873 0.883432 0.610145
P16   P     P_3+3 0.582677 0.783141 0.382991 0.609795
C29   C     C_3   0.998981 0.187727 0.433069 0.956852
C30   C     C_3   0.990615 0.805061 0.950628 0.925646
C31   C     C_3   0.499457 0.687185 0.432765 0.952042
C32   C     C_3   0.499070 0.312715 0.932620 0.951880
H17   H     H_    0.004120 0.212584 0.549235 -0.099220
H18   H     H_    0.985719 0.765991 0.041996 -0.052960
H19   H     H_    0.504633 0.711979 0.548986 -0.098833
H20   H     H_    0.504469 0.288247 0.049201 -0.098640
C33   C     C_R   0.236491 0.301551 0.010479 0.012111
C34   C     C_R   0.236370 0.698609 0.510761 0.019071
C35   C     C_R   0.736111 0.801073 0.010398 0.026409
C36   C     C_R   0.736183 0.198790 0.510928 0.013592
C37   C     C_R   0.149362 0.345854 0.823989 0.200375
C38   C     C_R   0.149452 0.654077 0.323894 0.189473
C39   C     C_R   0.649227 0.845747 0.823803 0.200135
C40   C     C_R   0.649194 0.154314 0.324278 0.202260
C41   C     C_R   0.116358 0.338866 0.678318 -0.419116
C42   C     C_R   0.116349 0.661090 0.178343 -0.427130
C43   C     C_R   0.616241 0.838788 0.678074 -0.417842
C44   C     C_R   0.616214 0.161318 0.178576 -0.418769
C45   C     C_R   0.125729 0.284035 0.580665 0.145801
C46   C     C_R   0.125858 0.715747 0.080389 0.158269
C47   C     C_R   0.625724 0.784034 0.580131 0.146058
C48   C     C_R   0.625558 0.216106 0.080826 0.145668
C49   C     C_R   0.170839 0.234286 0.627942 0.366542
C50   C     C_R   0.171399 0.765148 0.126816 0.341570
C51   C     C_R   0.671089 0.734448 0.626796 0.365632
C52   C     C_R   0.670677 0.265807 0.127962 0.366397
C53   C     C_R   0.206717 0.239752 0.773238 -0.028825
C54   C     C_R   0.207726 0.759419 0.271431 -0.018806
C55   C     C_R   0.706903 0.739833 0.772120 -0.027485
C56   C     C_R   0.706561 0.260371 0.273284 -0.028705
C57   C     C_R   0.196950 0.296155 0.871298 -0.104814
C58   C     C_R   0.197355 0.703538 0.370639 -0.102515
C59   C     C_R   0.696859 0.796009 0.870780 -0.105156
C60   C     C_R   0.696738 0.204050 0.371561 -0.105440
C61   C     C_R   0.795531 0.697999 0.952472 -0.096167
C62   C     C_R   0.795287 0.302079 0.453642 -0.089668
C63   C     C_R   0.295372 0.198004 0.953718 -0.089805
C64   C     C_R   0.295994 0.801505 0.452502 -0.079743
C65   C     C_R   0.783949 0.752700 0.052908 0.090308
C66   C     C_R   0.784103 0.247044 0.553479 0.102082
C67   C     C_R   0.284297 0.253175 0.053273 0.102711
C68   C     C_R   0.284426 0.746784 0.553037 0.106838
C69   C     C_R   0.848750 0.652980 0.990021 0.150507
C70   C     C_R   0.848694 0.346933 0.490722 0.161522
C71   C     C_R   0.348708 0.153042 0.990885 0.161114
C72   C     C_R   0.349012 0.846701 0.490255 0.155655
C73   C     C_R   0.888712 0.665323 0.124687 0.073090
C74   C     C_R   0.889253 0.333911 0.624398 0.101426
C75   C     C_R   0.389276 0.166019 0.124550 0.101693
C76   C     C_R   0.389394 0.833842 0.624296 0.100686
C77   C     C_R   0.871474 0.713710 0.233635 0.108833
C78   C     C_R   0.872637 0.284994 0.732946 0.074490
C79   C     C_R   0.372723 0.215078 0.232908 0.075451
C80   C     C_R   0.372725 0.784951 0.732898 0.074775
C81   C     C_R   0.820114 0.758212 0.196333 -0.218007
C82   C     C_R   0.820917 0.240910 0.696047 -0.223713
C83   C     C_R   0.321126 0.259340 0.195761 -0.226936
C84   C     C_R   0.320966 0.740901 0.696042 -0.225323
C85   C     C_R   0.754610 0.691142 0.816844 0.055816
C86   C     C_R   0.754170 0.309095 0.318269 0.050987
C87   C     C_R   0.254260 0.190965 0.818416 0.051615
C88   C     C_R   0.255601 0.807934 0.315868 0.084409
H21   H     H_    0.808612 0.797154 0.278991 0.218734
H22   H     H_    0.809584 0.201841 0.778453 0.214123
H23   H     H_    0.309897 0.298569 0.277898 0.212733
H24   H     H_    0.309460 0.701992 0.778724 0.212324
H25   H     H_    0.760772 0.648204 0.743656 0.205745
H26   H     H_    0.760267 0.352088 0.245222 0.204985
H27   H     H_    0.260280 0.147883 0.745596 0.205646
H28   H     H_    0.261961 0.850657 0.242186 0.199039
Cl1   Cl    Cl    0.919124 0.205574 0.349609 -0.606644
Cl2   Cl    Cl    0.913518 0.810216 0.843598 -0.600293
Cl3   Cl    Cl    0.419280 0.704398 0.350358 -0.610256
Cl4   Cl    Cl    0.419091 0.294679 0.850293 -0.608693
H29   H     H_    0.745988 0.385275 0.684982 0.203533
H30   H     H_    0.744871 0.612938 0.178397 0.203492
H31   H     H_    0.247303 0.884239 0.687378 0.210525
H32   H     H_    0.246108 0.115092 0.185645 0.206999
H33   H     H_    0.176631 0.522012 0.126502 0.051153
H34   H     H_    0.178166 0.479303 0.628843 0.051735
H35   H     H_    0.678450 0.020335 0.129263 0.053637
H36   H     H_    0.678411 0.979522 0.629100 0.054631
Cl5   Cl    Cl    0.199448 0.597479 0.918760 -0.677378
Cl6   Cl    Cl    0.202566 0.402426 0.425317 -0.678010
Cl7   Cl    Cl    0.702410 0.097399 0.926000 -0.678608
Cl8   Cl    Cl    0.702272 0.902620 0.425339 -0.675759
Cl9   Cl    Cl    0.316004 0.454292 0.174350 -0.621446
Cl10  Cl    Cl    0.316396 0.549863 0.672717 -0.629032
Cl11  Cl    Cl    0.816467 0.949693 0.172690 -0.618452
Cl12  Cl    Cl    0.816554 0.049673 0.673065 -0.624961
H37   H     H_    0.284453 0.568113 0.202572 0.131133
H38   H     H_    0.287246 0.435802 0.705897 0.133699
H39   H     H_    0.787692 0.063938 0.204983 0.133259
H40   H     H_    0.787547 0.935493 0.704707 0.141690
H41   H     H_    0.318652 0.549774 0.015824 0.190732
H42   H     H_    0.320670 0.453438 0.518028 0.192074
H43   H     H_    0.820763 0.045808 0.016906 0.192465
H44   H     H_    0.820698 0.953679 0.516764 0.195221
H45   H     H_    0.966781 0.096183 0.542532 0.253721
H46   H     H_    0.962805 0.882055 0.114406 0.248068
H47   H     H_    0.468390 0.595266 0.542406 0.250135
H48   H     H_    0.467073 0.404615 0.041034 0.249873
H49   H     H_    0.995473 0.086375 0.344818 0.253465
H50   H     H_    0.006140 0.911973 0.945363 0.288296
H51   H     H_    0.496544 0.585869 0.344120 0.258861
H52   H     H_    0.495204 0.413813 0.842672 0.257828
Cl13  Cl    Cl    0.093224 0.097694 0.833259 -0.652660
Cl14  Cl    Cl    0.116539 0.882582 0.433210 -0.659589
Cl15  Cl    Cl    0.593060 0.597437 0.832513 -0.658432
Cl16  Cl    Cl    0.592056 0.403078 0.331726 -0.657440
H53   H     H_    0.088296 0.380349 0.632468 0.223845
H54   H     H_    0.087805 0.619888 0.133109 0.226399
H55   H     H_    0.588166 0.880277 0.632340 0.223927
H56   H     H_    0.588234 0.119836 0.132708 0.223757
Cl17  Cl    Cl    0.185623 0.168059 0.498087 -0.658161
Cl18  Cl    Cl    0.185318 0.831830 0.997690 -0.649781
Cl19  Cl    Cl    0.686345 0.668607 0.496037 -0.659486
Cl20  Cl    Cl    0.685477 0.331923 0.997880 -0.659461
Cl21  Cl    Cl    0.962163 0.621088 0.157037 -0.616719
Cl22  Cl    Cl    0.962570 0.378188 0.656177 -0.618947
Cl23  Cl    Cl    0.462549 0.121561 0.156450 -0.618999
Cl24  Cl    Cl    0.462560 0.878314 0.656387 -0.618727
H57   H     H_    0.231875 0.344031 0.086033 0.214237
H58   H     H_    0.230904 0.656818 0.587877 0.214229
H59   H     H_    0.731062 0.843161 0.086839 0.214112
H60   H     H_    0.731328 0.156528 0.586916 0.215198
H61   H     H_    0.031390 0.225358 0.864702 0.091840
H62   H     H_    0.041689 0.765653 0.516295 0.158137
H63   H     H_    0.531359 0.725154 0.864061 0.092495
H64   H     H_    0.531032 0.275096 0.363558 0.092404
H65   H     H_    0.967961 0.170679 0.777741 0.079467
H66   H     H_    0.016222 0.788376 0.316950 0.018411
H67   H     H_    0.467776 0.670546 0.777593 0.080105
H68   H     H_    0.467120 0.329621 0.277662 0.079668
H69   H     H_    0.053736 0.139202 0.073409 0.193204
H70   H     H_    0.024521 0.883343 0.601241 0.201550
H71   H     H_    0.553815 0.639012 0.072707 0.194917
H72   H     H_    0.553482 0.361150 0.572324 0.194353
H73   H     H_    0.994159 0.084970 0.976466 0.161558
H74   H     H_    0.001000 0.905614 0.402046 0.149371
H75   H     H_    0.494146 0.584838 0.976151 0.163562
H76   H     H_    0.493355 0.415255 0.476572 0.162636
H77   H     H_    0.841916 0.470014 0.695488 0.113410
H78   H     H_    0.841323 0.529162 0.193649 0.114811
H79   H     H_    0.342869 0.969317 0.697499 0.117152
H80   H     H_    0.342066 0.030166 0.196006 0.111517

loop_
_geom_bond_atom_site_label_1
_geom_bond_atom_site_label_2
_geom_bond_distance
_ccdc_geom_bond_type
O7    Ba4   2.816991 S    
O37   C14   1.398632 S    
O10   P13   1.744782 S    
C19   H11   1.108741 S    
C64   C72   1.433367 A    
Ba2   O45   2.987517 S    
P1    O17   1.758300 S    
Ba1   Ba2   4.675300 S    
O18   C22   1.396567 S    
C36   C66   1.410286 A    
P7    C72   1.884840 S    
C76   Cl24  1.740518 S    
C23   Cl7   1.760858 S    
C54   C58   1.426803 A    
P8    C71   1.883789 S    
P3    O19   1.758785 S    
Ba3   Ba4   4.675300 S    
O4    Ba4   2.840679 S    
O14   P13   1.546215 D    
P9    O41   1.748491 S    
P4    O4    1.555356 D    
C83   H23   1.083677 S    
O13   P14   1.543460 D    
C10   H74   1.110999 S    
C38   C58   1.435674 A    
C9    H73   1.111033 S    
C42   C46   1.398184 A    
P11   C80   1.858465 S    
C8    H68   1.109335 S    
C45   C49   1.403130 A    
C32   Cl4   1.776016 S    
C66   C82   1.409028 A    
Ba3   O47   2.817113 S    
C82   H22   1.083617 S    
C73   C77   1.396724 A    
P1    O1    1.555433 D    
C72   C76   1.405704 A    
C19   H31   1.107033 S    
C30   H18   1.113340 S    
P8    Ba4   3.437372 S    
C43   C47   1.399298 A    
C44   H56   1.075160 S    
C2    C30   1.523695 S    
C36   H60   1.075670 S    
P3    C39   1.887878 S    
P15   C48   1.867582 S    
C3    H47   1.110665 S    
C38   C42   1.396969 A    
P6    O38   1.747410 S    
C12   Cl16  1.779799 S    
C23   H35   1.107915 S    
C24   C28   1.536119 S    
C31   Cl3   1.775985 S    
C22   H34   1.107972 S    
C88   H28   1.075105 S    
C12   H76   1.111045 S    
C21   H33   1.108171 S    
C24   Cl8   1.760757 S    
C61   C65   1.418432 A    
C1    C29   1.523823 S    
O24   C32   1.406041 S    
Ba1   O45   2.817113 S    
P11   O31   1.763995 S    
P4    Ba4   3.435375 S    
C7    H67   1.109075 S    
C48   C52   1.403348 A    
P9    O29   1.764249 S    
Ba2   O46   2.818611 S    
C64   C68   1.419530 A    
C1    H1    1.108467 S    
O2    Ba2   2.840679 S    
O31   Ba3   2.800461 S    
O23   P16   1.751125 S    
P2    O18   1.758972 S    
C35   C59   1.411843 A    
O8    Ba3   2.818489 S    
O32   Ba4   2.799901 S    
C71   C75   1.405937 A    
C63   C67   1.419445 A    
P4    O8    1.568109 S    
O28   Ba4   2.842894 S    
P10   O42   1.747563 S    
C3    H51   1.111312 S    
P10   C77   1.851833 S    
C56   C60   1.427311 A    
C2    H50   1.112060 S    
C17   H13   1.109029 S    
C84   H24   1.083640 S    
C61   C85   1.405688 A    
C1    H49   1.111382 S    
P9    O33   1.543049 D    
C29   Cl1   1.776057 S    
C74   C78   1.399044 A    
C18   H30   1.106971 S    
C86   H26   1.075615 S    
P2    O2    1.555356 D    
C51   C55   1.417976 A    
C14   C18   1.522916 S    
C65   C81   1.407799 A    
C25   H37   1.110105 S    
C11   H71   1.107805 S    
C9    H69   1.108373 S    
C3    C31   1.523898 S    
C24   H36   1.107931 S    
O24   P15   1.751167 S    
C77   C81   1.397918 A    
P7    O48   1.572061 S    
C75   Cl23  1.740677 S    
O43   C7    1.402588 S    
C16   C20   1.522757 S    
O12   Ba4   2.802379 S    
C55   C85   1.416815 A    
C63   C87   1.405999 A    
C2    H2    1.109871 S    
C17   H29   1.107029 S    
P11   O43   1.748606 S    
C21   Cl5   1.762226 S    
O12   P15   1.747866 S    
P2    Ba2   3.435375 S    
O42   C6    1.403088 S    
P1    O5    1.567047 S    
C49   Cl17  1.763782 S    
C23   C27   1.536074 S    
C50   C54   1.418294 A    
C27   H43   1.110442 S    
C25   Cl9   1.781109 S    
C22   Cl6   1.761175 S    
C10   H70   1.110915 S    
O30   Ba2   2.799901 S    
C34   C58   1.412561 A    
C54   C88   1.417191 A    
C6    H62   1.112077 S    
O6    Ba1   2.818489 S    
C25   H41   1.110358 S    
C14   H78   1.108012 S    
C22   C26   1.536436 S    
P5    O37   1.747737 S    
C5    H61   1.114483 S    
C68   C84   1.409010 A    
P1    Ba1   3.434663 S    
P12   O44   1.748565 S    
C32   H20   1.110950 S    
O9    Ba1   2.801821 S    
P12   C79   1.858107 S    
C63   C71   1.432972 A    
P5    C70   1.883987 S    
C55   C59   1.427358 A    
O22   C30   1.410523 S    
C46   C50   1.402927 A    
O9    P14   1.747446 S    
O21   C29   1.406088 S    
Ba1   O46   2.987259 S    
C2    H46   1.110815 S    
O16   P15   1.543270 D    
O17   C21   1.396438 S    
O19   C23   1.396473 S    
P12   O36   1.543102 D    
C21   C25   1.535924 S    
C1    H45   1.110659 S    
O26   Ba2   2.842894 S    
C50   Cl18  1.764014 S    
C75   C79   1.399223 A    
C8    C12   1.525343 S    
P7    O39   1.747328 S    
P9    C78   1.858415 S    
P6    Ba2   3.437372 S    
C28   Cl12  1.780174 S    
C49   C53   1.418529 A    
P5    Ba1   3.438098 S    
C43   H55   1.075121 S    
O15   P16   1.543133 D    
C12   H72   1.108450 S    
C56   C86   1.417642 A    
C26   H38   1.110042 S    
O22   P13   1.751726 S    
C11   H75   1.110507 S    
C4    H52   1.111354 S    
C36   C60   1.412358 A    
O21   P14   1.751012 S    
C13   C17   1.522796 S    
C35   H59   1.075520 S    
C29   H17   1.111006 S    
P2    C38   1.885549 S    
C76   C80   1.399257 A    
P11   O35   1.542837 D    
C4    C32   1.523926 S    
C62   C86   1.406352 A    
Ba4   O47   2.987517 S    
P10   O30   1.766333 S    
O25   Ba1   2.844435 S    
C78   C82   1.398326 A    
C31   H19   1.110907 S    
C81   H21   1.083667 S    
C37   C41   1.397032 A    
C14   H6    1.110877 S    
C33   C57   1.412402 A    
C16   H80   1.108310 S    
C15   H7    1.110879 S    
C28   H44   1.110462 S    
P16   C47   1.866542 S    
P5    O25   1.554406 D    
P2    O6    1.568109 S    
O44   C8    1.402574 S    
C69   C73   1.403647 A    
C15   C19   1.521668 S    
C19   H15   1.108875 S    
P7    O27   1.554406 D    
C35   C65   1.409606 A    
C44   C48   1.398710 A    
P8    O28   1.554482 D    
C5    H65   1.109111 S    
C40   C44   1.396961 A    
P4    C40   1.887260 S    
C7    H63   1.114274 S    
C41   C45   1.398694 A    
C62   C70   1.433697 A    
C6    H66   1.111932 S    
P13   C46   1.866405 S    
O20   C24   1.396455 S    
C87   H27   1.075534 S    
C34   C68   1.410482 A    
O11   P16   1.746806 S    
C33   H57   1.076252 S    
C40   C60   1.435945 A    
C16   H8    1.110925 S    
P6    C69   1.878839 S    
C27   H39   1.110070 S    
C33   C67   1.409798 A    
C30   Cl2   1.780373 S    
C15   H79   1.108449 S    
O27   Ba3   2.844435 S    
O1    Ba1   2.839145 S    
C4    H4    1.108484 S    
C52   Cl20  1.763783 S    
C53   C57   1.427078 A    
O3    Ba3   2.839145 S    
C47   C51   1.402721 A    
O40   C15   1.398442 S    
P3    O3    1.555433 D    
C18   H14   1.109022 S    
C79   C83   1.398088 A    
P1    C37   1.885659 S    
C39   C43   1.397233 A    
C52   C56   1.418632 A    
P7    Ba3   3.438098 S    
C26   H42   1.110468 S    
P5    O46   1.572061 S    
P6    O45   1.570987 S    
C18   H10   1.109237 S    
P10   O34   1.543174 D    
C74   Cl22  1.740716 S    
O11   Ba3   2.801821 S    
P12   O32   1.763798 S    
P8    O47   1.570987 S    
C34   H58   1.075497 S    
C20   H12   1.108988 S    
C61   C69   1.432603 A    
C8    H64   1.114455 S    
P4    O20   1.758765 S    
C5    C9    1.525224 S    
O5    Ba2   2.816991 S    
C3    H3    1.108388 S    
C10   Cl14  1.777785 S    
C11   Cl15  1.779473 S    
O10   Ba2   2.802379 S    
C20   H32   1.107047 S    
C7    C11   1.525222 S    
C28   H40   1.110118 S    
O41   C5    1.402552 S    
C26   Cl10  1.780206 S    
C27   Cl11  1.780008 S    
P6    O26   1.554482 D    
P3    O7    1.567047 S    
Ba3   O48   2.987259 S    
C70   C74   1.405826 A    
C85   H25   1.075410 S    
C64   C88   1.405719 A    
C67   C83   1.408758 A    
C80   C84   1.398391 A    
C4    H48   1.110696 S    
C73   Cl21  1.741906 S    
C6    C10   1.524748 S    
C42   H54   1.074839 S    
P3    Ba3   3.434663 S    
C62   C66   1.419445 A    
C41   H53   1.075246 S    
P8    O40   1.746665 S    
C53   C87   1.416925 A    
C13   H5    1.110927 S    
Ba4   O48   2.818611 S    
P14   C45   1.867311 S    
C51   Cl19  1.764610 S    
C20   H16   1.109020 S    
C9    Cl13  1.779799 S    
O29   Ba1   2.800461 S    
C13   H77   1.108227 S    
O39   C16   1.398779 S    
C37   C57   1.434913 A    
C17   H9    1.109064 S    
O38   C13   1.398641 S    
C39   C59   1.435319 A    
O23   C31   1.406019 S    
