data_mof_unit_54362.cif
_audit_creation_date              2012-12-10T18:04:41-0500
_audit_creation_method            fapswitch 2.2
_symmetry_space_group_name_H-M    P1
_symmetry_Int_Tables_number       1
_space_group_crystal_system       triclinic
_cell_length_a                    19.525389
_cell_length_b                    17.566838
_cell_length_c                    12.744989
_cell_angle_alpha                 87.844894
_cell_angle_beta                  101.065061
_cell_angle_gamma                 90.277309
_cell_volume                      4287.20861261

loop_
_atom_site_label
_atom_site_type_symbol
_atom_type_description
_atom_site_fract_x
_atom_site_fract_y
_atom_site_fract_z
_atom_type_partial_charge
C1    C     C_R   0.408705 0.101668 0.441497 0.938614
C2    C     C_R   0.765142 0.754013 0.655645 -0.058008
C3    C     C_3   0.428878 0.246177 0.830658 -0.560936
C4    C     C_3   0.905515 0.300234 0.857839 -0.622198
C5    C     C_3   0.928975 0.745715 0.830690 -0.560349
C6    C     C_3   0.433521 0.744628 0.177848 -0.840230
C7    C     C_3   0.314279 0.174278 0.121826 -0.572367
C8    C     C_3   0.933567 0.244588 0.177913 -0.840224
C9    C     C_3   0.814121 0.674097 0.121655 -0.573462
C10   C     C_3   0.765581 0.071111 0.392758 -0.732567
C11   C     C_3   0.608176 0.618806 0.439734 -0.668731
C12   C     C_3   0.265565 0.571119 0.392747 -0.732739
C13   C     C_R   0.273420 0.726780 0.658254 -0.078280
C14   C     C_3   0.108140 0.118882 0.439725 -0.668595
C15   C     C_3   0.716651 0.883681 0.288238 -0.773706
C16   C     C_3   0.216651 0.383678 0.288247 -0.773766
C17   C     C_R   0.265123 0.253907 0.655741 -0.057699
C18   C     C_R   0.343974 0.749835 0.689190 0.187280
C19   C     C_R   0.335065 0.229061 0.673824 0.184217
C20   C     C_R   0.843947 0.249849 0.689190 0.187350
C21   C     C_R   0.835059 0.729131 0.673765 0.184446
C22   C     C_R   0.379303 0.777638 0.609833 0.389971
C23   C     C_R   0.364987 0.213380 0.585061 0.339570
C24   C     C_R   0.879283 0.277649 0.609837 0.390037
C25   C     C_R   0.415439 0.892900 0.447580 0.891519
C26   C     C_R   0.864987 0.713393 0.585031 0.339855
C27   C     C_R   0.678704 0.191069 0.514604 -0.205246
C28   C     C_R   0.665273 0.794189 0.523284 -0.229455
C29   C     C_R   0.178711 0.691072 0.514623 -0.205192
C30   C     C_R   0.165323 0.294226 0.523334 -0.229650
C31   C     C_R   0.658733 0.189871 0.693486 0.121880
C32   C     C_R   0.664591 0.814149 0.708234 0.131166
C33   C     C_R   0.158764 0.689839 0.693521 0.122049
C34   C     C_R   0.164528 0.314038 0.708284 0.131054
C35   C     C_R   0.378129 0.819491 0.423423 -0.165827
C36   C     C_R   0.908705 0.601666 0.441495 0.938496
C37   C     C_R   0.348985 0.155603 0.406194 -0.079863
C38   C     C_R   0.878127 0.319491 0.423428 -0.165824
C39   C     C_R   0.848986 0.655598 0.406179 -0.079929
C40   C     C_R   0.643896 0.004502 0.136763 0.125226
C41   C     C_R   0.143894 0.504492 0.136764 0.125294
C42   C     C_R   0.378334 0.993798 0.762240 0.396370
C43   C     C_R   0.878337 0.493761 0.762248 0.396444
C44   C     C_R   0.353397 0.996013 0.857382 0.213801
C45   C     C_R   0.853403 0.495947 0.857397 0.213394
C46   C     C_R   0.588730 0.896025 0.558568 0.898085
C47   C     C_R   0.915439 0.392900 0.447580 0.891491
C48   C     C_R   0.587812 0.104697 0.554789 0.926444
C49   C     C_R   0.088739 0.396026 0.558582 0.898099
C50   C     C_R   0.087816 0.604696 0.554794 0.926458
C51   C     C_R   0.399885 0.006708 0.954128 0.085222
C52   C     C_R   0.899890 0.506663 0.954138 0.085180
C53   C     C_R   0.471869 0.019670 0.954412 -0.064634
C54   C     C_R   0.971869 0.519657 0.954416 -0.064635
C55   C     C_R   0.495604 0.015480 0.855402 -0.005528
C56   C     C_R   0.995603 0.515485 0.855403 -0.005540
C57   C     C_R   0.523057 0.027060 0.050524 -0.050412
C58   C     C_R   0.746398 0.218302 0.546886 0.000317
C59   C     C_R   0.023057 0.527054 0.050526 -0.050458
C60   C     C_R   0.594075 0.029815 0.046836 -0.033668
C61   C     C_R   0.094074 0.529807 0.046840 -0.033601
C62   C     C_R   0.612821 0.048395 0.950920 -0.252635
C63   C     C_R   0.112823 0.548389 0.950930 -0.252779
C64   C     C_R   0.568970 0.026405 0.857532 0.244583
C65   C     C_R   0.068969 0.526421 0.857535 0.244373
C66   C     C_R   0.508868 0.034459 0.152583 0.470858
C67   C     C_R   0.008867 0.534457 0.152582 0.470771
C68   C     C_R   0.617410 0.975984 0.226481 0.227068
C69   C     C_R   0.725153 0.749764 0.550902 -0.022256
C70   C     C_R   0.117409 0.475978 0.226481 0.227069
C71   C     C_R   0.727868 0.213563 0.731821 0.321786
C72   C     C_R   0.733390 0.785051 0.736271 0.395081
C73   C     C_R   0.227904 0.713527 0.731845 0.321730
C74   C     C_R   0.233289 0.284801 0.736391 0.395320
C75   C     C_R   0.640210 0.164760 0.588458 -0.139390
C76   C     C_R   0.639365 0.833717 0.598743 -0.148089
C77   C     C_R   0.140219 0.664756 0.588477 -0.139353
C78   C     C_R   0.139386 0.333719 0.598790 -0.148122
C79   C     C_R   0.374392 0.783455 0.324707 0.204284
C80   C     C_R   0.246411 0.718297 0.546899 0.000303
C81   C     C_R   0.305000 0.148465 0.305266 0.149041
C82   C     C_R   0.874407 0.283441 0.324726 0.204267
C83   C     C_R   0.805012 0.648460 0.305241 0.149255
C84   C     C_R   0.321555 0.729238 0.295932 -0.202668
C85   C     C_R   0.233070 0.158164 0.295133 -0.281861
C86   C     C_R   0.821572 0.229222 0.295947 -0.202635
C87   C     C_R   0.733078 0.658142 0.295104 -0.281754
C88   C     C_R   0.277895 0.706601 0.366462 0.184197
C89   C     C_R   0.204550 0.182777 0.379621 0.208432
C90   C     C_R   0.777902 0.206595 0.366465 0.184163
C91   C     C_R   0.225169 0.249753 0.550961 -0.022363
C92   C     C_R   0.704550 0.682745 0.379592 0.208349
C93   C     C_R   0.287886 0.737193 0.470023 0.022761
C94   C     C_R   0.249750 0.208708 0.472372 0.029453
C95   C     C_R   0.787880 0.237196 0.470018 0.022745
C96   C     C_R   0.749742 0.708699 0.472336 0.029393
C97   C     C_R   0.346209 0.782959 0.501780 -0.071280
C98   C     C_R   0.322143 0.193977 0.486783 -0.083741
C99   C     C_R   0.846196 0.282968 0.501781 -0.071276
C100  C     C_R   0.822140 0.693979 0.486756 -0.083864
C101  C     C_3   0.592767 0.289823 0.748467 -0.545015
C102  C     C_R   0.773396 0.226798 0.658242 -0.078293
C103  C     C_3   0.630349 0.791733 0.886821 -0.732052
C104  C     C_3   0.092783 0.789638 0.748879 -0.545234
C105  C     C_3   0.129979 0.291971 0.886750 -0.731529
C106  C     C_3   0.749159 0.959082 0.077077 -0.745625
C107  C     C_3   0.249143 0.459047 0.077059 -0.745958
C108  C     C_3   0.376613 0.924065 0.097313 -0.689248
C109  C     C_3   0.876647 0.424004 0.097327 -0.689246
C110  C     C_3   0.673862 0.999674 0.778029 -0.765145
C111  C     C_3   0.173876 0.499666 0.778052 -0.765791
C112  C     C_3   0.405527 0.800246 0.857831 -0.622012
Cl1   Cl    Cl    0.474571 0.122964 0.172421 -0.591158
Cl2   Cl    Cl    0.280931 0.301548 0.866081 -0.699906
Cl3   Cl    Cl    0.470510 0.777728 0.638503 -0.684746
Cl4   Cl    Cl    0.454999 0.228701 0.593950 -0.669749
Cl5   Cl    Cl    0.970487 0.277717 0.638501 -0.684610
Cl6   Cl    Cl    0.955001 0.728706 0.593925 -0.669691
Cl7   Cl    Cl    0.974566 0.622963 0.172410 -0.591145
Cl8   Cl    Cl    0.316705 0.987693 0.642275 -0.537752
Cl9   Cl    Cl    0.816705 0.487667 0.642285 -0.537912
Cl10  Cl    Cl    0.263129 0.982236 0.855276 -0.570278
Cl11  Cl    Cl    0.763142 0.482126 0.855301 -0.570582
Cl12  Cl    Cl    0.750713 0.232333 0.869936 -0.714013
Cl13  Cl    Cl    0.781255 0.802450 0.865630 -0.699583
Cl14  Cl    Cl    0.250784 0.732218 0.869984 -0.714242
H1    H     H_    0.666828 0.060662 0.950809 0.196173
H2    H     H_    0.698504 0.642262 0.222253 0.153574
H3    H     H_    0.733378 0.842192 0.355321 0.237286
H4    H     H_    0.757978 0.927350 0.296766 0.271995
H5    H     H_    0.712121 0.852561 0.213120 0.246103
H6    H     H_    0.113912 0.373412 0.300062 0.224703
H7    H     H_    0.233384 0.342198 0.355336 0.237241
H8    H     H_    0.257973 0.427352 0.296771 0.271989
H9    H     H_    0.212128 0.352551 0.213136 0.246171
H10   H     H_    0.613661 0.184474 0.827075 0.255070
H11   H     H_    0.551651 0.302714 0.793529 0.215539
H12   H     H_    0.576700 0.312343 0.664778 0.267099
H13   H     H_    0.639908 0.321249 0.786321 0.274400
H14   H     H_    0.592244 0.740424 0.746843 0.292103
H15   H     H_    0.581003 0.788525 0.917923 0.229079
H16   H     H_    0.657196 0.844693 0.914642 0.254125
H17   H     H_    0.662546 0.741187 0.919526 0.268770
H18   H     H_    0.113790 0.684216 0.827190 0.255040
H19   H     H_    0.166830 0.560658 0.950824 0.196232
H20   H     H_    0.051798 0.802412 0.794252 0.215424
H21   H     H_    0.076534 0.812245 0.665267 0.267303
H22   H     H_    0.139954 0.821078 0.786573 0.274436
H23   H     H_    0.092199 0.240295 0.746931 0.292067
H24   H     H_    0.080525 0.289229 0.917575 0.228981
H25   H     H_    0.157073 0.344826 0.914454 0.254024
H26   H     H_    0.161858 0.241296 0.919853 0.268740
H27   H     H_    0.733225 0.066674 0.128919 0.228914
H28   H     H_    0.795575 0.932110 0.128640 0.257288
H29   H     H_    0.767765 0.990232 0.010572 0.240570
H30   H     H_    0.654327 0.189738 0.431287 0.216385
H31   H     H_    0.712416 0.913886 0.044549 0.249591
H32   H     H_    0.233239 0.566642 0.128930 0.228936
H33   H     H_    0.295558 0.432068 0.128614 0.257246
H34   H     H_    0.267749 0.490194 0.010551 0.240442
H35   H     H_    0.212392 0.413855 0.044536 0.249673
H36   H     H_    0.325381 0.024150 0.044932 0.271241
H37   H     H_    0.340412 0.886288 0.044884 0.270976
H38   H     H_    0.430484 0.901049 0.108872 0.239418
H39   H     H_    0.360528 0.925199 0.176130 0.253643
H40   H     H_    0.825385 0.524074 0.044959 0.271241
H41   H     H_    0.640099 0.801533 0.441282 0.192107
H42   H     H_    0.840455 0.386217 0.044902 0.271036
H43   H     H_    0.930525 0.401008 0.108882 0.239415
H44   H     H_    0.860563 0.425130 0.176146 0.253604
H45   H     H_    0.593414 0.928684 0.802016 0.268967
H46   H     H_    0.681376 0.983835 0.697687 0.228124
H47   H     H_    0.709914 0.964531 0.838313 0.251338
H48   H     H_    0.687830 0.060222 0.786981 0.234712
H49   H     H_    0.093368 0.428741 0.801916 0.269002
H50   H     H_    0.181395 0.483847 0.697704 0.228084
H51   H     H_    0.209891 0.464467 0.838317 0.250994
H52   H     H_    0.154329 0.689751 0.431307 0.216390
H53   H     H_    0.187893 0.560198 0.787059 0.234852
H54   H     H_    0.370395 0.686807 0.835161 0.265655
H55   H     H_    0.436973 0.781117 0.936284 0.207530
H56   H     H_    0.359662 0.832562 0.871507 0.278693
H57   H     H_    0.438348 0.838801 0.817615 0.251595
H58   H     H_    0.376322 0.145831 0.786612 0.229828
H59   H     H_    0.425265 0.252575 0.915703 0.266314
H60   H     H_    0.430949 0.303896 0.792522 0.251830
H61   H     H_    0.477149 0.213425 0.829589 0.229633
H62   H     H_    0.870323 0.186822 0.835163 0.265669
H63   H     H_    0.140189 0.301613 0.441323 0.192183
H64   H     H_    0.936953 0.281092 0.936293 0.207519
H65   H     H_    0.859661 0.332567 0.871517 0.278790
H66   H     H_    0.938349 0.338776 0.817628 0.251559
H67   H     H_    0.875763 0.645671 0.786649 0.229634
H68   H     H_    0.925537 0.751932 0.915895 0.265964
H69   H     H_    0.931163 0.803540 0.792834 0.252280
H70   H     H_    0.977107 0.712750 0.829204 0.229888
H71   H     H_    0.477417 0.803628 0.311267 0.249409
H72   H     H_    0.479383 0.760882 0.142180 0.226491
H73   H     H_    0.386342 0.750759 0.113774 0.276601
H74   H     H_    0.316233 0.700136 0.221570 0.166621
H75   H     H_    0.440293 0.684488 0.208275 0.253390
H76   H     H_    0.317374 0.067871 0.201063 0.225201
H77   H     H_    0.341925 0.155936 0.058815 0.272568
H78   H     H_    0.330958 0.233407 0.142063 0.259676
H79   H     H_    0.257532 0.173701 0.087643 0.199075
H80   H     H_    0.977439 0.303614 0.311320 0.249431
H81   H     H_    0.979434 0.260837 0.142257 0.226506
H82   H     H_    0.886395 0.250707 0.113822 0.276548
H83   H     H_    0.940338 0.184454 0.208361 0.253413
H84   H     H_    0.817642 0.567775 0.201277 0.225355
H85   H     H_    0.198495 0.142301 0.222272 0.153539
H86   H     H_    0.841951 0.655884 0.058787 0.272491
H87   H     H_    0.830445 0.733360 0.141725 0.259632
H88   H     H_    0.757394 0.673113 0.087360 0.198722
H89   H     H_    0.713359 0.137283 0.262011 0.229824
H90   H     H_    0.723575 0.028757 0.393039 0.275680
H91   H     H_    0.790458 0.079126 0.477616 0.244918
H92   H     H_    0.805321 0.049583 0.349417 0.235783
H93   H     H_    0.602322 0.678356 0.294686 0.218429
H94   H     H_    0.550627 0.621888 0.432154 0.237015
H95   H     H_    0.632377 0.626353 0.524932 0.269305
H96   H     H_    0.816261 0.200111 0.221594 0.166610
H97   H     H_    0.622337 0.561816 0.415277 0.244595
H98   H     H_    0.213352 0.637293 0.262001 0.229828
H99   H     H_    0.223557 0.528765 0.393021 0.275691
H100  H     H_    0.290440 0.579128 0.477608 0.244887
H101  H     H_    0.305307 0.549590 0.349410 0.235775
H102  H     H_    0.102322 0.178455 0.294703 0.218437
H103  H     H_    0.050593 0.121997 0.432141 0.237027
H104  H     H_    0.132343 0.126401 0.524928 0.269320
H105  H     H_    0.122274 0.061888 0.415243 0.244595
H106  H     H_    0.613919 0.873423 0.300080 0.224713
N1    N     N_R   0.552340 0.000000 0.237260 -0.191558
N2    N     N_2   0.217226 0.511332 0.139031 -0.310940
N3    N     N_2   0.374056 0.000407 0.050890 -0.281534
N4    N     N_2   0.874066 0.500348 0.050905 -0.281634
N5    N     N_2   0.601901 0.985408 0.788325 -0.232268
N6    N     N_2   0.101896 0.485459 0.788290 -0.232156
N7    N     N_2   0.383489 0.734668 0.794214 -0.260053
N8    N     N_2   0.369306 0.203850 0.778138 -0.252423
N9    N     N_2   0.883454 0.234665 0.794216 -0.260016
N10   N     N_2   0.869161 0.703761 0.778086 -0.252824
N11   N     N_2   0.429019 0.794338 0.264549 -0.292220
N12   N     N_R   0.052340 0.500000 0.237260 -0.191531
N13   N     N_2   0.330943 0.123595 0.216201 -0.253715
N14   N     N_2   0.929047 0.294314 0.264589 -0.292231
N15   N     N_2   0.830977 0.623589 0.216192 -0.253426
N16   N     N_2   0.735587 0.141391 0.341564 -0.317949
N17   N     N_2   0.630769 0.677825 0.371836 -0.337689
N18   N     N_2   0.235575 0.641401 0.341556 -0.317918
N19   N     N_2   0.130766 0.177898 0.371855 -0.337699
N20   N     N_2   0.649954 0.915932 0.296567 -0.273618
N21   N     N_2   0.149949 0.415922 0.296564 -0.273632
N22   N     N_R   0.448170 0.000000 0.762060 -0.176272
N23   N     N_R   0.948170 0.500000 0.762060 -0.176180
N24   N     N_2   0.605587 0.208144 0.750543 -0.257816
N25   N     N_2   0.614112 0.791840 0.771183 -0.257385
N26   N     N_2   0.105647 0.707976 0.750708 -0.257973
N27   N     N_2   0.113970 0.291786 0.771120 -0.256967
N28   N     N_2   0.717227 0.011360 0.139038 -0.311008
O1    O     O_R   0.448200 0.076800 0.373930 -0.537333
O2    O     O_R   0.585240 0.076800 0.457600 -0.595607
O3    O     O_R   0.085240 0.423200 0.457600 -0.629392
O4    O     O_R   0.085240 0.576800 0.457600 -0.595587
O5    O     O_R   0.551780 0.923190 0.626070 -0.561793
O6    O     O_R   0.551780 0.076810 0.626070 -0.547326
O7    O     O_R   0.051780 0.423190 0.626070 -0.561847
O8    O     O_R   0.051780 0.576810 0.626070 -0.547289
O9    O     O_R   0.448200 0.923200 0.373930 -0.637727
O10   O     O_R   0.948200 0.576800 0.373930 -0.537414
O11   O     O_R   0.948200 0.423200 0.373930 -0.637751
O12   O     O_R   0.414750 0.076790 0.542400 -0.554549
O13   O     O_R   0.414750 0.923210 0.542400 -0.526660
O14   O     O_R   0.914750 0.576790 0.542400 -0.554504
O15   O     O_R   0.914750 0.423210 0.542400 -0.526652
O16   O     O_R   0.585240 0.923200 0.457600 -0.629419
Zn1   Zn    Zn3+2 0.522330 0.000000 0.387520 0.990126
Zn2   Zn    Zn3+2 0.022330 0.500000 0.387520 0.990099
Zn3   Zn    Zn3+2 0.477660 0.000000 0.612480 1.042526
Zn4   Zn    Zn3+2 0.977660 0.500000 0.612480 1.042508

loop_
_geom_bond_atom_site_label_1
_geom_bond_atom_site_label_2
_ccdc_geom_bond_type
C83   C87   A    
C108  H39   S    
C63   C65   A    
H58   N8    S    
O1    Zn1   S    
C40   C60   A    
C66   Cl1   S    
N23   Zn4   S    
C24   C99   A    
H67   N10   S    
C104  H22   S    
C28   C69   A    
C17   C91   A    
C41   C61   A    
C57   C66   A    
C21   C26   A    
C69   C96   A    
C16   H8    S    
C11   H95   S    
C46   C76   S    
C107  H34   S    
C40   N28   S    
C110  N5    S    
C90   C95   A    
C32   C72   A    
C1    O12   A    
C50   O4    A    
C92   N17   S    
C84   H74   S    
C105  H24   S    
C108  H38   S    
C52   N4    S    
C24   Cl5   S    
C11   N17   S    
C13   C18   A    
O14   Zn4   S    
C38   C99   A    
C51   N3    S    
C32   N25   S    
H80   N14   S    
C6    H73   S    
C47   O15   A    
C110  H47   S    
C20   C102  A    
C15   N20   S    
C42   N22   A    
C9    H86   S    
C56   C65   A    
C74   Cl2   S    
C103  H15   S    
O7    Zn4   S    
C92   C96   A    
C12   N18   S    
C49   C78   S    
C60   C62   A    
N22   Zn3   S    
C30   H63   S    
C44   Cl10  S    
C89   C94   A    
C8    H82   S    
C20   C24   A    
H23   N27   S    
C14   H103  S    
C62   C64   A    
C28   H41   S    
C70   N12   A    
C23   Cl4   S    
C31   C75   A    
O11   Zn2   S    
C107  H35   S    
C52   C54   A    
C106  H28   S    
C90   N16   S    
C33   N26   S    
C9    N15   S    
O4    Zn2   S    
H106  N20   S    
C79   N11   S    
C5    N10   S    
C2    C69   A    
H18   N26   S    
C43   Cl9   S    
C7    H77   S    
H98   N18   S    
C3    N8    S    
C5    H69   S    
H102  N19   S    
C59   C67   A    
C68   N20   S    
C31   C71   A    
C13   C80   A    
C8    N14   S    
H89   N16   S    
C105  N27   S    
C22   C97   A    
C87   C92   A    
C38   C82   A    
C106  N28   S    
C103  N25   S    
C104  H21   S    
C37   C81   A    
H62   N9    S    
H10   N24   S    
C42   C44   A    
H84   N15   S    
O13   Zn3   S    
C4    H66   S    
C27   C75   A    
C16   H7    S    
C85   H85   S    
C70   N21   S    
C36   O14   A    
C37   C98   A    
C109  H43   S    
C112  H57   S    
C54   C56   A    
C54   C59   A    
C53   C55   A    
C101  H13   S    
C20   N9    S    
C105  H25   S    
C108  H37   S    
C50   O8    A    
C59   C61   A    
C111  N6    S    
C14   H104  S    
H14   N25   S    
C82   N14   S    
C66   N1    A    
C111  H50   S    
H49   N6    S    
C104  H20   S    
C71   Cl12  S    
C101  N24   S    
C111  H53   S    
C6    H75   S    
C86   C90   A    
C11   H97   S    
C6    H72   S    
C53   C57   A    
O5    Zn3   S    
C57   C60   A    
C112  H56   S    
C14   N19   S    
H45   N5    S    
H54   N7    S    
C9    H87   S    
C82   C86   A    
O2    Zn1   S    
C25   O13   A    
C46   O16   A    
C3    H61   S    
C51   C53   A    
C84   C88   A    
C8    H81   S    
C19   C23   A    
C58   C95   A    
C7    H78   S    
C3    H59   S    
C109  H42   S    
C81   N13   S    
C4    H64   S    
C16   N21   S    
C86   H96   S    
C12   H100  S    
C103  H16   S    
C15   H3    S    
C48   O6    A    
C67   N12   A    
C112  N7    S    
C55   C64   A    
C5    H68   S    
C2    C21   A    
N12   Zn2   S    
C64   N5    S    
O9    Zn1   S    
C29   C77   A    
C45   Cl11  S    
C104  N26   S    
C111  H51   S    
C110  H46   S    
C48   C75   S    
C43   C45   A    
C14   H105  S    
H6    N21   S    
C25   C35   S    
C87   H2    S    
C1    O1    A    
H36   N3    S    
C31   N24   S    
C44   C51   A    
C33   C73   A    
C22   Cl3   S    
C107  N2    S    
C34   C74   A    
O12   Zn3   S    
C29   H52   S    
C5    H70   S    
C106  H31   S    
C40   C68   A    
C17   C74   A    
O6    Zn3   S    
C25   O9    A    
C65   N6    S    
C35   C79   A    
C10   N16   S    
C8    H83   S    
C49   O3    A    
C50   C77   S    
C93   C97   A    
C4    N9    S    
C18   N7    S    
C10   H92   S    
C88   N18   S    
C110  H48   S    
C2    C72   A    
C43   N23   A    
C27   H30   S    
H76   N13   S    
C7    N13   S    
C88   C93   A    
H71   N11   S    
C41   N2    S    
C85   C89   A    
C89   N19   S    
C18   C22   A    
C71   C102  A    
C36   C39   S    
C26   Cl6   S    
C13   C73   A    
C30   C91   A    
C12   H101  S    
C27   C58   A    
C103  H17   S    
C32   C76   A    
C107  H33   S    
C101  H12   S    
C112  H55   S    
C1    C37   S    
C9    H88   S    
O3    Zn2   S    
N1    Zn1   S    
O8    Zn4   S    
C3    H60   S    
C45   C52   A    
C55   N22   A    
C38   C47   S    
C72   Cl13  S    
O10   Zn2   S    
C101  H11   S    
O15   Zn4   S    
C39   C83   A    
C19   N8    S    
H32   N2    S    
C91   C94   A    
C16   H9    S    
C10   H90   S    
C12   H99   S    
C79   C84   A    
C29   C80   A    
C49   O7    A    
C46   O5    A    
C58   C102  A    
C96   C100  A    
C109  H44   S    
C48   O2    A    
C17   C19   A    
C63   H19   S    
C34   N27   S    
C95   C99   A    
C36   O10   A    
C6    N11   S    
C81   C85   A    
C108  N3    S    
C68   N1    A    
C7    H79   S    
C30   C78   A    
C109  N4    S    
C47   O11   A    
C62   H1    S    
C23   C98   A    
C15   H5    S    
O16   Zn1   S    
C39   C100  A    
C106  H29   S    
H93   N17   S    
C56   N23   A    
C83   N15   S    
C42   Cl8   S    
C94   C98   A    
C21   N10   S    
C105  H26   S    
H40   N4    S    
C15   H4    S    
C80   C93   A    
C35   C97   A    
H27   N28   S    
C67   Cl7   S    
C11   H94   S    
C33   C77   A    
C34   C78   A    
C4    H65   S    
C73   Cl14  S    
C10   H91   S    
C26   C100  A    
C41   C70   A    
C61   C63   A    
C28   C76   A    
