data_mof_unit_40157.cif
_audit_creation_date              2013-03-05T15:42:03-0500
_audit_creation_method            fapswitch 2.2
_symmetry_space_group_name_H-M    P1
_symmetry_Int_Tables_number       1
_space_group_crystal_system       triclinic
_cell_length_a                    27.78547
_cell_length_b                    8.673455
_cell_length_c                    7.542888
_cell_angle_alpha                 101.694374
_cell_angle_beta                  94.660036
_cell_angle_gamma                 92.899362
_cell_volume                      1769.99745495

loop_
_atom_site_label
_atom_site_type_symbol
_atom_site_description
_atom_site_fract_x
_atom_site_fract_y
_atom_site_fract_z
_atom_type_partial_charge
O1    O     O_R   0.503500 0.286120 0.619780 -0.593736
O2    O     O_R   0.496500 0.713880 0.380220 -0.593758
O3    O     O_R   0.494410 0.256780 0.308360 -0.586498
O4    O     O_R   0.505590 0.743220 0.691640 -0.586521
C1    C     C_R   0.497818 0.200772 0.455042 0.915006
C2    C     C_R   0.502189 0.799228 0.544957 0.914890
O5    O     O_R   0.434810 0.514700 0.655690 -0.580551
O6    O     O_R   0.565190 0.485300 0.344310 -0.580637
O7    O     O_R   0.425720 0.485350 0.344280 -0.564070
O8    O     O_R   0.574280 0.514650 0.655720 -0.564055
C3    C     C_R   0.407890 0.498130 0.501247 0.837075
C4    C     C_R   0.592110 0.501874 0.498754 0.836910
Cu1   Cu    Cu3+1 0.505380 0.517380 0.684380 1.045583
Cu2   Cu    Cu3+1 0.494620 0.482620 0.315620 1.045540
C5    C     C_R   0.175352 0.373277 0.420519 0.586790
C6    C     C_R   0.824644 0.626801 0.579372 0.586780
O9    O     O_2   0.197082 0.254053 0.321006 -0.453647
O10   O     O_2   0.802911 0.746052 0.678823 -0.453601
N1    N     N_R   0.202863 0.506018 0.509421 -0.472193
N2    N     N_R   0.797135 0.494036 0.490532 -0.472213
C7    C     C_R   0.182047 0.635587 0.597461 0.579864
C8    C     C_R   0.817951 0.364455 0.402525 0.579864
C9    C     C_R   0.280567 0.614556 0.434720 -0.051512
C10   C     C_R   0.719445 0.385594 0.565453 -0.051612
C11   C     C_R   0.330544 0.609635 0.431299 -0.204313
C12   C     C_R   0.669469 0.390506 0.568893 -0.204272
C13   C     C_R   0.329170 0.384595 0.579655 -0.075412
C14   C     C_R   0.670818 0.615300 0.420137 -0.075385
C15   C     C_R   0.279214 0.394566 0.587737 -0.128283
C16   C     C_R   0.720774 0.605351 0.412064 -0.128333
C17   C     C_R   0.254694 0.507059 0.513087 0.293404
C18   C     C_R   0.745306 0.492981 0.486892 0.293508
C19   C     C_R   0.102384 0.499208 0.509626 -0.089528
C20   C     C_R   0.897613 0.500858 0.490285 -0.089536
C21   C     C_R   0.124668 0.363043 0.427811 -0.138080
C22   C     C_R   0.875329 0.637032 0.572078 -0.138101
C23   C     C_R   0.095597 0.222693 0.354528 0.364590
C24   C     C_R   0.904400 0.777385 0.645337 0.364592
C25   C     C_R   0.131572 0.635803 0.595944 -0.012697
C26   C     C_R   0.868426 0.364250 0.404007 -0.012694
C27   C     C_R   0.355208 0.496001 0.504005 -0.077424
C28   C     C_R   0.644792 0.504012 0.495995 -0.077393
H1    H     H_    0.258619 0.309888 0.644526 0.190702
H2    H     H_    0.741359 0.689954 0.355129 0.190596
C29   C     C_R   0.970623 0.362247 0.411815 0.065194
C30   C     C_R   0.029374 0.637820 0.588088 0.065192
C31   C     C_R   0.978028 0.639050 0.579814 -0.007333
C32   C     C_R   0.021969 0.361022 0.420072 -0.007335
C33   C     C_R   0.948949 0.500756 0.494216 0.079863
C34   C     C_R   0.051048 0.499313 0.505683 0.079862
C35   C     C_R   0.939876 0.229838 0.320927 -0.168789
C36   C     C_R   0.060121 0.770220 0.679004 -0.168780
C37   C     C_R   0.889978 0.230901 0.318278 -0.038179
C38   C     C_R   0.110020 0.769149 0.681681 -0.038196
O11   O     O_2   0.789836 0.236304 0.313227 -0.491667
O12   O     O_2   0.210162 0.763712 0.686829 -0.491662
C39   C     C_R   0.045377 0.223798 0.350200 -0.266437
C40   C     C_R   0.954620 0.776280 0.649664 -0.266438
H3    H     H_    0.649914 0.305342 0.628293 0.166109
H4    H     H_    0.350108 0.694884 0.372054 0.166046
H5    H     H_    0.738141 0.299190 0.625174 0.180190
H6    H     H_    0.261881 0.701055 0.375133 0.180235
H7    H     H_    0.868261 0.125667 0.247979 0.219878
H8    H     H_    0.131737 0.874375 0.752006 0.219884
H9    H     H_    0.952874 0.122905 0.247317 0.164595
H10   H     H_    0.047122 0.877147 0.752622 0.164608
H11   H     H_    0.025801 0.111575 0.297273 0.172843
H12   H     H_    0.974197 0.888505 0.702573 0.172832
C41   C     C_2   0.492695 0.033726 0.432520 -0.369751
C42   C     C_2   0.507321 0.966273 0.567473 -0.369579
H13   H     H_    0.475287 0.966526 0.305345 0.223926
H14   H     H_    0.524731 0.033474 0.694647 0.223948
N3    N     N_2   0.486510 0.456430 0.038510 -0.236335
N4    N     N_2   0.513490 0.543570 0.961490 -0.236345
C43   C     C_2   0.351790 0.248124 0.634211 0.912100
O13   O     O_2   0.336909 0.193399 0.758383 -0.530890
O14   O     O_R   0.388103 0.175849 0.536482 -0.764349
H15   H     H_    0.397828 0.076339 0.576772 0.335531
C44   C     C_2   0.648183 0.751644 0.365345 0.912087
O15   O     O_2   0.663000 0.806040 0.240847 -0.530798
O16   O     O_R   0.611930 0.824172 0.463207 -0.764313
H16   H     H_    0.602193 0.923589 0.422719 0.335621
C45   C     C_2   0.486702 0.294268 0.962445 1.141627
O17   O     O_2   0.524948 0.230413 0.963278 -0.626587
O18   O     O_R   0.442922 0.204704 0.908255 -0.742148
H17   H     H_    0.447502 0.087862 0.869619 0.320341
C46   C     C_2   0.513273 0.705735 0.037511 1.141628
O19   O     O_2   0.475011 0.769501 0.036749 -0.626536
O20   O     O_R   0.557041 0.795407 0.091518 -0.742131
H18   H     H_    0.552438 0.912238 0.130097 0.320343
N5    N     N_R   0.116074 0.074310 0.295102 0.162610
O21   O     O_R   0.098950 0.982073 0.142308 -0.370833
O22   O     O_R   0.144165 0.017701 0.409352 -0.316558
N6    N     N_R   0.883923 0.925767 0.704766 0.162609
O23   O     O_R   0.901038 0.017982 0.857584 -0.370813
O24   O     O_R   0.855841 0.982396 0.590507 -0.316558

loop_
_geom_bond_atom_site_label_1
_geom_bond_atom_site_label_2
_geom_bond_distance
_ccdc_geom_bond_type
C46   O19   1.223084 D    
C10   H5    1.082884 S    
C13   C15   1.400576 A    
N3    N4    1.289251 D    
O7    Cu2   1.944750 S    
N1    C17   1.437680 S    
O16   H16   1.013386 S    
C32   C39   1.413191 A    
C31   C33   1.418353 A    
O18   H17   1.013656 S    
O5    C3    1.310303 A    
C19   C25   1.410521 A    
O1    C1    1.303985 A    
N1    C7    1.365321 A    
C10   C12   1.393603 A    
C41   C42   1.319810 D    
C25   C38   1.394366 A    
C29   C35   1.416044 A    
C30   C36   1.416047 A    
C2    C42   1.422596 S    
C35   H9    1.075473 S    
C14   C28   1.415127 A    
O4    Cu1   1.948149 S    
C41   H13   1.078576 S    
C14   C44   1.481876 S    
C1    C41   1.422589 S    
C24   C40   1.393692 A    
C9    H6    1.082878 S    
C4    C28   1.464868 S    
C11   H4    1.083823 S    
N4    C46   1.407705 S    
C12   H3    1.083832 S    
C6    N2    1.369021 A    
C32   C34   1.418357 A    
Cu1   Cu2   2.726337 S    
C15   H1    1.084071 S    
C16   H2    1.084077 S    
O2    C2    1.303981 A    
C39   H11   1.075307 S    
C13   C43   1.481937 S    
C5    C21   1.412831 A    
C36   C38   1.385496 A    
C23   N5    1.436194 S    
Cu2   N3    2.048699 S    
O4    C2    1.294067 A    
C11   C27   1.402922 A    
N5    O21   1.301278 A    
C44   O16   1.397125 S    
C19   C34   1.424324 A    
O14   H15   1.013356 S    
C35   C37   1.385481 A    
C9    C17   1.400089 A    
C5    N1    1.369028 A    
C43   O13   1.223435 D    
C10   C18   1.400092 A    
N5    O22   1.301512 A    
C43   O14   1.397119 S    
C13   C27   1.415142 A    
C45   O17   1.223082 D    
C7    C25   1.401707 A    
C29   C33   1.422520 A    
O6    C4    1.310304 A    
C8    C26   1.401696 A    
C24   N6    1.436191 S    
N6    O24   1.301512 A    
O7    C3    1.306594 A    
O3    Cu2   1.948149 S    
O8    C4    1.306592 A    
C40   H12   1.075313 S    
C45   O18   1.394707 S    
N2    C8    1.365316 A    
C46   O20   1.394700 S    
C20   C26   1.410521 A    
O1    Cu1   1.962789 S    
C36   H10   1.075475 S    
C12   C28   1.402921 A    
N2    C18   1.437639 S    
C29   C32   1.423629 A    
C5    O9    1.348860 S    
C30   C31   1.423627 A    
C20   C33   1.424331 A    
O6    Cu2   1.953610 S    
C21   C23   1.412466 A    
O3    C1    1.294062 A    
O8    Cu1   1.944752 S    
C7    O12   1.350015 S    
C8    O11   1.350018 S    
C30   C34   1.422522 A    
C22   C24   1.412467 A    
C15   C17   1.400310 A    
C6    C22   1.412837 A    
C31   C40   1.413190 A    
C16   C18   1.400297 A    
C37   H7    1.083738 S    
C38   H8    1.083739 S    
C14   C16   1.400546 A    
C19   C21   1.414089 A    
C3    C27   1.464865 S    
C20   C22   1.414099 A    
C9    C11   1.393599 A    
N6    O23   1.301259 A    
O2    Cu2   1.962790 S    
C44   O15   1.223399 D    
O5    Cu1   1.953610 S    
Cu1   N4    2.048699 S    
C6    O10   1.348867 S    
C26   C37   1.394369 A    
C42   H14   1.078578 S    
O20   H18   1.013649 S    
N3    C45   1.407689 S    
C23   C39   1.393689 A    
