data_mof_unit_35401.cif
_audit_creation_date              2012-12-10T18:47:45-0500
_audit_creation_method            fapswitch 2.2
_symmetry_space_group_name_H-M    P1
_symmetry_Int_Tables_number       1
_space_group_crystal_system       triclinic
_cell_length_a                    9.876013
_cell_length_b                    10.714022
_cell_length_c                    15.385283
_cell_angle_alpha                 90.40712
_cell_angle_beta                  67.695744
_cell_angle_gamma                 90.189636
_cell_volume                      1506.10611086

loop_
_atom_site_label
_atom_site_type_symbol
_atom_type_description
_atom_site_fract_x
_atom_site_fract_y
_atom_site_fract_z
_atom_type_partial_charge
C1    C     C_R   0.500089 0.740028 0.500157 0.882938
C2    C     C_R   0.499986 0.259975 0.499713 0.874187
C3    C     C_R   0.319983 0.502879 0.112004 -0.242960
C4    C     C_R   0.610221 0.343819 0.917162 -0.243403
C5    C     C_R   0.216633 0.531935 0.074057 0.304885
C6    C     C_R   0.712834 0.314644 0.956010 0.304952
C7    C     C_R   0.631174 0.936330 0.483224 -0.150250
C8    C     C_R   0.369062 0.063684 0.516273 -0.150720
C9    C     C_R   0.631167 0.064176 0.482788 -0.173131
C10   C     C_R   0.369071 0.935848 0.516699 -0.169919
C11   C     C_R   0.500061 0.127482 0.499447 -0.022749
C12   C     C_R   0.500138 0.872533 0.500154 -0.024418
C13   C     C_R   0.961081 0.420974 0.442564 -0.103262
C14   C     C_R   0.039002 0.579210 0.557275 -0.119819
C15   C     C_R   0.104737 0.420664 0.442423 0.057365
C16   C     C_R   0.895394 0.579601 0.557339 0.055962
C17   C     C_R   0.408172 0.499974 0.676368 0.900863
C18   C     C_R   0.591561 0.497035 0.323779 0.898558
C19   C     C_R   0.348302 0.498100 0.778834 -0.112616
C20   C     C_R   0.646582 0.469582 0.223543 -0.079152
C21   C     C_R   0.158184 0.551632 0.928685 0.344216
C22   C     C_R   0.795994 0.341620 0.091568 0.339236
C23   C     C_R   0.207776 0.540879 0.831041 -0.196161
C24   C     C_R   0.766052 0.391278 0.181276 -0.173897
C25   C     C_R   0.436690 0.456635 0.823974 -0.211304
C26   C     C_R   0.557719 0.500309 0.176271 -0.180556
C27   C     C_R   0.390114 0.459783 0.921781 0.050491
C28   C     C_R   0.570244 0.439127 0.093267 0.041929
C29   C     C_R   0.251213 0.514916 0.976313 0.018936
C30   C     C_R   0.696424 0.363642 0.045506 0.011137
C31   C     C_R   0.486761 0.419142 0.964484 0.050216
C32   C     C_R   0.459302 0.454971 0.057006 0.045853
H1    H     H_    0.474231 0.569809 0.208282 0.159011
H2    H     H_    0.546519 0.428596 0.780525 0.164759
H3    H     H_    0.834313 0.365845 0.219336 0.187034
H4    H     H_    0.138339 0.571722 0.795191 0.183980
H5    H     H_    0.286490 0.515069 0.186994 0.173173
H6    H     H_    0.626172 0.300944 0.850294 0.178021
H7    H     H_    0.733370 0.887881 0.469778 0.169138
H8    H     H_    0.266856 0.112121 0.529726 0.168871
H9    H     H_    0.733435 0.113005 0.469037 0.161253
H10   H     H_    0.266796 0.887035 0.530444 0.162465
H11   H     H_    0.932461 0.358123 0.396756 0.139601
H12   H     H_    0.067714 0.642281 0.602909 0.139625
N1    N     N_R   0.142780 0.500030 0.500020 -0.101877
N2    N     N_R   0.857220 0.499970 0.499980 -0.101331
O1    O     O_R   0.385370 0.683250 0.500010 -0.627479
O2    O     O_R   0.614630 0.316750 0.499990 -0.631557
O3    O     O_R   0.614700 0.683220 0.500000 -0.614759
O4    O     O_R   0.385300 0.316780 0.500000 -0.617243
O5    O     O_R   0.319830 0.500020 0.632250 -0.609149
O6    O     O_R   0.680170 0.499980 0.367750 -0.591009
O7    O     O_R   0.549160 0.499990 0.632240 -0.615153
O8    O     O_R   0.450840 0.500010 0.367760 -0.617420
Zn1   Zn    Zn3+2 0.346870 0.500020 0.500000 0.969963
Zn2   Zn    Zn3+2 0.653130 0.499980 0.500000 0.977765
Br1   Br    Br    0.040542 0.602669 0.164971 -0.458788
Br2   Br    Br    0.869352 0.210401 0.875858 -0.414652
Br3   Br    Br    0.965292 0.622496 0.983551 -0.417434
Br4   Br    Br    0.971734 0.243068 0.045889 -0.405876
C33   C     C_1   0.210375 0.335498 0.380496 0.212377
N3    N     N_1   0.294889 0.266817 0.330401 -0.190933
C34   C     C_1   0.790041 0.665425 0.618691 0.221413
N4    N     N_1   0.705739 0.734686 0.668280 -0.181193

loop_
_geom_bond_atom_site_label_1
_geom_bond_atom_site_label_2
_ccdc_geom_bond_type
C19   C23   A    
C21   C29   A    
C16   C34   S    
C27   C29   A    
O3    Zn2   S    
C8    H8    S    
C6    Br2   S    
C26   H1    S    
C9    H9    S    
C31   C32   A    
C4    C6    A    
C5    Br1   S    
C25   H2    S    
C7    C9    A    
C17   O5    A    
C28   C30   A    
C15   C33   S    
O1    Zn1   S    
C18   O6    A    
C20   C24   A    
C9    C11   A    
N1    Zn1   S    
C13   N2    A    
C1    C12   S    
C20   C26   A    
C8    C11   A    
C2    C11   S    
C10   C12   A    
C28   C32   A    
C14   H12   S    
C26   C28   A    
C17   C19   S    
C4    H6    S    
C21   Br3   S    
C14   N1    A    
C5    C29   A    
C13   C15   A    
C21   C23   A    
C22   Br4   S    
C3    C32   A    
C19   C25   A    
C22   C24   A    
C7    C12   A    
C4    C31   A    
C10   H10   S    
C33   N3    T    
C15   N1    A    
C27   C31   A    
C34   N4    T    
C24   H3    S    
C17   O7    A    
C13   H11   S    
C3    H5    S    
C18   C20   S    
C8    C10   A    
C23   H4    S    
O7    Zn2   S    
C16   N2    A    
C2    O4    A    
O2    Zn2   S    
C18   O8    A    
O8    Zn1   S    
C1    O1    A    
C7    H7    S    
C22   C30   A    
O5    Zn1   S    
C2    O2    A    
C14   C16   A    
O6    Zn2   S    
C1    O3    A    
C6    C30   A    
O4    Zn1   S    
C3    C5    A    
C25   C27   A    
N2    Zn2   S    
