data_mof_unit_25096.cif
_audit_creation_date              2012-12-11T14:19:21-0500
_audit_creation_method            fapswitch 2.2
_symmetry_space_group_name_H-M    P1
_symmetry_Int_Tables_number       1
_space_group_crystal_system       triclinic
_cell_length_a                    19.431461
_cell_length_b                    7.242111
_cell_length_c                    17.729807
_cell_angle_alpha                 90.000314
_cell_angle_beta                  107.6575
_cell_angle_gamma                 90.000139
_cell_volume                      2377.47480863

loop_
_atom_site_label
_atom_site_type_symbol
_atom_type_description
_atom_site_fract_x
_atom_site_fract_y
_atom_site_fract_z
_atom_type_partial_charge
O1    O     O_R   0.414820 0.494320 0.416790 -0.545376
O2    O     O_R   0.585180 0.994320 0.583210 -0.545378
O3    O     O_R   0.560270 0.819500 0.430140 -0.546762
O4    O     O_R   0.439730 0.319500 0.569860 -0.546772
C1    C     C_R   0.581176 0.655418 0.414644 0.710464
C2    C     C_R   0.418825 0.155418 0.585356 0.710400
O5    O     O_R   0.413840 0.823740 0.407440 -0.508604
O6    O     O_R   0.586160 0.323740 0.592560 -0.508624
O7    O     O_R   0.437710 0.998590 0.560350 -0.540358
O8    O     O_R   0.562290 0.498590 0.439650 -0.540338
C3    C     C_R   0.387282 0.655688 0.385342 0.750010
C4    C     C_R   0.612722 0.155691 0.614651 0.750033
O9    O     O_3   0.508000 0.662290 0.550200 -0.378077
O10   O     O_3   0.492000 0.162290 0.449800 -0.378050
V1    V     V_3+5 0.498520 0.935380 0.490690 1.434403
V2    V     V_3+5 0.501480 0.435380 0.509310 1.434388
C5    C     C_2   0.787188 0.272107 0.787873 -0.193076
C6    C     C_2   0.212891 0.772093 0.212019 -0.193079
C7    C     C_2   0.821247 0.113010 0.816428 -0.335881
C8    C     C_2   0.178761 0.613019 0.183559 -0.335870
H1    H     H_    0.809892 0.401008 0.815921 0.150302
H2    H     H_    0.190247 0.900966 0.183889 0.150290
C9    C     C_2   0.720822 0.289963 0.718050 0.223751
C10   C     C_2   0.279270 0.789980 0.281822 0.223744
C11   C     C_2   0.679628 0.143308 0.683270 -0.284471
C12   C     C_2   0.320376 0.643293 0.316724 -0.284513
H3    H     H_    0.694653 0.005293 0.705725 0.096630
H4    H     H_    0.305276 0.505234 0.294372 0.096672
C13   C     C_R   0.326755 0.990107 0.634078 -0.214882
C14   C     C_R   0.673254 0.490122 0.365933 -0.214869
C15   C     C_R   0.369650 0.147459 0.635155 -0.080252
C16   C     C_R   0.630352 0.647460 0.364847 -0.080268
C17   C     C_R   0.364379 0.298829 0.683036 -0.221532
C18   C     C_R   0.635615 0.798819 0.316958 -0.221525
C19   C     C_R   0.317277 0.293772 0.729386 0.089513
C20   C     C_R   0.682719 0.793765 0.270610 0.089514
C21   C     C_R   0.273874 0.136457 0.727139 0.056048
C22   C     C_R   0.726127 0.636458 0.272862 0.056046
C23   C     C_R   0.278534 0.984316 0.679159 0.088443
C24   C     C_R   0.721473 0.484326 0.320850 0.088440
C25   C     C_R   0.312738 0.443469 0.777939 -0.187156
C26   C     C_R   0.687255 0.943456 0.222053 -0.187149
C27   C     C_R   0.265050 0.438371 0.823281 -0.191117
C28   C     C_R   0.734941 0.938356 0.176709 -0.191111
C29   C     C_R   0.221060 0.283432 0.820922 0.088335
C30   C     C_R   0.778934 0.783422 0.179070 0.088338
C31   C     C_R   0.225682 0.131346 0.772908 0.056178
C32   C     C_R   0.774318 0.631346 0.227091 0.056174
C33   C     C_R   0.182246 0.974095 0.770630 0.088150
C34   C     C_R   0.817758 0.474102 0.229375 0.088152
C35   C     C_R   0.186791 0.824389 0.722076 -0.187032
C36   C     C_R   0.813217 0.324402 0.277933 -0.187025
C37   C     C_R   0.234528 0.829406 0.676785 -0.190575
C38   C     C_R   0.765482 0.329422 0.323226 -0.190569
C39   C     C_R   0.172898 0.277595 0.866063 -0.216250
C40   C     C_R   0.827093 0.777581 0.133927 -0.216243
C41   C     C_R   0.129911 0.120351 0.864957 -0.077174
C42   C     C_R   0.870088 0.620350 0.135042 -0.077177
C43   C     C_R   0.135110 0.969092 0.816952 -0.219228
C44   C     C_R   0.864896 0.469103 0.183055 -0.219222
H5    H     H_    0.329927 0.873168 0.597095 0.127772
H6    H     H_    0.670090 0.373197 0.402926 0.127787
H7    H     H_    0.397331 0.420480 0.684733 0.130001
H8    H     H_    0.602655 0.920457 0.315254 0.130006
H9    H     H_    0.345904 0.565046 0.780623 0.135330
H10   H     H_    0.654087 0.065031 0.219368 0.135327
H11   H     H_    0.262400 0.556114 0.860019 0.133540
H12   H     H_    0.737588 0.056095 0.139968 0.133539
H13   H     H_    0.169863 0.394517 0.903107 0.128808
H14   H     H_    0.830121 0.894490 0.096874 0.128806
H15   H     H_    0.102099 0.847506 0.815123 0.131626
H16   H     H_    0.897914 0.347529 0.184891 0.131626
H17   H     H_    0.237195 0.711641 0.640066 0.133567
H18   H     H_    0.762818 0.211662 0.359948 0.133567
O11   O     O_R   0.937810 0.773680 0.060480 -0.537874
O12   O     O_R   0.062190 0.273680 0.939520 -0.537879
O13   O     O_R   0.086190 0.439740 0.092580 -0.543967
O14   O     O_R   0.913810 0.939740 0.907420 -0.543968
C45   C     C_R   0.112319 0.608117 0.114845 0.748873
C46   C     C_R   0.887684 0.108117 0.885150 0.748873
O15   O     O_R   0.939760 0.444210 0.069890 -0.543766
O16   O     O_R   0.060240 0.944210 0.930110 -0.543771
O17   O     O_R   0.914790 0.269640 0.916760 -0.535196
O18   O     O_R   0.085210 0.769640 0.083240 -0.535196
C47   C     C_R   0.919264 0.612501 0.085162 0.698616
C48   C     C_R   0.080736 0.112501 0.914838 0.698599
O19   O     O_3   0.992050 0.601530 0.949880 -0.379504
O20   O     O_3   0.007950 0.101530 0.050120 -0.379493
V3    V     V_3+5 0.001480 0.328340 0.009300 1.394521
V4    V     V_3+5 0.998520 0.828340 0.990700 1.394513
H19   H     H_    0.153606 0.702839 0.719370 0.135577
H20   H     H_    0.846404 0.202855 0.280640 0.135574
H21   H     H_    0.801348 0.981977 0.788963 0.129859
H22   H     H_    0.198610 0.482016 0.211087 0.129853
N1    N     N_3   0.700943 0.473166 0.688489 -0.632633
H23   H     H_    0.744244 0.529872 0.672952 0.215166
H24   H     H_    0.693213 0.552800 0.734442 0.215254
N2    N     N_3   0.299270 0.973252 0.311216 -0.632577
H25   H     H_    0.256000 0.030367 0.326684 0.215148
H26   H     H_    0.307072 0.052500 0.265195 0.215254

loop_
_geom_bond_atom_site_label_1
_geom_bond_atom_site_label_2
_ccdc_geom_bond_type
C14   C16   A    
C20   C26   A    
N1    H23   S    
O1    C3    A    
O2    C4    A    
C2    O7    A    
C31   C33   A    
O14   V4    S    
O5    C3    A    
O13   V3    S    
C5    C9    S    
O18   V4    S    
C9    N1    S    
C6    C10   S    
C19   C21   A    
C10   C12   D    
C32   C34   A    
C45   O18   A    
C17   C19   A    
O14   C46   A    
C41   C43   A    
C44   H16   S    
C42   C44   A    
C41   C48   S    
O11   V4    S    
C35   H19   S    
C38   H18   S    
O11   C47   A    
C28   C30   A    
C33   C35   A    
C34   C36   A    
C15   C17   A    
C21   C31   A    
C22   C32   A    
C7    H21   S    
O6    C4    A    
O12   V3    S    
C1    C16   S    
O15   V3    S    
O13   C45   A    
C2    C15   S    
O6    V2    S    
C25   C27   A    
C26   C28   A    
C46   O17   A    
C36   C38   A    
C30   C32   A    
C29   C31   A    
O17   V3    S    
C13   H5    S    
O4    C2    A    
C25   H9    S    
C3    C12   S    
O16   C48   A    
C5    H1    S    
C24   C38   A    
C35   C37   A    
C16   C18   A    
O4    V2    S    
C17   H7    S    
C13   C23   A    
C18   H8    S    
C14   C24   A    
O1    V2    S    
O2    V1    S    
C27   C29   A    
C39   H13   S    
C40   H14   S    
C39   C41   A    
C10   N2    S    
C36   H20   S    
C20   C22   A    
C42   C47   S    
O12   C48   A    
O3    V1    S    
C8    H22   S    
C8    C45   S    
C6    H2    S    
C37   H17   S    
O3    C1    A    
O16   V4    S    
N1    H24   S    
O9    V2    S    
C11   H3    S    
C12   H4    S    
C33   C43   A    
C4    C11   S    
C34   C44   A    
C14   H6    S    
O7    V1    S    
C1    O8    A    
C13   C15   A    
O8    V2    S    
C22   C24   A    
C23   C37   A    
O5    V1    S    
C5    C7    D    
C18   C20   A    
C40   C42   A    
C6    C8    D    
C9    C11   D    
C7    C46   S    
C19   C25   A    
N2    H26   S    
C28   H12   S    
C21   C23   A    
O20   V3    S    
C29   C39   A    
C27   H11   S    
N2    H25   S    
O19   V4    S    
C30   C40   A    
C26   H10   S    
O10   V1    S    
O15   C47   A    
C43   H15   S    
