data_mof_unit_62213.cif
_audit_creation_date              2012-12-11T17:02:32-0500
_audit_creation_method            fapswitch 2.2
_symmetry_space_group_name_H-M    P1
_symmetry_Int_Tables_number       1
_space_group_crystal_system       triclinic
_cell_length_a                    8.203144
_cell_length_b                    14.933317
_cell_length_c                    16.448423
_cell_angle_alpha                 97.516484
_cell_angle_beta                  93.043809
_cell_angle_gamma                 97.809524
_cell_volume                      1973.93406216

loop_
_atom_site_label
_atom_site_type_symbol
_atom_type_description
_atom_site_fract_x
_atom_site_fract_y
_atom_site_fract_z
_atom_type_partial_charge
Ba1   Ba    Ba6+2 0.163630 0.544320 0.462600 1.743596
Ba2   Ba    Ba6+2 0.646550 0.455670 0.537340 1.708940
C1    C     C_3   0.426995 0.771178 0.161649 -0.332375
C2    C     C_3   0.435635 0.741865 0.246667 0.311343
C3    C     C_3   0.553667 0.734172 0.660447 0.289971
C4    C     C_3   0.589048 0.837278 0.683724 -0.313533
C5    C     C_3   0.840881 0.206132 0.712748 0.273179
C6    C     C_3   0.802518 0.112089 0.739280 0.450748
C7    C     C_3   0.372106 0.257703 0.752609 0.378470
C8    C     C_3   0.376514 0.228004 0.837580 0.532530
C9    C     C_R   0.646063 0.828831 0.447339 -0.068034
C10   C     C_R   0.887182 0.792974 0.521333 -0.008881
C11   C     C_R   0.072661 0.234306 0.522084 -0.308987
C12   C     C_3   0.970150 0.792229 0.285614 0.309563
C13   C     C_R   0.166573 0.172642 0.551013 -0.005191
C14   C     C_R   0.104404 0.080018 0.542719 -0.059588
C15   C     C_R   0.946278 0.046193 0.503237 0.128216
C16   C     C_R   0.856824 0.109341 0.467576 -0.009041
C17   C     C_R   0.876176 0.951466 0.496404 0.109229
C18   C     C_R   0.717809 0.921783 0.453927 -0.061965
C19   C     C_R   0.636305 0.984945 0.417710 -0.028852
C20   C     C_R   0.705790 0.075808 0.422751 0.013066
C21   C     C_R   0.956468 0.885307 0.531605 -0.158157
C22   C     C_R   0.735296 0.765440 0.477863 0.306009
C23   C     C_3   0.008192 0.885405 0.257315 0.421065
C24   C     C_R   0.921580 0.204405 0.477603 0.025810
C25   C     C_R   0.625606 0.537031 0.268648 -0.286494
C26   C     C_R   0.470524 0.489290 0.241283 0.024999
C27   C     C_R   0.415165 0.481187 0.158060 -0.143948
C28   C     C_R   0.517543 0.520209 0.101570 0.247032
C29   C     C_R   0.677428 0.563724 0.129811 -0.160193
C30   C     C_R   0.731710 0.571006 0.212985 -0.026332
C31   C     C_R   0.382333 0.520805 0.854012 0.561895
C32   C     C_R   0.331913 0.513478 0.770513 -0.046083
C33   C     C_R   0.277389 0.478560 0.908485 0.183531
C34   C     C_3   0.769273 0.345016 0.287147 0.304688
C35   C     C_R   0.180087 0.464162 0.739967 -0.399877
C36   C     C_R   0.070410 0.427833 0.792808 0.000405
C37   C     C_R   0.119349 0.433846 0.876895 -0.225654
C38   C     C_3   0.744410 0.320476 0.194178 -0.372565
C39   C     C_3   0.033813 0.655028 0.713414 0.321993
C40   C     C_3   0.052739 0.678982 0.806613 0.546580
C41   C     C_3   0.255735 0.268330 0.352861 0.276780
C42   C     C_3   0.229140 0.165288 0.327963 -0.343438
H1    H     H_    0.349394 0.677435 0.245223 0.088764
H2    H     H_    0.855646 0.294785 0.169837 0.133864
H3    H     H_    0.927892 0.599910 0.697082 -0.028932
H4    H     H_    0.942547 0.707751 0.828768 0.050888
H5    H     H_    0.136915 0.290782 0.368217 0.008098
H6    H     H_    0.345471 0.285222 0.407452 0.063284
H7    H     H_    0.299762 0.783126 0.144525 0.150605
H8    H     H_    0.135540 0.146127 0.275031 0.155602
H9    H     H_    0.563658 0.729522 0.261253 -0.040056
H10   H     H_    0.670306 0.708746 0.644386 0.017738
H11   H     H_    0.462962 0.718821 0.606149 0.074717
H12   H     H_    0.635990 0.869567 0.630896 0.070655
H13   H     H_    0.474222 0.864402 0.700974 0.159639
H14   H     H_    0.772076 0.205770 0.652652 0.078785
H15   H     H_    0.975358 0.219979 0.705662 -0.009339
H16   H     H_    0.869156 0.111074 0.799646 0.093316
H17   H     H_    0.667926 0.095238 0.745016 0.066263
H18   H     H_    0.246331 0.273148 0.737566 -0.087840
H19   H     H_    0.462269 0.320646 0.754520 -0.008998
H20   H     H_    0.348995 0.284111 0.883727 -0.056875
H21   H     H_    0.500780 0.211350 0.854275 0.034019
H22   H     H_    0.044110 0.792853 0.344301 0.080117
H23   H     H_    0.517663 0.964924 0.383912 0.093356
H24   H     H_    0.072131 0.903062 0.567983 0.116686
H25   H     H_    0.122777 0.305983 0.529669 0.072418
H26   H     H_    0.183818 0.036367 0.566605 0.084565
H27   H     H_    0.637262 0.119330 0.391271 0.087047
H28   H     H_    0.759974 0.590853 0.086857 0.122435
H29   H     H_    0.294716 0.443311 0.137713 0.117256
H30   H     H_    0.836832 0.780007 0.295997 -0.063280
H31   H     H_    0.034375 0.404671 0.917804 0.122581
H32   H     H_    0.668321 0.542026 0.332662 0.129598
H33   H     H_    0.142405 0.459622 0.675312 0.088180
H34   H     H_    0.140925 0.899513 0.246136 0.069186
H35   H     H_    0.655782 0.367173 0.310842 0.002695
H36   H     H_    0.873826 0.401345 0.301958 0.064711
N1    N     N_2   0.468872 0.515091 0.016179 -0.141543
N2    N     N_2   0.322266 0.481845 0.994505 -0.220354
O1    O     O_2   0.162570 0.722330 0.548140 -0.471529
O2    O     O_3   0.314884 0.309521 0.286518 -0.632106
O3    O     O_3   0.012085 0.725643 0.224906 -0.640640
O4    O     O_2   0.647720 0.277620 0.451840 -0.473977
O5    O     O_3   0.919570 0.391090 0.454510 -0.498316
O6    O     O_3   0.416180 0.333440 0.599870 -0.490956
O7    O     O_3   0.802023 0.267586 0.320773 -0.632964
O8    O     O_3   0.378690 0.546410 0.598100 -0.477568
O9    O     O_3   0.838770 0.379270 0.642240 -0.488310
O10   O     O_2   0.735227 0.439119 0.788025 -0.444112
O11   O     O_3   0.791610 0.271090 0.772640 -0.651844
O12   O     O_3   0.890730 0.608900 0.545420 -0.427117
O13   O     O_3   0.431610 0.453580 0.401830 -0.465335
O14   O     O_2   0.628250 0.544210 0.698290 -0.443428
O15   O     O_3   0.490669 0.694940 0.727390 -0.566445
O16   O     O_2   0.506119 0.173387 0.544833 -0.496055
O17   O     O_3   0.414180 0.187851 0.695126 -0.587122
O18   O     O_3   0.394120 0.666550 0.400060 -0.409946
O19   O     O_2   0.304759 0.826805 0.455715 -0.498393
O20   O     O_3   0.007789 0.733173 0.679128 -0.625451
O21   O     O_3   0.389939 0.810597 0.304063 -0.617108
O22   O     O_2   0.182040 0.455740 0.301680 -0.469282
O23   O     O_3   0.971530 0.620720 0.357690 -0.472133
O24   O     O_2   0.065152 0.556647 0.210976 -0.481967
P1    P     P_3+3 0.987060 0.708150 0.571770 1.060041
P2    P     P_3+3 0.349540 0.428350 0.313090 0.998112
P3    P     P_3+3 0.944801 0.617492 0.250970 0.956589
P4    P     P_3+3 0.823240 0.291840 0.428170 0.978396
P5    P     P_3+3 0.859943 0.380341 0.749320 0.964222
P6    P     P_3+3 0.433406 0.784815 0.403010 1.003661
P7    P     P_3+3 0.454427 0.576177 0.700782 1.071237
P8    P     P_3+3 0.376202 0.215411 0.596373 0.969797
H37   H     H_    0.635667 0.266876 0.177633 0.134383
H38   H     H_    0.723792 0.381222 0.165187 0.058194
H39   H     H_    0.146989 0.631003 0.691301 -0.038587
F1    F     F_    0.192021 0.742415 0.829765 -0.653424
H40   H     H_    0.064070 0.617137 0.835775 -0.087195
H41   H     H_    0.185394 0.130228 0.379715 0.090917
H42   H     H_    0.346919 0.141950 0.310322 0.116044
H43   H     H_    0.461514 0.716987 0.115659 0.106290
H44   H     H_    0.683365 0.855162 0.736429 0.162014
H45   H     H_    0.513677 0.835025 0.161068 0.125427
F2    F     F_    0.971757 0.952618 0.316702 -0.756389
F3    F     F_    0.851758 0.046896 0.681935 -0.735820
F4    F     F_    0.260018 0.151979 0.838469 -0.669108
F5    F     F_    0.670679 0.676052 0.468825 -0.713136
F6    F     F_    0.530275 0.571188 0.881294 -0.670082
H46   H     H_    0.933068 0.886934 0.199448 0.040221

loop_
_geom_bond_atom_site_label_1
_geom_bond_atom_site_label_2
_ccdc_geom_bond_type
C34   O7    S    
Ba1   O5    S    
Ba1   O8    S    
C2    H9    S    
C32   C35   A    
C39   C40   S    
C42   H42   S    
C33   C37   A    
C17   C18   A    
C16   C24   A    
O17   P8    S    
N1    N2    D    
C5    C6    S    
O5    P4    S    
C32   P7    S    
C38   H2    S    
C10   C21   A    
C27   C28   A    
C12   H30   S    
C26   C27   A    
O4    P4    D    
O3    P3    S    
C3    C4    S    
C40   H40   S    
O16   P8    D    
C38   H37   S    
C27   H29   S    
C42   H41   S    
C13   C14   A    
C2    O21   S    
C9    C22   A    
C39   O20   S    
Ba1   Ba2   S    
O8    P7    S    
O9    P5    S    
Ba2   O8    S    
C23   F2    S    
C15   C17   A    
C14   C15   A    
Ba2   O6    S    
C37   H31   S    
C7    C8    S    
C24   P4    S    
C5    H14   S    
C1    H43   S    
C6    H17   S    
C42   H8    S    
C9    P6    S    
C7    O17   S    
C16   C20   A    
C19   C20   A    
C19   H23   S    
C25   H32   S    
C41   O2    S    
C4    H13   S    
C4    H44   S    
C23   H46   S    
Ba1   O18   S    
C5    H15   S    
C33   N2    S    
C31   C32   A    
C2    H1    S    
C39   H3    S    
C36   C37   A    
C5    O11   S    
C8    H20   S    
O12   P1    S    
C30   P3    S    
C23   H34   S    
C3    H10   S    
Ba2   O12   S    
C14   H26   S    
C34   H36   S    
C1    H7    S    
C41   H5    S    
C35   H33   S    
C9    C18   A    
C7    H18   S    
O21   P6    S    
O19   P6    D    
C21   H24   S    
C17   C21   A    
C41   C42   S    
C35   C36   A    
C29   C30   A    
C34   C38   S    
C28   C29   A    
Ba1   O13   S    
C15   C16   A    
C12   H22   S    
C13   P8    S    
Ba2   O5    S    
O10   P5    D    
C40   H4    S    
Ba1   O22   S    
O11   P5    S    
C6    F3    S    
C29   H28   S    
Ba1   P1    S    
O18   P6    S    
C11   C13   A    
C11   C24   A    
O15   P7    S    
C1    C2    S    
O20   P1    S    
C20   H27   S    
O22   P2    D    
C1    H45   S    
C8    H21   S    
C31   F6    S    
O23   P3    S    
Ba2   P4    S    
C25   C30   A    
C7    H19   S    
C3    H11   S    
C40   F1    S    
C12   O3    S    
C4    H12   S    
C34   H35   S    
Ba2   O13   S    
Ba1   O12   S    
C10   P1    S    
C41   H6    S    
Ba1   O1    S    
C10   C22   A    
C28   N1    S    
Ba2   O14   S    
C6    H16   S    
C38   H38   S    
C11   H25   S    
C26   P2    S    
O7    P4    S    
C31   C33   A    
O1    P1    D    
Ba2   O4    S    
C12   C23   S    
O6    P8    S    
Ba2   O9    S    
O14   P7    D    
O13   P2    S    
Ba1   P2    S    
C3    O15   S    
O2    P2    S    
C18   C19   A    
C25   C26   A    
C22   F5    S    
C39   H39   S    
C36   P5    S    
C8    F4    S    
Ba1   O23   S    
O24   P3    D    
