data_mof_unit_14544.cif
_audit_creation_date              2012-12-10T19:50:08-0500
_audit_creation_method            fapswitch 2.2
_symmetry_space_group_name_H-M    P1
_symmetry_Int_Tables_number       1
_space_group_crystal_system       triclinic
_cell_length_a                    14.244815
_cell_length_b                    14.972101
_cell_length_c                    15.51037
_cell_angle_alpha                 90.581087
_cell_angle_beta                  67.181923
_cell_angle_gamma                 89.422751
_cell_volume                      3048.58321848

loop_
_atom_site_label
_atom_site_type_symbol
_atom_type_description
_atom_site_fract_x
_atom_site_fract_y
_atom_site_fract_z
_atom_type_partial_charge
C1    C     C_R   0.501287 0.671967 0.496234 0.878876
C2    C     C_R   0.551103 0.186752 0.542850 -0.246758
C3    C     C_R   0.503968 0.767745 0.488054 -0.090500
C4    C     C_R   0.506834 0.232110 0.489215 -0.069559
C5    C     C_R   0.594525 0.812075 0.433896 0.092485
C6    C     C_R   0.471029 0.185253 0.428832 0.101860
C7    C     C_R   0.593878 0.904599 0.436806 -0.237283
C8    C     C_R   0.472182 0.092755 0.430617 -0.239672
C9    C     C_R   0.504800 0.952016 0.488934 0.066613
C10   C     C_R   0.510169 0.047866 0.488699 0.066338
C11   C     C_R   0.870049 0.562840 0.554504 -0.281935
C12   C     C_R   0.501969 0.328000 0.496377 0.878792
C13   C     C_R   0.138345 0.461397 0.424619 -0.278737
C14   C     C_R   0.770920 0.559403 0.555453 -0.021068
C15   C     C_R   0.235807 0.460402 0.427882 -0.029897
C16   C     C_R   0.436140 0.501443 0.676259 0.888750
C17   C     C_R   0.563845 0.500066 0.323808 0.859262
C18   C     C_R   0.821464 0.442415 0.442738 0.292534
C19   C     C_R   0.173278 0.543672 0.569256 0.295948
C20   C     C_R   0.919903 0.441607 0.442746 -0.289879
C21   C     C_R   0.074406 0.542717 0.570397 -0.284439
C22   C     C_R   0.947216 0.502472 0.498237 0.120622
C23   C     C_R   0.373338 0.510915 0.109043 -0.230063
C24   C     C_R   0.054236 0.501955 0.497583 0.121969
C25   C     C_R   0.395795 0.508571 0.778224 -0.060188
C26   C     C_R   0.602772 0.510928 0.222768 -0.050474
C27   C     C_R   0.262161 0.491542 0.931119 -0.197079
C28   C     C_R   0.722572 0.573335 0.079981 -0.200396
C29   C     C_R   0.294273 0.490266 0.833985 -0.169233
C30   C     C_R   0.698119 0.547661 0.172369 -0.192354
C31   C     C_R   0.463148 0.532422 0.819817 -0.262900
C32   C     C_R   0.534519 0.497097 0.179769 -0.253253
C33   C     C_R   0.433208 0.533743 0.916761 0.093763
C34   C     C_R   0.601517 0.586803 0.908360 -0.226950
C35   C     C_R   0.552550 0.531205 0.091643 0.095270
C36   C     C_R   0.331714 0.510196 0.972693 0.171412
C37   C     C_R   0.649867 0.566457 0.039667 0.171076
C38   C     C_R   0.504018 0.550743 0.958605 0.069800
C39   C     C_R   0.476467 0.530055 0.053968 0.070091
C40   C     C_3   0.310028 0.957317 0.580952 -0.414220
C41   C     C_3   0.297397 0.002363 0.674024 -0.355166
C42   C     C_3   0.191632 0.044870 0.721527 -0.859206
C43   C     C_3   0.612016 0.047447 0.594525 -0.414110
C44   C     C_3   0.539952 0.003814 0.684484 -0.359442
C45   C     C_R   0.301937 0.502758 0.068968 -0.234335
C46   C     C_3   0.598906 0.962624 0.738363 -0.868526
C47   C     C_3   0.690648 0.764390 0.368620 -0.401501
C48   C     C_3   0.770501 0.759262 0.412182 -0.319259
C49   C     C_3   0.861918 0.701493 0.352315 -0.852814
C50   C     C_3   0.438586 0.229241 0.356909 -0.404710
C51   C     C_3   0.322854 0.224633 0.385169 -0.327188
C52   C     C_3   0.293360 0.245499 0.302664 -0.899805
C53   C     C_R   0.672584 0.595402 0.948906 -0.233413
C54   C     C_R   0.411717 0.908295 0.535160 0.105868
C55   C     C_R   0.555503 0.094033 0.541922 0.111312
C56   C     C_R   0.413384 0.815633 0.535700 -0.252187
H1    H     H_    0.224026 0.486985 0.113108 0.149423
H2    H     H_    0.541059 0.544623 0.774826 0.156559
H3    H     H_    0.751858 0.559061 0.205029 0.163173
H4    H     H_    0.241002 0.472136 0.802700 0.175875
H5    H     H_    0.184132 0.474618 0.973560 0.143205
H6    H     H_    0.796653 0.601476 0.041263 0.142543
H7    H     H_    0.344914 0.504131 0.184001 0.146652
H8    H     H_    0.623928 0.612028 0.838438 0.141808
H9    H     H_    0.343822 0.780506 0.574278 0.187906
H10   H     H_    0.581723 0.224045 0.586115 0.161153
H11   H     H_    0.662805 0.940291 0.397012 0.145207
H12   H     H_    0.746039 0.623935 0.908605 0.149113
H13   H     H_    0.444223 0.054967 0.385609 0.145661
H14   H     H_    0.178946 0.096186 0.675763 0.261248
H15   H     H_    0.132093 0.993207 0.737118 0.264545
H16   H     H_    0.184985 0.077557 0.788273 0.250524
H17   H     H_    0.308602 0.952087 0.721555 0.226162
H18   H     H_    0.354297 0.055657 0.662004 0.230712
H19   H     H_    0.300935 0.007436 0.532444 0.198073
H20   H     H_    0.246658 0.909631 0.594348 0.210735
H21   H     H_    0.653256 0.910586 0.694785 0.258777
H22   H     H_    0.641477 0.014848 0.758843 0.262427
H23   H     H_    0.884981 0.613747 0.597113 0.138748
H24   H     H_    0.544906 0.931071 0.802741 0.251831
H25   H     H_    0.485307 0.054738 0.729920 0.221202
H26   H     H_    0.496785 0.949980 0.667573 0.233969
H27   H     H_    0.666126 0.996788 0.548334 0.201360
H28   H     H_    0.659417 0.096429 0.613379 0.205228
H29   H     H_    0.837564 0.632326 0.345933 0.269736
H30   H     H_    0.898890 0.730023 0.281427 0.255207
H31   H     H_    0.918301 0.698916 0.385545 0.252368
H32   H     H_    0.796988 0.827571 0.418990 0.207543
H33   H     H_    0.736481 0.730691 0.483245 0.234581
H34   H     H_    0.130772 0.431542 0.364018 0.140458
H35   H     H_    0.673928 0.696716 0.348905 0.210701
H36   H     H_    0.722783 0.801155 0.301712 0.188695
H37   H     H_    0.327414 0.309035 0.269385 0.251796
H38   H     H_    0.320487 0.190875 0.249364 0.266005
H39   H     H_    0.209187 0.251276 0.327307 0.253805
H40   H     H_    0.294945 0.156860 0.410358 0.216931
H41   H     H_    0.284365 0.273019 0.443295 0.237572
H42   H     H_    0.463193 0.299667 0.344622 0.198992
H43   H     H_    0.478150 0.193924 0.288631 0.204690
H44   H     H_    0.712912 0.605594 0.599634 0.125647
H45   H     H_    0.298891 0.429564 0.371319 0.141151
H46   H     H_    0.973878 0.392476 0.399104 0.153681
H47   H     H_    0.014414 0.574816 0.628814 0.153386
H48   H     H_    0.465873 0.461110 0.217727 0.140383
I1    I     I_    0.796750 0.353121 0.347290 -0.392532
I2    I     I_    0.192062 0.623361 0.674591 -0.429882
N1    N     N_R   0.747530 0.500020 0.500000 -0.102826
N2    N     N_R   0.252470 0.499980 0.500000 -0.100693
O1    O     O_R   0.420530 0.630930 0.499990 -0.589140
O2    O     O_R   0.579470 0.369070 0.500010 -0.586212
O3    O     O_R   0.579480 0.630940 0.499990 -0.627365
O4    O     O_R   0.420520 0.369060 0.500010 -0.624660
O5    O     O_R   0.375120 0.499990 0.632240 -0.586065
O6    O     O_R   0.624880 0.500010 0.367760 -0.597012
O7    O     O_R   0.534080 0.500000 0.632240 -0.624681
O8    O     O_R   0.465920 0.500000 0.367760 -0.631785
Zn1   Zn    Zn3+2 0.393860 0.499990 0.500000 0.963235
Zn2   Zn    Zn3+2 0.606140 0.500010 0.500000 0.958325

loop_
_geom_bond_atom_site_label_1
_geom_bond_atom_site_label_2
_ccdc_geom_bond_type
C25   C31   A    
C51   H41   S    
C23   C45   A    
C13   H34   S    
C27   C29   A    
C43   H27   S    
C41   C42   S    
C49   H31   S    
C2    C4    A    
C16   O5    A    
O2    Zn2   S    
C12   O2    A    
O1    Zn1   S    
C26   C32   A    
C5    C47   S    
C45   H1    S    
C8    H13   S    
O3    Zn2   S    
C17   C26   S    
C31   H2    S    
C35   C37   A    
C44   H26   S    
C2    C55   A    
C38   C39   A    
C11   C14   A    
C20   H46   S    
C56   H9    S    
C42   H14   S    
C33   C36   A    
O8    Zn1   S    
C52   H39   S    
C47   H36   S    
C53   H12   S    
C18   N1    A    
C27   H5    S    
C1    O1    A    
C41   H18   S    
C48   H32   S    
C52   H38   S    
C4    C12   S    
C9    C10   S    
N1    Zn2   S    
C51   H40   S    
C37   C53   A    
C19   N2    A    
C23   H7    S    
C43   H28   S    
N2    Zn1   S    
C34   H8    S    
C44   C46   S    
C17   O6    A    
C25   C29   A    
C54   C56   A    
C50   H42   S    
C31   C33   A    
C51   C52   S    
C32   C35   A    
C49   H29   S    
C36   C45   A    
C4    C6    A    
C44   H25   S    
C5    C7    A    
C6    C8    A    
C3    C5    A    
C41   H17   S    
C15   H45   S    
C40   H20   S    
C13   C24   A    
C1    C3    S    
C15   N2    A    
C35   C39   A    
C43   C44   S    
C3    C56   A    
C47   C48   S    
C29   H4    S    
O7    Zn2   S    
C30   H3    S    
C32   H48   S    
C50   C51   S    
C50   H43   S    
C52   H37   S    
C6    C50   S    
C10   C55   A    
O6    Zn2   S    
C11   H23   S    
O5    Zn1   S    
C43   C55   S    
C48   C49   S    
C20   C22   A    
C26   C30   A    
C40   C54   S    
C48   H33   S    
C13   C15   A    
C22   C24   S    
C16   O7    A    
C12   O4    A    
C46   H22   S    
C16   C25   S    
C7    C9    A    
C14   N1    A    
C19   C21   A    
C34   C38   A    
C47   H35   S    
C49   H30   S    
C2    H10   S    
C46   H21   S    
C14   H44   S    
C27   C36   A    
C11   C22   A    
C33   C38   A    
C40   H19   S    
C28   C30   A    
C18   I1    S    
C1    O3    A    
C46   H24   S    
O4    Zn1   S    
C28   C37   A    
C23   C39   A    
C42   H15   S    
C18   C20   A    
C7    H11   S    
C21   H47   S    
C19   I2    S    
C34   C53   A    
C8    C10   A    
C21   C24   A    
C40   C41   S    
C9    C54   A    
C42   H16   S    
C17   O8    A    
C28   H6    S    
