data_mof_unit_67367.cif
_audit_creation_date              2013-03-05T16:08:38-0500
_audit_creation_method            fapswitch 2.2
_symmetry_space_group_name_H-M    P1
_symmetry_Int_Tables_number       1
_space_group_crystal_system       triclinic
_cell_length_a                    8.746105
_cell_length_b                    15.367194
_cell_length_c                    16.73617
_cell_angle_alpha                 111.539343
_cell_angle_beta                  98.324789
_cell_angle_gamma                 80.368928
_cell_volume                      2054.27799216

loop_
_atom_site_label
_atom_site_type_symbol
_atom_site_description
_atom_site_fract_x
_atom_site_fract_y
_atom_site_fract_z
_atom_type_partial_charge
P1    P     P_3+3 0.592580 0.619750 0.703570 0.475201
O1    O     O_2   0.428380 0.595300 0.716110 -0.392011
O2    O     O_3   0.649320 0.571650 0.606870 -0.373658
O3    O     O_3   0.202060 0.415880 0.655570 -0.305123
O4    O     O_2   0.330783 0.510066 0.803839 -0.316360
O5    O     O_3   0.585924 0.743151 0.753544 -0.593475
O6    O     O_3   0.268908 0.348994 0.797739 -0.596348
C1    C     C_3   0.177706 0.219460 0.819250 0.327788
H1    H     H_    0.298809 0.191569 0.834581 0.049177
P2    P     P_3+3 0.156510 0.273300 0.422380 0.565202
P3    P     P_3+3 0.668834 0.236783 0.586502 0.616464
O7    O     O_2   0.338790 0.265210 0.448200 -0.290421
O8    O     O_3   0.612600 0.359140 0.609510 -0.293000
O9    O     O_2   0.526410 0.184817 0.540022 -0.330549
O10   O     O_3   0.147089 0.228878 0.309409 -0.547162
O11   O     O_3   0.705041 0.212547 0.682973 -0.586472
C2    C     C_3   0.607072 0.271696 0.745941 0.854639
H2    H     H_    0.493470 0.293157 0.716020 0.073074
C3    C     C_3   0.580195 0.217865 0.803391 -0.595344
H3    H     H_    0.520246 0.156234 0.763277 0.233439
C4    C     C_3   0.691547 0.185091 0.251525 0.921821
C5    C     C_3   0.652474 0.091307 0.178279 -0.459751
H4    H     H_    0.751173 0.036395 0.173557 0.205210
H5    H     H_    0.558239 0.062371 0.194354 0.238314
Ba1   Ba    Ba6+2 0.364200 0.465260 0.540900 1.730613
C6    C     C_3   0.540209 0.796222 0.700206 0.519096
H6    H     H_    0.604034 0.767334 0.641300 0.111660
C7    C     C_3   0.572729 0.898943 0.752101 -0.333148
H7    H     H_    0.522342 0.945805 0.715406 0.238727
H8    H     H_    0.698944 0.900221 0.761827 0.202366
C8    C     C_3   0.217681 0.278479 0.272774 0.580563
H9    H     H_    0.320798 0.307930 0.314364 0.113874
C9    C     C_3   0.269965 0.209915 0.184976 -0.380411
H10   H     H_    0.352780 0.154015 0.197931 0.247636
H11   H     H_    0.327545 0.248464 0.155786 0.170766
P4    P     P_3+3 0.597130 0.380170 0.296420 0.559771
O12   O     O_2   0.761310 0.404660 0.283830 -0.330873
O13   O     O_3   0.540390 0.428270 0.393120 -0.341314
O14   O     O_3   0.987650 0.584040 0.344420 -0.321769
O15   O     O_3   0.573515 0.258225 0.246826 -0.654471
P5    P     P_3+3 0.517523 0.757567 0.398284 0.538342
O16   O     O_3   0.122130 0.620580 0.549200 -0.408272
O17   O     O_3   0.577110 0.640790 0.390470 -0.331785
O18   O     O_2   0.647485 0.809361 0.459854 -0.266139
O19   O     O_3   0.552547 0.765574 0.299378 -0.487478
Ba2   Ba    Ba6+2 0.825630 0.534670 0.459090 1.692530
P6    P     P_3+3 0.198583 0.447606 0.766790 0.555113
C10   C     C_3   0.179192 0.273108 0.756248 0.417909
H12   H     H_    0.057245 0.298340 0.738761 0.119415
O20   O     O_3   0.067580 0.379340 0.450790 -0.372440
C11   C     C_3   0.998692 0.765913 0.744743 0.254563
H13   H     H_    0.882878 0.742082 0.717999 0.083086
C12   C     C_3   0.984030 0.847212 0.835333 0.373494
H14   H     H_    0.929767 0.911788 0.822943 0.113221
P7    P     P_3+3 0.032220 0.740716 0.577974 0.510025
O21   O     O_2   0.850900 0.734750 0.551740 -0.325892
O22   O     O_3   0.053847 0.803284 0.690570 -0.548463
H15   H     H_    0.506728 0.265096 0.854885 0.259353
C13   C     C_3   0.491250 0.693357 0.226315 0.603737
H16   H     H_    0.400682 0.665045 0.244578 -0.039196
C14   C     C_3   0.421772 0.728413 0.149756 -0.195486
H17   H     H_    0.318621 0.693035 0.116828 0.152064
H18   H     H_    0.503107 0.706114 0.099817 0.163990
P8    P     P_3+3 0.002073 0.572331 0.236335 0.565346
C15   C     C_3   0.956580 0.761695 0.256958 0.858046
O23   O     O_2   0.908289 0.490091 0.181900 -0.267572
O24   O     O_3   0.900464 0.671775 0.209991 -0.497001
C16   C     C_3   0.920462 0.829090 0.200405 0.339577
C17   C     C_2   0.317563 0.502748 0.255362 -0.515451
C18   C     C_R   0.890689 0.538059 0.754810 -0.345954
C19   C     C_2   0.465797 0.394232 0.135326 0.177398
C20   C     C_2   0.458242 0.433144 0.222756 0.192248
C21   C     C_2   0.202020 0.527726 0.200205 0.121911
C22   C     C_3   0.233668 0.503634 0.106416 -0.099433
C23   C     C_3   0.325728 0.406878 0.075047 0.224282
C24   C     C_2   0.097644 0.507841 0.038384 -0.129578
C25   C     C_2   0.114587 0.530263 0.968518 0.379578
C26   C     C_R   0.834402 0.573010 0.922808 0.375535
C27   C     C_R   0.984020 0.532330 0.898613 -0.134642
C28   C     C_R   0.714652 0.597363 0.866190 0.038137
C29   C     C_R   0.739418 0.575792 0.778967 0.326573
C30   C     C_R   0.011403 0.512373 0.811467 0.197341
H19   H     H_    0.297236 0.521422 0.322404 0.170628
H20   H     H_    0.917344 0.534242 0.692661 0.178963
H21   H     H_    0.990109 0.483208 0.041100 0.214495
C31   C     C_R   0.333333 0.820257 0.452484 0.171596
C32   C     C_R   0.272086 0.914600 0.459846 -0.049856
C33   C     C_R   0.134232 0.096744 0.453997 -0.161913
C34   C     C_R   0.274930 0.050563 0.417048 0.406806
C35   C     C_R   0.347808 0.966866 0.428450 -0.177842
C36   C     C_R   0.069925 0.192475 0.461751 0.159156
H22   H     H_    0.460513 0.938717 0.404660 0.238217
C37   C     C_R   0.931687 0.231003 0.502749 0.059977
C38   C     C_R   0.112155 0.811405 0.524853 0.312379
C39   C     C_R   0.047184 0.904934 0.528157 -0.145633
C40   C     C_R   0.125064 0.954433 0.491661 0.064708
C41   C     C_R   0.902187 0.949564 0.560625 0.461902
C42   C     C_R   0.829391 0.030222 0.546023 -0.053312
C43   C     C_R   0.908652 0.083829 0.518731 -0.029301
C44   C     C_R   0.057066 0.045589 0.488928 0.042315
C45   C     C_R   0.846970 0.177520 0.527651 0.225763
C46   C     C_R   0.250484 0.770375 0.483864 -0.486826
H23   H     H_    0.714164 0.055502 0.566773 0.187138
H24   H     H_    0.297351 0.698820 0.478365 0.150944
N1    N     N_R   0.247292 0.208940 0.676623 0.193079
O25   O     O_R   0.259247 0.240383 0.616231 -0.384952
O26   O     O_R   0.292748 0.119956 0.663222 -0.439902
C47   C     C_3   0.615940 0.095370 0.087550 -0.699334
H25   H     H_    0.718343 0.111296 0.065632 0.276855
H26   H     H_    0.515331 0.147904 0.084382 0.273251
H27   H     H_    0.585784 0.025690 0.042214 0.273323
C48   C     C_3   0.369204 0.797863 0.676924 -0.792539
H28   H     H_    0.313345 0.817231 0.737149 0.281991
H29   H     H_    0.326216 0.852683 0.648165 0.208892
H30   H     H_    0.345049 0.726972 0.632491 0.225775
C49   C     C_3   0.505432 0.943359 0.839795 -0.668458
H31   H     H_    0.379496 0.966532 0.830346 0.289229
H32   H     H_    0.522749 0.893748 0.875456 0.296825
H33   H     H_    0.562151 0.006936 0.879418 0.239168
C50   C     C_3   0.104181 0.357623 0.258324 -0.835983
H34   H     H_    0.089868 0.417773 0.319403 0.261274
H35   H     H_    0.144154 0.377762 0.209344 0.189732
H36   H     H_    0.992998 0.333185 0.228290 0.291923
C51   C     C_3   0.144538 0.161059 0.117372 -0.605631
H37   H     H_    0.095725 0.111705 0.138119 0.272000
H38   H     H_    0.051454 0.212632 0.102165 0.256503
H39   H     H_    0.199019 0.118384 0.056780 0.283582
N2    N     N_R   0.090098 0.138888 0.780994 0.241606
O27   O     O_R   0.103419 0.076882 0.818243 -0.325634
O28   O     O_R   0.002270 0.126736 0.709203 -0.409232
C52   C     C_3   0.114667 0.683778 0.753348 -0.751360
H40   H     H_    0.113747 0.621700 0.693170 0.247190
H41   H     H_    0.230591 0.707135 0.770503 0.272931
H42   H     H_    0.092285 0.663143 0.806242 0.242784
N3    N     N_R   0.882467 0.830591 0.889055 0.227248
O29   O     O_R   0.808752 0.903176 0.944343 -0.405012
O30   O     O_R   0.901390 0.750782 0.901330 -0.392515
N4    N     N_R   0.134113 0.869455 0.885031 0.246860
O31   O     O_R   0.214559 0.812768 0.921576 -0.295758
O32   O     O_R   0.167954 0.955239 0.910484 -0.366080
N5    N     N_R   0.115556 0.280411 0.900300 0.218440
O33   O     O_R   0.989717 0.338303 0.899212 -0.426229
O34   O     O_R   0.154101 0.255620 0.967637 -0.405442
N6    N     N_R   0.610012 0.612182 0.196634 0.233193
O35   O     O_R   0.660752 0.564727 0.246771 -0.283658
O36   O     O_R   0.639880 0.573657 0.116157 -0.356018
N7    N     N_R   0.380800 0.829839 0.170367 0.260882
O37   O     O_R   0.412342 0.889447 0.246675 -0.372574
O38   O     O_R   0.340000 0.861705 0.107363 -0.262546
C53   C     C_3   0.131788 0.748400 0.276378 -1.159587
H43   H     H_    0.169028 0.708791 0.320383 0.250834
H44   H     H_    0.173945 0.708576 0.213337 0.233732
H45   H     H_    0.184533 0.813821 0.305434 0.245987
N8    N     N_R   0.884386 0.804122 0.338649 0.221675
O39   O     O_R   0.894810 0.754982 0.387818 -0.333403
O40   O     O_R   0.801773 0.886499 0.361550 -0.422433
C54   C     C_3   0.995704 0.922115 0.244857 -0.813235
H46   H     H_    0.122224 0.909427 0.241112 0.286476
H47   H     H_    0.958919 0.971747 0.210587 0.265664
H48   H     H_    0.973810 0.957138 0.313201 0.270785
C55   C     C_3   0.744792 0.854443 0.182071 -0.638545
H49   H     H_    0.693907 0.915606 0.234838 0.300012
H50   H     H_    0.687120 0.792662 0.171524 0.229003
H51   H     H_    0.719107 0.872524 0.122596 0.240324
N9    N     N_R   0.982000 0.779981 0.116117 0.260478
O41   O     O_R   0.940230 0.698299 0.069905 -0.422511
O42   O     O_R   0.037608 0.825902 0.077458 -0.230780
N10   N     N_R   0.593169 0.327546 0.095592 0.249849
O43   O     O_R   0.734704 0.348118 0.117476 -0.321526
O44   O     O_R   0.564611 0.262822 0.021042 -0.443076
C56   C     C_3   0.578515 0.664364 0.906524 -0.525841
H52   H     H_    0.577709 0.668748 0.973663 0.226362
H53   H     H_    0.587345 0.735970 0.907668 0.237136
H54   H     H_    0.467190 0.642700 0.871732 0.284327
N11   N     N_R   0.252125 0.569286 0.968161 0.231048
O45   O     O_R   0.238598 0.648586 0.955062 -0.342590
O46   O     O_R   0.390070 0.526813 0.980827 -0.340355
N12   N     N_R   0.331022 0.074759 0.353251 0.260233
O47   O     O_R   0.247585 0.059289 0.279670 -0.385329
O48   O     O_R   0.480162 0.071981 0.354006 -0.311578
N13   N     N_R   0.677073 0.356465 0.798168 0.224689
O49   O     O_R   0.614186 0.416292 0.866264 -0.337490
O50   O     O_R   0.796086 0.376133 0.773095 -0.429636
N14   N     N_R   0.837532 0.928220 0.623153 0.232606
O51   O     O_R   0.897832 0.962356 0.702004 -0.384604
O52   O     O_R   0.690238 0.919809 0.611234 -0.455402
N15   N     N_R   0.885119 0.329156 0.529350 0.240181
O53   O     O_R   0.781377 0.363913 0.481980 -0.305898
O54   O     O_R   0.913151 0.378063 0.609880 -0.425057
C57   C     C_3   0.727396 0.180169 0.846939 -0.477266
H55   H     H_    0.792194 0.238269 0.890420 0.300571
H56   H     H_    0.695943 0.142052 0.885910 0.231341
H57   H     H_    0.800052 0.128968 0.797780 0.303348
C58   C     C_3   0.848684 0.203136 0.241426 -0.903947
H58   H     H_    0.845137 0.219044 0.181946 0.252200
H59   H     H_    0.881209 0.262271 0.299606 0.264394
H60   H     H_    0.933679 0.140185 0.238659 0.245224
N16   N     N_R   0.696342 0.172470 0.333753 0.204585
O55   O     O_R   0.776541 0.098279 0.345539 -0.481632
O56   O     O_R   0.609739 0.230186 0.392563 -0.329098

loop_
_geom_bond_atom_site_label_1
_geom_bond_atom_site_label_2
_geom_bond_distance
_ccdc_geom_bond_type
C58   H59   1.100646 S    
C56   H52   1.101701 S    
C57   H55   1.104855 S    
C39   C40   1.432007 A    
C21   C22   1.530477 S    
N7    O37   1.292173 A    
C12   N3    1.462356 S    
C4    N16   1.452524 S    
P7    O21   1.591713 D    
C52   H42   1.095261 S    
N2    O27   1.299278 A    
C48   H29   1.105470 S    
O3    Ba1   2.913310 S    
N3    O29   1.300116 A    
N11   O46   1.300230 A    
C12   H14   1.103634 S    
N14   O51   1.295204 A    
P5    C31   1.899537 S    
C56   H53   1.108925 S    
C7    H7    1.109133 S    
C6    H6    1.111621 S    
N9    O41   1.290730 A    
C22   C24   1.533623 S    
C17   H19   1.084960 S    
P4    O12   1.604558 D    
N7    O38   1.300275 A    
P2    O10   1.753149 S    
N5    O34   1.300416 A    
Ba1   O13   2.931381 S    
P3    O9    1.546157 D    
C26   C28   1.405969 A    
C58   H60   1.107709 S    
P1    C29   1.887935 S    
C42   H23   1.076315 S    
C47   H25   1.109502 S    
P1    O1    1.604169 D    
O16   Ba2   3.048477 S    
P6    C30   1.868847 S    
C15   C53   1.515045 S    
C14   H18   1.096500 S    
C18   C29   1.405760 A    
Ba1   O20   3.049432 S    
C7    C49   1.531816 S    
C57   H57   1.099334 S    
C2    C3    1.542262 S    
C1    N2    1.457182 S    
C54   H46   1.097870 S    
P4    C20   1.905419 S    
C3    H3    1.104523 S    
C49   H32   1.108910 S    
C1    H1    1.105237 S    
C15   O24   1.444246 S    
C53   H45   1.091442 S    
C9    C51   1.529588 S    
P8    C21   1.869332 S    
C8    C9    1.541082 S    
P4    Ba2   3.508379 S    
C1    N5    1.457053 S    
C11   O22   1.409320 S    
C4    C58   1.491130 S    
C18   H20   1.077266 S    
N8    O40   1.299754 A    
C50   H36   1.086896 S    
C16   N9    1.466759 S    
N1    O26   1.302672 A    
N10   O44   1.300012 A    
C58   H58   1.104026 S    
C13   H16   1.092362 S    
C25   N11   1.432736 S    
C10   N1    1.473576 S    
C4    C5    1.562945 S    
P1    Ba1   3.507706 S    
P5    O17   1.744575 S    
O8    Ba1   2.857438 S    
N9    O42   1.301675 A    
C14   H17   1.101510 S    
P7    C38   1.898012 S    
C5    H4    1.091113 S    
C48   H28   1.103108 S    
C55   H50   1.094691 S    
C50   H35   1.093352 S    
C41   C42   1.383733 A    
C25   C27   1.517275 S    
C3    H15   1.107883 S    
C56   H54   1.095376 S    
C13   C14   1.572601 S    
N15   O54   1.289810 A    
C22   C23   1.511073 S    
C11   H13   1.110379 S    
P8    O24   1.801750 S    
N12   O47   1.299388 A    
P4    O15   1.783549 S    
C9    H10   1.092082 S    
C24   C25   1.367841 D    
Ba1   Ba2   4.838610 S    
N6    O36   1.302856 A    
N13   O50   1.294514 A    
C37   C45   1.393884 A    
C11   C52   1.518380 S    
C31   C32   1.425518 A    
O11   C2    1.403022 S    
N13   O49   1.299827 A    
C12   N4    1.468634 S    
P1    O2    1.625807 S    
O6    P6    1.765009 S    
C17   C20   1.510366 S    
C46   H24   1.082319 S    
C1    C10   1.561230 S    
C15   N8    1.466526 S    
O14   P8    1.772000 S    
O16   P7    1.797120 S    
C36   C37   1.409088 A    
O4    P6    1.539275 D    
P3    O11   1.760621 S    
C35   H22   1.077871 S    
C43   C44   1.412816 A    
C33   C36   1.449633 A    
O2    Ba1   3.058092 S    
C15   C16   1.609964 S    
C32   C40   1.416769 A    
C2    H2    1.101933 S    
P3    C45   1.880906 S    
C33   C44   1.429857 A    
C34   N12   1.422367 S    
C17   C21   1.371482 D    
N8    O39   1.291209 A    
N16   O55   1.299317 A    
P2    O7    1.586641 D    
C16   C55   1.535425 S    
C37   N15   1.411742 S    
P2    Ba1   3.519814 S    
N10   O43   1.296564 A    
C43   C45   1.411322 A    
C13   N6    1.463771 S    
C54   H48   1.100712 S    
C19   N10   1.437200 S    
P7    O22   1.771592 S    
P5    O18   1.532534 D    
C53   H44   1.089338 S    
Ba2   O21   2.921335 S    
C16   C54   1.556333 S    
P2    O20   1.612606 S    
C6    C48   1.488355 S    
C55   H51   1.111709 S    
C50   H34   1.104339 S    
C41   N14   1.417008 S    
C51   H38   1.108097 S    
N3    O30   1.296530 A    
C49   H33   1.109753 S    
O19   C13   1.423742 S    
C57   H56   1.109308 S    
C26   C27   1.400349 A    
C8    H9    1.107336 S    
C28   C29   1.414192 A    
C52   H41   1.095916 S    
N2    O28   1.297892 A    
Ba1   O16   2.889550 S    
P2    C36   1.900133 S    
C27   C30   1.423629 A    
N12   O48   1.296310 A    
C39   C41   1.417302 A    
O10   C8    1.395833 S    
N4    O32   1.299454 A    
N1    O25   1.293100 A    
Ba2   O20   2.889025 S    
O2    Ba2   2.932060 S    
C6    C7    1.548871 S    
N14   O52   1.295553 A    
C47   H27   1.109873 S    
O7    Ba1   2.921260 S    
N6    O35   1.290749 A    
O6    C10   1.418320 S    
P4    O13   1.625807 S    
C14   N7    1.459748 S    
N15   O53   1.295195 A    
N11   O45   1.299040 A    
C55   H49   1.107133 S    
N5    O33   1.296763 A    
C19   C23   1.504233 S    
P3    O8    1.771838 S    
O5    C6    1.394251 S    
C4    O15   1.410008 S    
C10   H12   1.108200 S    
C40   C44   1.441683 A    
C7    H8    1.094686 S    
C9    H11   1.107597 S    
C47   H26   1.099579 S    
C49   H31   1.106657 S    
O14   Ba2   2.912562 S    
O1    Ba1   2.916003 S    
C5    H5    1.106381 S    
C5    C47   1.527781 S    
C38   C39   1.438464 A    
C18   C30   1.419542 A    
O17   Ba2   2.858158 S    
C8    C50   1.505193 S    
O13   Ba2   3.059070 S    
N4    O31   1.299800 A    
C3    C57   1.520862 S    
C2    N13   1.453148 S    
C19   C20   1.369411 D    
C33   C34   1.416410 A    
C38   C46   1.413979 A    
C54   H47   1.095389 S    
C42   C43   1.388128 A    
C32   C35   1.395858 A    
C51   H39   1.110191 S    
P1    O5    1.763954 S    
P5    O19   1.777079 S    
C53   H43   1.101060 S    
N16   O56   1.295839 A    
C28   C56   1.498558 S    
C11   C12   1.577277 S    
O12   Ba2   2.916649 S    
C34   C35   1.402742 A    
C24   H21   1.083553 S    
C48   H30   1.105031 S    
C52   H40   1.104176 S    
P8    O23   1.544363 D    
C51   H37   1.105754 S    
O3    P6    1.745984 S    
C31   C46   1.407168 A    
