data_mof_unit_53282.cif
_audit_creation_date              2012-10-26T21:33:21-0400
_audit_creation_method            fapswitch 2.2
_symmetry_space_group_name_H-M    P1
_symmetry_Int_Tables_number       1
_space_group_crystal_system       triclinic
_cell_length_a                    28.242487
_cell_length_b                    18.44208
_cell_length_c                    17.060655
_cell_angle_alpha                 89.858187
_cell_angle_beta                  60.212852
_cell_angle_gamma                 89.784207
_cell_volume                      7711.93725277

loop_
_atom_site_label
_atom_site_type_symbol
_atom_type_description
_atom_site_fract_x
_atom_site_fract_y
_atom_site_fract_z
_atom_type_partial_charge
C1    C     C_R   0.702595 0.271278 0.675481 0.930023
C2    C     C_R   0.091379 0.494038 0.528500 0.080117
C3    C     C_R   0.199781 0.199864 0.893987 -0.013017
C4    C     C_R   0.077695 0.094071 0.929850 0.965819
C5    C     C_R   0.930307 0.895729 0.062053 0.968995
C6    C     C_R   0.922034 0.093745 0.070315 0.959252
C7    C     C_R   0.069453 0.895512 0.938146 0.981012
C8    C     C_R   0.577693 0.594074 0.929851 0.965989
C9    C     C_R   0.430308 0.395728 0.062052 0.970411
C10   C     C_R   0.422075 0.593799 0.070277 0.959302
C11   C     C_R   0.569410 0.395473 0.938181 0.981755
C12   C     C_R   0.571505 0.109987 0.439870 -0.093523
C13   C     C_R   0.401686 0.994747 0.497341 0.078822
C14   C     C_R   0.427984 0.871442 0.568096 -0.115292
C15   C     C_R   0.472723 0.114649 0.434869 -0.099330
C16   C     C_R   0.520396 0.873769 0.590644 -0.110287
C17   C     C_R   0.071545 0.609858 0.439776 -0.099264
C18   C     C_R   0.927960 0.371410 0.568167 -0.115381
C19   C     C_R   0.972786 0.614531 0.434668 -0.100588
C20   C     C_R   0.020378 0.373728 0.590708 -0.110347
C21   C     C_R   0.560717 0.168954 0.396981 0.349783
C22   C     C_R   0.440638 0.810207 0.605096 0.337829
C23   C     C_R   0.508048 0.175604 0.406041 0.313746
C24   C     C_R   0.591416 0.994058 0.528383 0.080299
C25   C     C_R   0.482693 0.815694 0.627205 0.349413
C26   C     C_R   0.060890 0.668674 0.396538 0.353218
C27   C     C_R   0.940649 0.310144 0.605069 0.337515
C28   C     C_R   0.008251 0.675361 0.405454 0.335710
C29   C     C_R   0.982705 0.315614 0.627183 0.349502
C30   C     C_R   0.485735 0.053494 0.470803 -0.024553
C31   C     C_R   0.509694 0.932574 0.548131 -0.026495
C32   C     C_R   0.533765 0.052595 0.476863 -0.027217
C33   C     C_R   0.462735 0.932368 0.539230 -0.024060
C34   C     C_R   0.985730 0.553441 0.470811 -0.027189
C35   C     C_R   0.069236 0.373848 0.594089 -0.058474
C36   C     C_R   0.009659 0.432551 0.548239 -0.026918
C37   C     C_R   0.033757 0.552535 0.476887 -0.026523
C38   C     C_R   0.962698 0.432349 0.539340 -0.023962
C39   C     C_R   0.950201 0.493427 0.502131 0.076247
C40   C     C_R   0.045012 0.492915 0.517484 0.078479
C41   C     C_R   0.450236 0.993450 0.502030 0.075452
C42   C     C_R   0.545049 0.992940 0.517375 0.077493
C43   C     C_R   0.868123 0.433462 0.522991 -0.020695
C44   C     C_R   0.125576 0.555034 0.502621 -0.037199
C45   C     C_R   0.105140 0.432974 0.562226 -0.029799
C46   C     C_R   0.924343 0.613647 0.429290 -0.069721
C47   C     C_R   0.886167 0.556847 0.466872 -0.029030
C48   C     C_R   0.368169 0.933479 0.522863 -0.021033
C49   C     C_R   0.625608 0.055061 0.502524 -0.037737
C50   C     C_R   0.605170 0.932992 0.562121 -0.029145
C51   C     C_R   0.386181 0.056895 0.466838 -0.026520
C52   C     C_R   0.821418 0.435160 0.512653 -0.233120
C53   C     C_R   0.165147 0.560147 0.532173 -0.262493
C54   C     C_R   0.154528 0.433670 0.564736 -0.200385
C55   C     C_R   0.831405 0.560574 0.480934 -0.257988
C56   C     C_R   0.321463 0.935175 0.512532 -0.233464
C57   C     C_R   0.880204 0.374073 0.562016 -0.054414
C58   C     C_R   0.665170 0.060157 0.532100 -0.261966
C59   C     C_R   0.654546 0.933684 0.564659 -0.200111
C60   C     C_R   0.331422 0.060596 0.480891 -0.257954
C61   C     C_R   0.797177 0.500360 0.517038 0.378606
C62   C     C_R   0.175151 0.499478 0.571935 0.378653
C63   C     C_R   0.297207 0.000369 0.516963 0.378347
C64   C     C_R   0.675166 0.999487 0.571869 0.377270
C65   C     C_R   0.118057 0.608559 0.450448 -0.070699
C66   C     C_R   0.569255 0.873880 0.594015 -0.058165
C67   C     C_R   0.424311 0.113769 0.429429 -0.076771
C68   C     C_R   0.380236 0.874103 0.561924 -0.053546
C69   C     C_R   0.299644 0.734303 0.323346 0.885638
C70   C     C_R   0.618061 0.108633 0.450416 -0.070658
C71   C     C_R   0.714143 0.258335 0.959548 0.132882
C72   C     C_R   0.272487 0.725116 0.052996 0.144416
C73   C     C_R   0.285835 0.257036 0.040547 0.156515
C74   C     C_R   0.728615 0.720882 0.946165 0.138982
C75   C     C_R   0.214274 0.758368 0.959355 0.105193
C76   C     C_R   0.772445 0.225366 0.053146 0.143870
C77   C     C_R   0.785832 0.757040 0.040549 0.156381
C78   C     C_R   0.228620 0.220871 0.946161 0.139168
C79   C     C_R   0.755518 0.205411 0.926957 -0.106009
C80   C     C_R   0.297326 0.271383 0.324541 0.886708
C81   C     C_R   0.233919 0.782191 0.081407 -0.105820
C82   C     C_R   0.249731 0.198142 0.067685 -0.163853
C83   C     C_R   0.762193 0.783022 0.923349 -0.165756
C84   C     C_R   0.255092 0.704716 0.927369 -0.121683
C85   C     C_R   0.733224 0.281656 0.082352 -0.102879
C86   C     C_R   0.749728 0.698146 0.067685 -0.164219
C87   C     C_R   0.262200 0.283012 0.923343 -0.166687
C88   C     C_R   0.786109 0.192742 0.969720 -0.057128
C89   C     C_R   0.207055 0.799982 0.033499 -0.052044
C90   C     C_R   0.219749 0.182973 0.024449 -0.082074
C91   C     C_R   0.700385 0.734305 0.676628 0.952478
C92   C     C_R   0.788716 0.801750 0.971444 -0.067553
C93   C     C_R   0.285663 0.691831 0.970123 -0.051519
C94   C     C_R   0.706331 0.299378 0.034466 -0.063566
C95   C     C_R   0.719745 0.682980 0.024450 -0.081653
C96   C     C_R   0.288721 0.301742 0.971438 -0.068559
C97   C     C_R   0.629080 0.304486 0.956632 0.394706
C98   C     C_R   0.336882 0.642917 0.080910 0.370081
C99   C     C_R   0.370027 0.306181 0.042917 0.422420
C100  C     C_R   0.663714 0.640098 0.917770 0.381633
C101  C     C_R   0.129252 0.804770 0.956600 0.334771
C102  C     C_R   0.202575 0.771227 0.675494 0.928016
C103  C     C_R   0.836894 0.143126 0.080846 0.370136
C104  C     C_R   0.870025 0.806184 0.042917 0.422908
C105  C     C_R   0.163718 0.140088 0.917768 0.380848
C106  C     C_R   0.608825 0.337410 0.903974 -0.154124
C107  C     C_R   0.375990 0.641585 0.110224 -0.165811
C108  C     C_R   0.390711 0.337978 0.095733 -0.143806
C109  C     C_R   0.623992 0.641222 0.889709 -0.167772
C110  C     C_R   0.108886 0.837475 0.903976 -0.135735
C111  C     C_R   0.875960 0.141579 0.110261 -0.166389
C112  C     C_R   0.890708 0.837980 0.095734 -0.144955
C113  C     C_R   0.799674 0.234366 0.323342 0.885480
C114  C     C_R   0.123996 0.141214 0.889706 -0.167939
C115  C     C_R   0.631228 0.321808 0.813936 -0.188564
C116  C     C_R   0.368374 0.681389 0.183479 -0.296471
C117  C     C_R   0.368460 0.321839 0.185705 -0.241704
C118  C     C_R   0.631457 0.682213 0.817167 -0.234100
C119  C     C_R   0.131217 0.821739 0.813982 -0.190880
C120  C     C_R   0.868360 0.181324 0.183548 -0.297024
C121  C     C_R   0.868459 0.821841 0.185705 -0.241228
C122  C     C_R   0.131461 0.182206 0.817165 -0.234661
C123  C     C_R   0.679279 0.284406 0.770985 -0.037318
C124  C     C_R   0.797326 0.771383 0.324541 0.887236
C125  C     C_R   0.322217 0.722312 0.227384 -0.064460
C126  C     C_R   0.320657 0.284184 0.228743 -0.052907
C127  C     C_R   0.678314 0.721484 0.772417 -0.030590
C128  C     C_R   0.179264 0.784326 0.771004 -0.040300
C129  C     C_R   0.822299 0.222438 0.227357 -0.064382
C130  C     C_R   0.820656 0.784184 0.228743 -0.053086
C131  C     C_R   0.178318 0.221476 0.772414 -0.030745
C132  C     C_R   0.706996 0.264963 0.817738 -0.215561
C133  C     C_R   0.292625 0.741186 0.183210 -0.173425
C134  C     C_R   0.293220 0.263973 0.181817 -0.244285
C135  C     C_R   0.200387 0.234302 0.676627 0.952444
C136  C     C_R   0.709011 0.737671 0.815426 -0.213545
C137  C     C_R   0.207002 0.764856 0.817720 -0.200923
C138  C     C_R   0.792806 0.241523 0.183094 -0.174059
C139  C     C_R   0.793219 0.763971 0.181817 -0.244612
C140  C     C_R   0.209018 0.237659 0.815421 -0.214315
C141  C     C_R   0.694694 0.127289 0.523738 0.932693
C142  C     C_R   0.298557 0.870672 0.495854 0.907881
C143  C     C_R   0.306245 0.127722 0.473951 0.923762
C144  C     C_R   0.690341 0.869742 0.538936 0.901158
C145  C     C_R   0.194686 0.627286 0.523763 0.932798
C146  C     C_R   0.901648 0.494723 0.497447 0.078965
C147  C     C_R   0.798523 0.370658 0.495940 0.907148
C148  C     C_R   0.806243 0.627715 0.473961 0.924158
C149  C     C_R   0.190335 0.369735 0.538962 0.901474
C150  C     C_R   0.682497 0.274761 0.911828 -0.022737
C151  C     C_R   0.301380 0.703644 0.104884 0.005940
C152  C     C_R   0.317275 0.274858 0.087983 -0.024627
C153  C     C_R   0.699774 0.699876 0.893992 -0.012934
C154  C     C_R   0.182601 0.774865 0.911743 -0.048254
C155  C     C_R   0.801425 0.203912 0.104891 0.005867
C156  C     C_R   0.817273 0.774860 0.087984 -0.024628
H1    H     H_    0.079333 0.328479 0.623102 0.218712
H2    H     H_    0.260192 0.780370 0.215136 0.187761
H3    H     H_    0.252856 0.240649 0.218828 0.173483
H4    H     H_    0.742872 0.774524 0.782408 0.172981
H5    H     H_    0.247733 0.742807 0.780136 0.207912
H6    H     H_    0.760586 0.281012 0.214839 0.187121
H7    H     H_    0.752856 0.740646 0.218828 0.173593
H8    H     H_    0.242880 0.274509 0.782402 0.173117
H9    H     H_    0.928678 0.185177 0.816500 0.377493
H10   H     H_    0.003344 0.874628 0.399639 0.386753
H11   H     H_    0.925516 0.111624 0.622175 0.391637
H12   H     H_    0.917366 0.656185 0.392782 0.211095
H13   H     H_    0.122098 0.824141 0.246312 0.375993
H14   H     H_    0.428509 0.685643 0.816946 0.377197
H15   H     H_    0.502369 0.374933 0.403060 0.387808
H16   H     H_    0.425343 0.611714 0.622652 0.391398
H17   H     H_    0.621318 0.325236 0.248030 0.382410
H18   H     H_    0.652478 0.522792 0.586327 0.378429
H19   H     H_    0.208539 0.433395 0.741048 0.378661
H20   H     H_    0.152485 0.022768 0.586399 0.378410
H21   H     H_    0.708493 0.933387 0.741048 0.379768
H22   H     H_    0.679425 0.345797 0.056409 0.185195
H23   H     H_    0.849768 0.332520 0.594761 0.210433
H24   H     H_    0.319598 0.655140 0.937196 0.195348
H25   H     H_    0.311338 0.351891 0.954594 0.192557
H26   H     H_    0.689440 0.641356 0.054076 0.194584
H27   H     H_    0.180663 0.846921 0.054760 0.186664
H28   H     H_    0.820429 0.156674 0.936436 0.195163
H29   H     H_    0.811333 0.851898 0.954602 0.192683
H30   H     H_    0.189444 0.141350 0.054077 0.194432
H31   H     H_    0.765040 0.173582 0.867780 0.178033
H32   H     H_    0.224469 0.815219 0.139342 0.134272
H33   H     H_    0.243976 0.163701 0.123165 0.147131
H34   H     H_    0.148422 0.649560 0.418230 0.229072
H35   H     H_    0.767307 0.819635 0.870383 0.144278
H36   H     H_    0.264189 0.672515 0.868645 0.177802
H37   H     H_    0.723197 0.314059 0.141001 0.137341
H38   H     H_    0.743974 0.663703 0.123162 0.147119
H39   H     H_    0.267314 0.319622 0.870374 0.143735
H40   H     H_    0.569667 0.192684 0.159040 0.412337
H41   H     H_    0.245683 0.512018 0.060413 0.380486
H42   H     H_    0.420216 0.218366 0.822817 0.396452
H43   H     H_    0.757005 0.503967 0.924885 0.383705
H44   H     H_    0.101900 0.672353 0.068654 0.356248
H45   H     H_    0.579337 0.828517 0.623058 0.218629
H46   H     H_    0.746017 0.012641 0.058793 0.382078
H47   H     H_    0.920212 0.718375 0.822813 0.396100
H48   H     H_    0.256991 0.003951 0.924932 0.384242
H49   H     H_    0.612741 0.342536 0.775797 0.215019
H50   H     H_    0.394649 0.673783 0.212446 0.196601
H51   H     H_    0.386917 0.342333 0.223826 0.215200
H52   H     H_    0.604599 0.676382 0.789093 0.206017
H53   H     H_    0.112685 0.842394 0.775878 0.214149
H54   H     H_    0.894580 0.173569 0.212594 0.196746
H55   H     H_    0.886915 0.842336 0.223827 0.215272
H56   H     H_    0.417331 0.156431 0.393065 0.210341
H57   H     H_    0.104602 0.176378 0.789093 0.206072
H58   H     H_    0.349785 0.832574 0.594707 0.210650
H59   H     H_    0.648423 0.149640 0.418185 0.229640
H60   H     H_    0.747773 0.243086 0.780098 0.207222
O1    O     O_R   0.746490 0.236330 0.638080 -0.610491
O2    O     O_R   0.325830 0.813840 0.483730 -0.629402
O3    O     O_2   0.854347 0.039961 0.956554 -0.304387
O4    O     O_2   0.822958 0.999683 0.111234 -0.325081
O5    O     O_3   0.752424 0.060679 0.077625 -0.522993
O6    O     O_2   0.912516 0.858158 0.873124 -0.286133
O7    O     O_2   0.971865 0.782848 0.906397 -0.304331
O8    O     O_3   0.896028 0.718879 0.889211 -0.532335
O9    O     O_2   0.148626 0.030760 0.033919 -0.323108
O10   O     O_2   0.177808 0.998051 0.877613 -0.277696
O11   O     O_3   0.249792 0.053593 0.911018 -0.537999
O12   O     O_R   0.325830 0.186160 0.483730 -0.600353
O13   O     O_R   0.674170 0.813840 0.516270 -0.652052
O14   O     O_R   0.174170 0.686160 0.516270 -0.631782
O15   O     O_R   0.825830 0.313840 0.483730 -0.629423
O16   O     O_R   0.825830 0.686160 0.483730 -0.600922
O17   O     O_R   0.174170 0.313840 0.516270 -0.652016
O18   O     O_R   0.739960 0.127620 0.525000 -0.546100
O19   O     O_R   0.260040 0.872380 0.475000 -0.571620
O20   O     O_R   0.260040 0.127620 0.475000 -0.552194
O21   O     O_R   0.253510 0.763670 0.361920 -0.612764
O22   O     O_R   0.739960 0.872380 0.525000 -0.561559
O23   O     O_R   0.239960 0.627620 0.525000 -0.545590
O24   O     O_R   0.760040 0.372380 0.475000 -0.571718
O25   O     O_R   0.760040 0.627620 0.475000 -0.552037
O26   O     O_R   0.239960 0.372380 0.525000 -0.561312
O27   O     O_R   0.680700 0.294870 0.629350 -0.604870
O28   O     O_R   0.319300 0.705130 0.370650 -0.619850
O29   O     O_R   0.319300 0.294870 0.370650 -0.611229
O30   O     O_R   0.680700 0.705130 0.629350 -0.588235
O31   O     O_R   0.180700 0.794870 0.629350 -0.604482
O32   O     O_R   0.253510 0.236330 0.361920 -0.638363
O33   O     O_R   0.819300 0.205130 0.370650 -0.620096
O34   O     O_R   0.819300 0.794870 0.370650 -0.611294
O35   O     O_R   0.180700 0.205130 0.629350 -0.588317
O36   O     O_R   0.062020 0.072840 0.007170 -0.592229
O37   O     O_R   0.937980 0.927160 0.992830 -0.536703
O38   O     O_R   0.937980 0.072840 0.992830 -0.581166
O39   O     O_R   0.062020 0.927160 0.007170 -0.542154
O40   O     O_R   0.562020 0.572840 0.007170 -0.592004
O41   O     O_R   0.437980 0.427160 0.992830 -0.537118
O42   O     O_R   0.437980 0.572840 0.992830 -0.581658
O43   O     O_R   0.746490 0.763670 0.638080 -0.622828
O44   O     O_R   0.562020 0.427160 0.007170 -0.543795
O45   O     O_R   0.947860 0.073950 0.109290 -0.640168
O46   O     O_R   0.052140 0.926050 0.890710 -0.618221
O47   O     O_R   0.052140 0.073950 0.890710 -0.618466
O48   O     O_R   0.947860 0.926050 0.109290 -0.625515
O49   O     O_R   0.447860 0.573950 0.109290 -0.639825
O50   O     O_R   0.552140 0.426050 0.890710 -0.617051
O51   O     O_R   0.552140 0.573950 0.890710 -0.618622
O52   O     O_R   0.447860 0.426050 0.109290 -0.625122
O53   O     O_2   0.026151 0.198390 0.661976 -0.280425
O54   O     O_R   0.246490 0.736330 0.638080 -0.611058
O55   O     O_2   0.998890 0.298993 0.769335 -0.324838
O56   O     O_3   0.922917 0.218120 0.776015 -0.482454
O57   O     O_2   0.988651 0.770369 0.305204 -0.207295
O58   O     O_2   0.923226 0.768678 0.467387 -0.314282
O59   O     O_3   0.015814 0.829662 0.415817 -0.478139
O60   O     O_2   0.855243 0.221596 0.697409 -0.319529
O61   O     O_2   0.899791 0.216467 0.532479 -0.314776
O62   O     O_3   0.948711 0.155215 0.608533 -0.458935
O63   O     O_2   0.124495 0.779948 0.387059 -0.310262
O64   O     O_2   0.165758 0.687385 0.269015 -0.307962
O65   O     O_R   0.753510 0.263670 0.361920 -0.612443
O66   O     O_3   0.100482 0.779171 0.258467 -0.393758
O67   O     O_2   0.526018 0.698478 0.662277 -0.280628
O68   O     O_2   0.498878 0.799249 0.769382 -0.323887
O69   O     O_3   0.422806 0.718452 0.776284 -0.481453
O70   O     O_2   0.487626 0.271587 0.307577 -0.248958
O71   O     O_2   0.422723 0.268454 0.469897 -0.305429
O72   O     O_3   0.515224 0.329792 0.418183 -0.470075
O73   O     O_2   0.355161 0.721809 0.697662 -0.318219
O74   O     O_2   0.399686 0.716440 0.532743 -0.315075
O75   O     O_3   0.448574 0.655280 0.608907 -0.459209
O76   O     O_R   0.753510 0.736330 0.361920 -0.638389
O77   O     O_2   0.624162 0.280226 0.388098 -0.302983
O78   O     O_2   0.665459 0.188248 0.269323 -0.309678
O79   O     O_3   0.599868 0.280153 0.259812 -0.433311
O80   O     O_2   0.706291 0.441164 0.655089 -0.319088
O81   O     O_2   0.714581 0.572211 0.653791 -0.292016
O82   O     O_3   0.690689 0.513111 0.539073 -0.522296
O83   O     O_2   0.266146 0.504775 0.585675 -0.271305
O84   O     O_2   0.186175 0.571768 0.699482 -0.288493
O85   O     O_3   0.185887 0.431594 0.711644 -0.571332
O86   O     O_2   0.206356 0.941149 0.655071 -0.318160
O87   O     O_R   0.246490 0.263670 0.638080 -0.622547
O88   O     O_2   0.214626 0.072201 0.653775 -0.291868
O89   O     O_3   0.190689 0.013090 0.539117 -0.522401
O90   O     O_2   0.766130 0.004779 0.585703 -0.271912
O91   O     O_2   0.686142 0.071771 0.699468 -0.282118
O92   O     O_3   0.685848 0.931598 0.711629 -0.569519
O93   O     O_2   0.578772 0.348418 0.130282 -0.251873
O94   O     O_2   0.527004 0.271570 0.083399 -0.306012
O95   O     O_3   0.602787 0.210619 0.104833 -0.500736
O96   O     O_2   0.354029 0.538979 0.957633 -0.304976
O97   O     O_2   0.322784 0.499635 0.112600 -0.324585
O98   O     O_R   0.674170 0.186160 0.516270 -0.631101
O99   O     O_3   0.252187 0.560190 0.078800 -0.527696
O100  O     O_2   0.412522 0.358148 0.873119 -0.286703
O101  O     O_2   0.471868 0.282841 0.906403 -0.300365
O102  O     O_3   0.396032 0.218870 0.889215 -0.531427
O103  O     O_2   0.648636 0.530764 0.033904 -0.323390
O104  O     O_2   0.677810 0.498063 0.877598 -0.280224
O105  O     O_3   0.749798 0.553612 0.910991 -0.538473
O106  O     O_2   0.080092 0.850189 0.129392 -0.233406
O107  O     O_2   0.026931 0.773435 0.085740 -0.295309
O108  O     O_3   0.102612 0.712278 0.106775 -0.462619
S1    S     S_3+6 0.984034 0.256563 0.709513 0.058460
S2    S     S_3+6 0.204981 0.504209 0.642763 0.058341
S3    S     S_3+6 0.225590 0.006801 0.595058 0.065335
S4    S     S_3+6 0.704962 0.004214 0.642748 0.061306
S5    S     S_3+6 0.582532 0.285121 0.072156 0.063113
S6    S     S_3+6 0.317473 0.557779 0.055491 0.010697
S7    S     S_3+6 0.414399 0.293062 0.924746 0.034614
S8    S     S_3+6 0.684023 0.552924 0.936906 0.018271
S9    S     S_3+6 0.082964 0.786402 0.072566 0.070720
S10   S     S_3+6 0.817665 0.058222 0.054547 0.012003
S11   S     S_3+6 0.914394 0.793069 0.924745 0.033067
S12   S     S_3+6 0.982590 0.762208 0.397426 0.082217
S13   S     S_3+6 0.184020 0.052913 0.936920 0.019676
S14   S     S_3+6 0.909182 0.224728 0.611372 0.061942
S15   S     S_3+6 0.114587 0.729932 0.327220 0.066283
S16   S     S_3+6 0.483967 0.756751 0.709675 0.058978
S17   S     S_3+6 0.482013 0.262558 0.399388 0.071731
S18   S     S_3+6 0.409097 0.724808 0.611604 0.061929
S19   S     S_3+6 0.614236 0.230536 0.328000 0.051161
S20   S     S_3+6 0.725554 0.506810 0.595073 0.064990
Zn1   Zn    Zn3+2 0.792340 0.208750 0.507670 1.150842
Zn2   Zn    Zn3+2 0.494040 0.500000 0.919480 1.155038
Zn3   Zn    Zn3+2 0.005960 0.000000 0.080520 1.121479
Zn4   Zn    Zn3+2 0.994040 0.000000 0.919480 1.154944
Zn5   Zn    Zn3+2 0.207660 0.791250 0.492330 1.128545
Zn6   Zn    Zn3+2 0.207660 0.208750 0.492330 1.081461
Zn7   Zn    Zn3+2 0.792340 0.791250 0.507670 1.139341
Zn8   Zn    Zn3+2 0.292340 0.708750 0.507670 1.150589
Zn9   Zn    Zn3+2 0.707660 0.291250 0.492330 1.129468
Zn10  Zn    Zn3+2 0.707660 0.708750 0.492330 1.081425
Zn11  Zn    Zn3+2 0.292340 0.291250 0.507670 1.140375
Zn12  Zn    Zn3+2 0.505960 0.500000 0.080520 1.122128

loop_
_geom_bond_atom_site_label_1
_geom_bond_atom_site_label_2
_ccdc_geom_bond_type
C100  C153  A    
C145  O14   A    
H40   O95   S    
O41   Zn2   S    
C10   O49   A    
O68   S16   D    
C132  C150  A    
C133  C151  A    
C74   C83   A    
O40   Zn12  S    
C14   C33   A    
C19   C46   A    
C147  O24   A    
C3    C105  A    
C16   C31   A    
C91   C127  S    
C50   C59   A    
C31   C42   A    
O64   S15   D    
O60   S14   D    
C52   C61   A    
C77   C156  S    
O17   Zn6   S    
O3    S10   D    
C7    O46   A    
C133  H2    S    
C94   H22   S    
C131  C140  A    
C1    O27   A    
O26   Zn11  S    
C13   C51   A    
C66   H45   S    
C147  O15   A    
C44   C53   A    
C97   C150  A    
C132  H60   S    
C117  C126  A    
O16   Zn7   S    
C20   C29   A    
C119  C128  A    
C47   C146  A    
C100  C109  A    
C58   C64   A    
C93   H24   S    
C109  C118  A    
C120  H54   S    
O55   S1    D    
C115  C123  A    
C144  O13   A    
C127  C136  A    
C4    O36   A    
H15   O72   S    
C104  S11   S    
C90   H30   S    
C101  C110  A    
C8    O40   A    
O30   Zn10  S    
C34   C39   A    
C9    C108  S    
O97   S6    D    
C35   H1    S    
C72   C151  S    
O104  S8    D    
C124  C130  S    
C138  H6    S    
O48   Zn3   S    
O99   S6    S    
O27   Zn9   S    
O44   Zn12  S    
O91   S4    D    
O88   S3    D    
C35   C45   A    
C15   C30   A    
C4    C114  S    
C16   C25   A    
O29   Zn11  S    
C76   C155  S    
O85   S2    S    
O77   S19   D    
C124  O76   A    
H44   O108  S    
C25   S16   S    
C122  H57   S    
C69   O28   A    
O100  S7    D    
C103  S10   S    
C106  C115  A    
C18   C38   A    
C87   H39   S    
C137  H5    S    
C136  C153  A    
C58   C141  S    
C80   C126  S    
H47   O8    S    
C84   C93   A    
O7    S11   D    
O10   S13   D    
C86   C95   A    
C2    C40   A    
O18   Zn1   S    
O50   Zn2   S    
C111  C120  A    
C76   C85   A    
C116  H50   S    
C97   S5    S    
C78   C87   A    
H9    O56   S    
C123  C132  A    
C27   C29   A    
C6    C111  S    
O79   S19   S    
C121  C130  A    
C71   C79   A    
O101  S7    D    
C99   C108  A    
C100  S8    S    
O9    S13   D    
C89   H27   S    
C77   C86   A    
C37   C40   A    
C102  C128  S    
C60   C143  S    
C38   C39   A    
C75   C84   A    
C88   H28   S    
C71   C150  S    
O103  S8    D    
C113  O33   A    
O11   S13   S    
C5    O37   A    
C142  O2    A    
C124  O34   A    
C20   C35   A    
O6    S11   D    
C2    C44   A    
C22   C25   A    
C30   C41   A    
C91   O30   A    
H46   O5    S    
C44   C65   A    
O98   Zn9   S    
C8    O51   A    
O22   Zn7   S    
O38   Zn4   S    
C22   S18   S    
C2    C45   A    
C24   C50   A    
C28   S12   S    
C120  C129  A    
C105  S13   S    
C104  C112  A    
C98   S6    S    
C149  O17   A    
H18   O82   S    
O14   Zn5   S    
O95   S5    S    
C143  O20   A    
O12   Zn11  S    
O73   S18   D    
C21   S19   S    
C26   S15   S    
C15   C67   A    
C51   C67   A    
C65   H34   S    
H48   O11   S    
C19   C28   A    
C126  C134  A    
C142  O19   A    
O83   S2    D    
C116  C125  A    
C73   C152  S    
O102  S7    S    
H14   O69   S    
O82   S20   S    
C118  C127  A    
C122  C131  A    
O21   Zn5   S    
O106  S9    D    
C12   C70   A    
C32   C42   A    
O24   Zn9   S    
O33   Zn1   S    
C108  C117  A    
O93   S5    D    
C102  O31   A    
C135  O35   A    
C110  C119  A    
C45   C54   A    
C1    O1    A    
C5    C112  S    
C140  H8    S    
C99   C152  A    
C7    C110  S    
C14   C22   A    
C139  H7    S    
O36   Zn3   S    
C81   C89   A    
C112  C121  A    
C82   H33   S    
C86   H38   S    
O51   Zn2   S    
C55   C148  S    
C101  S9    S    
C101  C154  A    
O46   Zn4   S    
O47   Zn4   S    
C55   C61   A    
C11   O50   A    
C107  C116  A    
C91   O43   A    
C75   C89   A    
C136  H4    S    
O58   S12   D    
O89   S3    S    
C51   C60   A    
C138  C155  A    
O28   Zn8   S    
O2    Zn8   S    
O66   S15   S    
O71   S17   D    
C9    O41   A    
C34   C37   A    
C24   C42   A    
C13   C41   A    
C78   C90   A    
H17   O79   S    
H19   O85   S    
C46   H12   S    
O15   Zn1   S    
C70   H59   S    
C83   H35   S    
C61   S20   S    
O75   S18   S    
H43   O105  S    
O5    S10   S    
O87   Zn11  S    
C103  C111  A    
O42   Zn2   S    
O90   S4    D    
C149  O26   A    
C80   O32   A    
O84   S2    D    
C148  O16   A    
C68   H58   S    
C96   H25   S    
C81   H32   S    
C72   C81   A    
C56   C142  S    
C69   C125  S    
C130  C139  A    
C79   C88   A    
C98   C151  A    
C64   S4    S    
C119  H53   S    
O56   S1    S    
O69   S16   S    
C23   S17   S    
C57   H23   S    
O8    S11   S    
C54   C62   A    
C98   C107  A    
C1    C123  S    
O92   S4    S    
C18   C57   A    
C134  C152  A    
C11   C106  S    
C53   C145  S    
C67   H56   S    
C48   C68   A    
O70   S17   D    
O45   Zn3   S    
O63   S15   D    
C97   C106  A    
C103  C155  A    
C49   C70   A    
C21   C23   A    
C16   C66   A    
O62   S14   S    
C73   C82   A    
C62   S2    S    
O108  S9    S    
C46   C47   A    
C141  O98   A    
C102  O54   A    
C7    O39   A    
C17   C65   A    
C117  H51   S    
C135  O87   A    
C82   C90   A    
H21   O92   S    
C33   C41   A    
C11   O44   A    
C36   C38   A    
C43   C146  A    
O80   S20   D    
O25   Zn10  S    
O53   S1    D    
C39   C146  A    
H20   O89   S    
C137  C154  A    
C29   S1    S    
O59   S12   S    
C43   C52   A    
O35   Zn6   S    
H10   O59   S    
C20   C36   A    
O37   Zn4   S    
O61   S14   D    
C14   C68   A    
C144  O22   A    
O43   Zn7   S    
C73   C96   A    
C3    C78   S    
C113  O65   A    
C77   C92   A    
O20   Zn6   S    
O107  S9    D    
C143  O12   A    
C71   C94   A    
C83   C92   A    
C6    O38   A    
C59   C64   A    
O105  S8    S    
C113  C129  S    
C60   C63   A    
C17   C26   A    
O67   S16   D    
C63   S3    S    
C131  C135  S    
O74   S18   D    
H42   O102  S    
H13   O66   S    
O32   Zn6   S    
C27   S14   S    
C129  C138  A    
C141  O18   A    
C5    O48   A    
C10   O42   A    
C76   C88   A    
C15   C23   A    
C134  H3    S    
C12   C32   A    
C10   C107  S    
O54   Zn8   S    
C54   C149  S    
O23   Zn8   S    
C9    O52   A    
O49   Zn12  S    
O96   S6    D    
O39   Zn3   S    
C105  C114  A    
C36   C40   A    
C43   C57   A    
C92   H29   S    
C99   S7    S    
C12   C21   A    
O57   S12   D    
C49   C58   A    
C74   C153  S    
O13   Zn10  S    
O19   Zn5   S    
C118  H52   S    
C128  C137  A    
O94   S5    D    
C85   C94   A    
C87   C96   A    
C31   C33   A    
C56   C63   A    
C17   C37   A    
C104  C156  A    
C50   C66   A    
H11   O62   S    
O86   S3    D    
O65   Zn9   S    
C59   C144  S    
C52   C147  S    
C115  H49   S    
C148  O25   A    
C72   C93   A    
O31   Zn5   S    
C47   C55   A    
C125  C133  A    
C24   C49   A    
C48   C56   A    
O81   S20   D    
C74   C95   A    
C18   C27   A    
C19   C34   A    
C13   C48   A    
C95   H26   S    
C79   H31   S    
H16   O75   S    
H41   O99   S    
C26   C28   A    
O78   S19   D    
O34   Zn7   S    
C8    C109  S    
C30   C32   A    
C75   C154  S    
C85   H37   S    
C139  C156  A    
C4    O47   A    
O72   S17   S    
C145  O23   A    
C84   H36   S    
C6    O45   A    
C121  H55   S    
O52   Zn12  S    
O4    S10   D    
O1    Zn1   S    
C114  C122  A    
C53   C62   A    
C80   O29   A    
O76   Zn10  S    
C3    C140  A    
C69   O21   A    
