data_mof_unit_57773.cif
_audit_creation_date              2012-12-11T18:11:22-0500
_audit_creation_method            fapswitch 2.2
_symmetry_space_group_name_H-M    P1
_symmetry_Int_Tables_number       1
_space_group_crystal_system       triclinic
_cell_length_a                    8.271859
_cell_length_b                    12.910662
_cell_length_c                    18.751931
_cell_angle_alpha                 100.482365
_cell_angle_beta                  91.371277
_cell_angle_gamma                 99.1639
_cell_volume                      1941.17158925

loop_
_atom_site_label
_atom_site_type_symbol
_atom_type_description
_atom_site_fract_x
_atom_site_fract_y
_atom_site_fract_z
_atom_type_partial_charge
Ba1   Ba    Ba6+2 0.852780 0.548340 0.465070 1.638167
Ba2   Ba    Ba6+2 0.337060 0.451750 0.534940 1.656504
C1    C     C_3   0.682711 0.879125 0.319591 -0.290809
C2    C     C_R   0.900871 0.376513 0.092412 -0.108432
C3    C     C_R   0.771420 0.404254 0.950637 -0.105070
C4    C     C_3   0.168085 0.822306 0.268992 0.400391
C5    C     C_R   0.937815 0.437832 0.973922 0.026961
C6    C     C_R   0.713436 0.413517 0.882464 -0.101434
C7    C     C_R   0.818168 0.456033 0.833460 -0.026824
C8    C     C_R   0.983269 0.499485 0.856647 -0.017498
C9    C     C_R   0.043427 0.488878 0.927086 0.019794
C10   C     C_R   0.762068 0.454807 0.761685 -0.021427
C11   C     C_R   0.869795 0.495511 0.713615 -0.297268
C12   C     C_3   0.599121 0.787042 0.261320 0.429866
C13   C     C_R   0.028170 0.549549 0.736170 0.053362
C14   C     C_R   0.086144 0.555511 0.810508 -0.047518
C15   C     C_R   0.165197 0.469193 0.066622 0.026642
C16   C     C_3   0.176660 0.898591 0.214764 -0.381373
C17   C     C_R   0.223298 0.469562 0.139224 0.015901
C18   C     C_R   0.114636 0.430927 0.189694 -0.034616
C19   C     C_R   0.957599 0.378604 0.163388 -0.047910
C20   C     C_R   0.239265 0.613635 0.842815 0.200032
C21   C     C_R   0.300728 0.595017 0.908482 -0.080509
C22   C     C_R   0.208465 0.529953 0.950402 -0.020324
C23   C     C_3   0.570566 0.246498 0.310467 0.296034
C24   C     C_R   0.272005 0.515097 0.018536 0.025499
C25   C     C_R   0.440051 0.545161 0.040521 -0.110405
C26   C     C_R   0.388554 0.512705 0.162108 -0.032902
C27   C     C_R   0.496722 0.544125 0.110713 -0.103760
C28   C     C_3   0.235324 0.783949 0.617511 0.297301
C29   C     C_R   0.439185 0.526149 0.236195 -0.006605
C30   C     C_R   0.328501 0.493747 0.285946 -0.292708
C31   C     C_R   0.167893 0.444992 0.264402 0.011330
C32   C     C_R   0.761034 0.182072 0.533109 -0.257242
C33   C     C_R   0.431712 0.807754 0.468898 -0.273919
C34   C     C_3   0.580937 0.189860 0.232491 -0.393729
C35   C     C_R   0.399220 0.983494 0.450292 -0.102589
C36   C     C_R   0.339490 0.874933 0.441647 -0.020384
C37   C     C_R   0.579078 0.848886 0.509929 0.051906
C38   C     C_R   0.641386 0.961165 0.519392 -0.055957
C39   C     C_R   0.550517 0.028399 0.487574 -0.042479
C40   C     C_3   0.212140 0.899825 0.628897 -0.321700
C41   C     C_R   0.612371 0.139222 0.494517 0.049896
C42   C     C_R   0.854342 0.117373 0.562104 -0.017202
C43   C     C_R   0.792559 0.008418 0.557639 -0.100603
C44   C     C_3   0.108974 0.204275 0.305745 0.329898
C45   C     C_3   0.079367 0.243832 0.735808 0.395483
C46   C     C_3   0.130319 0.186079 0.223241 -0.434155
C47   C     C_3   0.747014 0.714504 0.682497 0.317665
C48   C     C_3   0.819753 0.764870 0.758696 -0.378706
C49   C     C_3   0.068683 0.097378 0.330337 -0.141060
C50   C     C_3   0.975595 0.105269 0.399565 -0.322812
C51   C     C_3   0.543329 0.827533 0.193625 -0.200169
C52   C     C_3   0.674925 0.847843 0.139980 -0.368294
C53   C     C_3   0.119357 0.703516 0.232156 -0.123488
C54   C     C_3   0.021842 0.682379 0.159006 -0.379058
C55   C     C_3   0.084163 0.215888 0.811066 -0.365793
C56   C     C_3   0.621547 0.206591 0.731284 0.305158
C57   C     C_3   0.557322 0.087760 0.716778 -0.327836
C58   C     C_R   0.999324 0.427250 0.043812 0.002467
H1    H     H_    0.488088 0.750607 0.285286 -0.087911
H2    H     H_    0.640423 0.651797 0.686153 0.068673
H3    H     H_    0.717844 0.848899 0.368471 0.136088
H4    H     H_    0.939516 0.816204 0.755540 0.143456
H5    H     H_    0.837628 0.702309 0.790087 0.069740
H6    H     H_    0.736808 0.815281 0.788153 0.163480
H7    H     H_    0.600347 0.938459 0.335053 0.040406
H8    H     H_    0.502827 0.314432 0.311311 -0.011739
H9    H     H_    0.695660 0.275081 0.333547 0.113167
H10   H     H_    0.462342 0.139335 0.211800 0.120775
H11   H     H_    0.611723 0.249488 0.197107 0.069226
H12   H     H_    0.266706 0.942375 0.682833 0.139214
H13   H     H_    0.676537 0.137943 0.229685 0.115981
H14   H     H_    0.793723 0.918532 0.298478 0.132740
H15   H     H_    0.228697 0.866079 0.163224 0.086522
H16   H     H_    0.173423 0.314832 0.735025 0.104636
H17   H     H_    0.957383 0.264149 0.724625 -0.116273
H18   H     H_    0.058361 0.283683 0.852095 0.071862
H19   H     H_    0.990108 0.144836 0.812938 0.111993
H20   H     H_    0.207200 0.198269 0.824526 0.145111
H21   H     H_    0.707616 0.225731 0.779945 0.006284
H22   H     H_    0.688067 0.223737 0.682759 -0.020646
H23   H     H_    0.269407 0.939188 0.585891 0.083940
H24   H     H_    0.661528 0.042718 0.713390 0.080900
H25   H     H_    0.485589 0.066185 0.663994 0.116805
H26   H     H_    0.479433 0.066462 0.761083 0.137346
H27   H     H_    0.826647 0.488484 0.657735 0.060385
H28   H     H_    0.584263 0.385887 0.868813 0.102707
H29   H     H_    0.875511 0.339627 0.197683 0.100495
H30   H     H_    0.626274 0.570115 0.124263 0.102368
H31   H     H_    0.369280 0.505125 0.342531 0.075010
H32   H     H_    0.680855 0.371165 0.984223 0.072622
H33   H     H_    0.777696 0.335124 0.077732 0.065349
H34   H     H_    0.079698 0.904050 0.628239 0.127791
H35   H     H_    0.417774 0.641315 0.929559 0.093638
H36   H     H_    0.293631 0.835731 0.293423 -0.057965
H37   H     H_    0.531551 0.569373 0.004082 0.075132
H38   H     H_    0.322981 0.032558 0.429913 0.105749
H39   H     H_    0.865569 0.961478 0.582367 0.106125
H40   H     H_    0.810506 0.265643 0.535943 0.063700
H41   H     H_    0.382168 0.723652 0.462816 0.062843
H42   H     H_    0.053907 0.914929 0.201026 0.114017
H43   H     H_    0.259058 0.973821 0.238146 0.089940
H44   H     H_    0.366673 0.779392 0.612522 0.009372
H45   H     H_    0.224837 0.247821 0.335459 0.053570
H46   H     H_    0.163860 0.741372 0.566913 0.064563
H47   H     H_    0.032705 0.176074 0.439926 0.147512
H48   H     H_    0.846297 0.112254 0.387185 0.087689
H49   H     H_    0.975072 0.032869 0.422556 0.148341
H50   H     H_    0.990347 0.040774 0.287474 0.094374
H51   H     H_    0.183346 0.067011 0.339087 0.099978
H52   H     H_    0.785744 0.900044 0.168075 0.116433
H53   H     H_    0.704442 0.771093 0.110724 0.134070
H54   H     H_    0.627303 0.888874 0.098785 0.118719
H55   H     H_    0.441629 0.767683 0.163752 0.087552
H56   H     H_    0.010482 0.177933 0.193062 0.122526
H57   H     H_    0.498246 0.903914 0.211240 0.079608
H58   H     H_    0.933426 0.737529 0.159300 0.162324
H59   H     H_    0.105450 0.691641 0.114317 0.102911
H60   H     H_    0.952059 0.600281 0.147732 0.150579
H61   H     H_    0.232594 0.669363 0.223387 0.011820
H62   H     H_    0.048280 0.658664 0.269299 0.165910
H63   H     H_    0.181209 0.112870 0.203642 0.091965
H64   H     H_    0.218043 0.252097 0.208882 0.074248
H65   H     H_    0.842260 0.678030 0.651216 0.013720
I1    I     I_    0.376779 0.754473 0.817002 -0.499740
O1    O     O_2   0.873090 0.425890 0.325140 -0.461504
O2    O     O_2   0.191325 0.123090 0.550881 -0.477159
O3    O     O_3   0.112038 0.156631 0.684931 -0.590184
O4    O     O_3   0.122420 0.434370 0.414380 -0.475142
O5    O     O_3   0.578370 0.633800 0.536380 -0.490592
O6    O     O_2   0.341510 0.231850 0.465510 -0.454031
O7    O     O_3   0.491472 0.174086 0.350220 -0.670981
O8    O     O_2   0.420704 0.456630 0.756621 -0.492141
O9    O     O_3   0.490492 0.263743 0.744502 -0.584383
O10   O     O_3   0.659500 0.627100 0.368810 -0.470159
O11   O     O_2   0.774363 0.529674 0.246238 -0.494291
O12   O     O_3   0.695188 0.794399 0.650638 -0.631655
O13   O     O_3   0.977009 0.258207 0.323002 -0.637827
O14   O     O_3   0.708038 0.714887 0.242067 -0.586304
O15   O     O_2   0.848200 0.768190 0.534530 -0.465273
O16   O     O_3   0.081160 0.685950 0.404810 -0.482485
O17   O     O_2   0.014101 0.874309 0.461394 -0.486551
O18   O     O_3   0.059532 0.850446 0.323260 -0.595758
O19   O     O_2   0.316610 0.574140 0.674900 -0.438234
O20   O     O_3   0.067290 0.565720 0.585630 -0.505011
O21   O     O_3   0.530210 0.372990 0.631200 -0.454364
O22   O     O_3   0.183028 0.744828 0.679239 -0.607000
O23   O     O_3   0.611340 0.366290 0.463630 -0.480907
O24   O     O_3   0.108550 0.314140 0.595200 -0.484038
P1    P     P_3+3 0.041040 0.394770 0.336330 0.970322
P2    P     P_3+3 0.672880 0.754030 0.556100 0.974637
P3    P     P_3+3 0.126931 0.822679 0.406621 0.935564
P4    P     P_3+3 0.148670 0.605320 0.663680 1.012204
P5    P     P_3+3 0.065690 0.177134 0.597628 0.964256
P6    P     P_3+3 0.643184 0.596737 0.273695 0.957813
P7    P     P_3+3 0.522246 0.228360 0.443140 0.925953
P8    P     P_3+3 0.552170 0.391245 0.725118 0.959809

loop_
_geom_bond_atom_site_label_1
_geom_bond_atom_site_label_2
_ccdc_geom_bond_type
Ba2   O24   S    
C53   C54   S    
C53   H61   S    
C16   H15   S    
C25   C27   A    
C48   H4    S    
C55   H19   S    
C17   C18   A    
C4    C53   S    
C46   H63   S    
C29   P6    S    
Ba1   O20   S    
C19   H29   S    
C51   C52   S    
Ba2   O19   S    
C5    C9    A    
C24   C25   A    
C45   O3    S    
C15   C24   A    
C26   C27   A    
C22   C24   A    
C45   H16   S    
C56   H22   S    
O10   P6    S    
C51   H57   S    
O17   P3    D    
C30   H31   S    
C13   C14   A    
C52   H53   S    
C9    C22   A    
C44   H45   S    
Ba1   P2    S    
Ba1   Ba2   S    
C16   H42   S    
O18   P3    S    
C1    H14   S    
C27   H30   S    
C13   P4    S    
Ba1   O16   S    
O2    P5    D    
O1    P1    D    
Ba1   O15   S    
O16   P3    S    
C50   H47   S    
C6    C7    A    
Ba2   O6    S    
C21   C22   A    
Ba1   O23   S    
C49   H51   S    
Ba1   O10   S    
C23   O7    S    
C7    C8    A    
C34   H11   S    
C46   H56   S    
Ba2   O23   S    
C53   H62   S    
Ba2   P4    S    
O9    P8    S    
C47   O12   S    
C28   H46   S    
C39   C41   A    
C55   H20   S    
C11   H27   S    
O5    P2    S    
C23   H8    S    
O22   P4    S    
C35   H38   S    
C48   H5    S    
C34   H10   S    
C54   H60   S    
C38   C43   A    
C4    C16   S    
C44   C46   S    
C40   H23   S    
C49   C50   S    
C33   C36   A    
C32   C42   A    
C57   H24   S    
Ba1   O4    S    
C31   P1    S    
C56   H21   S    
C37   C38   A    
O3    P5    S    
C15   C58   A    
C41   P7    S    
C56   C57   S    
C12   H1    S    
C37   P2    S    
O11   P6    D    
C6    H28   S    
C33   C37   A    
C57   H25   S    
C35   C36   A    
C45   C55   S    
C32   H40   S    
C29   C30   A    
O20   P4    S    
C2    C58   A    
C40   H12   S    
Ba2   O5    S    
C52   H52   S    
C10   C11   A    
C17   C26   A    
C48   H6    S    
C1    C12   S    
O14   P6    S    
O19   P4    D    
C38   C39   A    
O8    P8    D    
C12   O14   S    
C49   H50   S    
C4    H36   S    
O24   P5    S    
C11   C13   A    
C43   H39   S    
C54   H59   S    
C23   H9    S    
C18   C31   A    
C4    O18   S    
C5    C58   A    
Ba2   O4    S    
C42   C43   A    
C3    C5    A    
C25   H37   S    
C14   C20   A    
C47   H2    S    
C40   H34   S    
C42   P5    S    
C54   H58   S    
C55   H18   S    
C26   C29   A    
C1    H7    S    
C32   C41   A    
Ba1   O1    S    
C33   H41   S    
C46   H64   S    
C3    C6    A    
C28   O22   S    
C1    H3    S    
C56   O9    S    
Ba2   O20   S    
C47   H65   S    
O6    P7    D    
O12   P2    S    
C30   C31   A    
Ba2   O21   S    
C57   H26   S    
C8    C14   A    
C2    C19   A    
C50   H49   S    
Ba1   O5    S    
C52   H54   S    
O13   P1    S    
C15   C17   A    
C21   H35   S    
Ba1   P1    S    
O7    P7    S    
C16   H43   S    
C44   C49   S    
C35   C39   A    
C7    C10   A    
C3    H32   S    
C20   I1    S    
C8    C9    A    
C23   C34   S    
C2    H33   S    
C12   C51   S    
C18   C19   A    
C50   H48   S    
C47   C48   S    
C28   H44   S    
O4    P1    S    
C45   H17   S    
C20   C21   A    
C28   C40   S    
C36   P3    S    
C10   P8    S    
O21   P8    S    
O23   P7    S    
C34   H13   S    
C51   H55   S    
O15   P2    D    
C44   O13   S    
