data_mof_unit_29610.cif
_audit_creation_date              2012-12-10T18:10:54-0500
_audit_creation_method            fapswitch 2.2
_symmetry_space_group_name_H-M    P1
_symmetry_Int_Tables_number       1
_space_group_crystal_system       triclinic
_cell_length_a                    12.59759
_cell_length_b                    13.09242
_cell_length_c                    15.747139
_cell_angle_alpha                 90.326152
_cell_angle_beta                  102.788984
_cell_angle_gamma                 82.01261
_cell_volume                      2507.37336941

loop_
_atom_site_label
_atom_site_type_symbol
_atom_type_description
_atom_site_fract_x
_atom_site_fract_y
_atom_site_fract_z
_atom_type_partial_charge
C1    C     C_R   0.438428 0.691349 0.485925 0.847671
C2    C     C_R   0.597881 0.198865 0.503907 -0.124129
C3    C     C_R   0.295921 0.840385 0.489391 -0.193497
C4    C     C_R   0.500883 0.500473 0.661537 0.910007
C5    C     C_R   0.266100 0.946137 0.493316 -0.158275
C6    C     C_R   0.341363 0.012639 0.487483 -0.204682
C7    C     C_R   0.446310 0.973983 0.472357 0.121723
C8    C     C_R   0.467637 0.869331 0.452821 0.090137
C9    C     C_R   0.531140 0.035270 0.476525 0.024317
C10   C     C_R   0.628127 0.996810 0.447797 0.041874
C11   C     C_R   0.637348 0.898378 0.413126 -0.241670
C12   C     C_3   0.383721 0.549316 0.030375 -0.462945
C13   C     C_R   0.558390 0.835240 0.415890 -0.215653
C14   C     C_R   0.522779 0.133202 0.510752 -0.273893
C15   C     C_R   0.694718 0.161485 0.477468 -0.297544
C16   C     C_R   0.561438 0.308431 0.509209 0.891781
C17   C     C_R   0.398327 0.801308 0.472196 -0.116621
C18   C     C_R   0.101057 0.322581 0.403565 0.075497
C19   C     C_R   0.796558 0.632780 0.599185 -0.014793
C20   C     C_R   0.902429 0.654919 0.628986 -0.324897
C21   C     C_R   0.990808 0.597871 0.601120 0.179650
C22   C     C_R   0.966993 0.525242 0.532613 0.000102
C23   C     C_3   0.499404 0.503357 0.083117 0.307932
C24   C     C_R   0.857631 0.501210 0.509854 0.198508
C25   C     C_R   0.044718 0.471817 0.488078 -0.048252
C26   C     C_R   0.019355 0.383041 0.438533 0.148427
C27   C     C_R   0.912444 0.358997 0.422862 -0.295212
C28   C     C_R   0.499141 0.499583 0.338577 0.889638
C29   C     C_R   0.832443 0.420469 0.454113 -0.203210
C30   C     C_R   0.144904 0.505544 0.486697 -0.062253
C31   C     C_R   0.203769 0.355074 0.415778 -0.046350
C32   C     C_3   0.382961 0.553332 0.931351 0.016529
C33   C     C_3   0.589786 0.567312 0.967703 -0.415319
C34   C     C_3   0.524188 0.391927 0.051429 -0.392251
C35   C     C_3   0.582423 0.574844 0.064534 0.038837
C36   C     C_1   0.497330 0.499688 0.249436 -0.190115
C37   C     C_3   0.499421 0.506397 0.917437 0.264209
C38   C     C_3   0.880643 0.957430 0.493509 0.058666
C39   C     C_3   0.955277 0.019092 0.557994 -0.347828
C40   C     C_3   0.034962 0.948013 0.627350 -0.984631
C41   C     C_3   0.342849 0.663854 0.891352 -0.395194
C42   C     C_3   0.222127 0.700228 0.891880 -0.907576
C43   C     C_3   0.083728 0.223377 0.355589 -0.432984
C44   C     C_3   0.028663 0.245309 0.259660 -0.845584
C45   C     C_3   0.526000 0.393948 0.954012 -0.443432
C46   C     C_3   0.104470 0.608078 0.656913 -0.401569
C47   C     C_3   0.164640 0.505678 0.700413 -0.832433
C48   C     C_3   0.696738 0.567321 0.128599 -0.389755
C49   C     C_3   0.765389 0.460509 0.142310 -0.852615
C50   C     C_1   0.497772 0.500845 0.174256 -0.102936
C51   C     C_1   0.501544 0.504649 0.826076 -0.123866
C52   C     C_1   0.502208 0.502701 0.750803 -0.195170
C53   C     C_R   0.713025 0.058700 0.453370 0.496562
H1    H     H_    0.360454 0.627280 0.054805 0.179315
H2    H     H_    0.186395 0.976566 0.504838 0.151708
H3    H     H_    0.568868 0.759543 0.388411 0.171491
H4    H     H_    0.269548 0.309642 0.392444 0.146512
H5    H     H_    0.887545 0.295087 0.383295 0.175678
H6    H     H_    0.163034 0.580034 0.507659 0.138431
H7    H     H_    0.730020 0.674451 0.624066 0.155521
H8    H     H_    0.915586 0.713142 0.677911 0.144038
H9    H     H_    0.751008 0.401714 0.434662 0.213171
H10   H     H_    0.671971 0.528474 0.961608 0.188683
H11   H     H_    0.580356 0.646104 0.938415 0.139815
H12   H     H_    0.323279 0.502771 0.897751 0.152209
H13   H     H_    0.544441 0.655612 0.072085 0.102701
H14   H     H_    0.464863 0.346397 0.917828 0.169950
H15   H     H_    0.608423 0.358331 0.945452 0.183210
H16   H     H_    0.459293 0.346284 0.061089 0.165909
H17   H     H_    0.933078 0.901736 0.461343 0.165811
H18   H     H_    0.836518 0.910213 0.529284 0.133712
H19   H     H_    0.002555 0.062170 0.522257 0.217492
H20   H     H_    0.904487 0.075771 0.590665 0.221997
H21   H     H_    0.988883 0.908468 0.666653 0.263222
H22   H     H_    0.090516 0.994109 0.671387 0.268953
H23   H     H_    0.321094 0.501550 0.041233 0.168124
H24   H     H_    0.085603 0.888947 0.596653 0.257096
H25   H     H_    0.170121 0.640955 0.864329 0.262795
H26   H     H_    0.211725 0.716445 0.958994 0.260738
H27   H     H_    0.193070 0.772459 0.851889 0.252287
H28   H     H_    0.393921 0.719731 0.927258 0.209784
H29   H     H_    0.350516 0.665657 0.822490 0.214800
H30   H     H_    0.946945 0.292802 0.252298 0.257717
H31   H     H_    0.081028 0.286789 0.227642 0.255944
H32   H     H_    0.017405 0.171366 0.226296 0.252321
H33   H     H_    0.163972 0.174068 0.358956 0.203602
H34   H     H_    0.602499 0.350152 0.089405 0.186099
H35   H     H_    0.035187 0.176782 0.387058 0.211681
H36   H     H_    0.116703 0.476543 0.744076 0.247021
H37   H     H_    0.178072 0.446140 0.652276 0.268570
H38   H     H_    0.246251 0.517799 0.739893 0.249137
H39   H     H_    0.096568 0.661468 0.710928 0.204175
H40   H     H_    0.155859 0.646799 0.622765 0.182868
H41   H     H_    0.734373 0.412227 0.186517 0.253065
H42   H     H_    0.766158 0.421669 0.079647 0.253814
H43   H     H_    0.851510 0.468684 0.174460 0.246992
H44   H     H_    0.745278 0.620929 0.104408 0.199645
H45   H     H_    0.754406 0.212108 0.473085 0.167272
H46   H     H_    0.685755 0.595808 0.193194 0.208590
H47   H     H_    0.706845 0.868726 0.385796 0.176168
H48   H     H_    0.455161 0.162279 0.539993 0.162388
H49   H     H_    0.240275 0.789251 0.502126 0.144381
H50   H     H_    0.314368 0.093808 0.492964 0.125480
N1    N     N_R   0.222200 0.444690 0.455710 -0.116255
N2    N     N_R   0.776960 0.554780 0.543830 -0.128176
O1    O     O_R   0.366740 0.627160 0.478850 -0.616722
O2    O     O_R   0.544830 0.662520 0.507140 -0.620210
O3    O     O_R   0.410920 0.482310 0.608710 -0.605426
O4    O     O_R   0.589010 0.517670 0.637000 -0.608923
O5    O     O_R   0.455170 0.337480 0.492860 -0.621614
O6    O     O_R   0.633260 0.372840 0.521150 -0.634672
O7    O     O_R   0.410990 0.482330 0.363000 -0.603794
O8    O     O_R   0.589080 0.517690 0.391290 -0.638586
O9    O     O_3   0.809547 0.023377 0.427557 -0.659924
Zn1   Zn    Zn3+2 0.381090 0.476390 0.481110 0.933780
Zn2   Zn    Zn3+2 0.618910 0.523610 0.518890 0.923512

loop_
_geom_bond_atom_site_label_1
_geom_bond_atom_site_label_2
_ccdc_geom_bond_type
C4    O4    A    
C38   H17   S    
C42   H27   S    
C8    C13   A    
C27   C29   A    
C41   C42   S    
N2    Zn2   S    
C19   C20   A    
C18   C26   A    
C43   C44   S    
C44   H30   S    
C16   O5    A    
C7    C8    A    
C28   O7    A    
C48   H44   S    
C4    O3    A    
C12   C23   S    
C26   C27   A    
C4    C52   S    
C43   H35   S    
C15   C53   A    
O3    Zn1   S    
C38   C39   S    
C37   C51   S    
C46   H39   S    
C46   C47   S    
C20   H8    S    
C10   C53   A    
C24   C29   A    
O4    Zn2   S    
C38   H18   S    
C22   C25   A    
C45   H14   S    
C39   H19   S    
O6    Zn2   S    
C49   H41   S    
C2    C16   S    
C9    C10   A    
C1    O1    A    
C13   H3    S    
C42   H26   S    
C21   C22   A    
C12   C32   S    
C47   H36   S    
C23   C50   S    
C35   C48   S    
C51   C52   T    
C28   O8    A    
C39   C40   S    
C14   H48   S    
C35   H13   S    
C3    C5    A    
C25   C26   A    
C32   C37   S    
C33   C37   S    
C11   H47   S    
C9    C14   A    
N1    Zn1   S    
C33   H10   S    
C23   C34   S    
C41   H28   S    
C30   H6    S    
C45   H15   S    
C34   C45   S    
C6    H50   S    
C49   H42   S    
C2    C15   A    
C34   H16   S    
C1    O2    A    
C19   N2    A    
C3    H49   S    
C48   C49   S    
C42   H25   S    
C23   C35   S    
C12   H23   S    
C47   H37   S    
C22   C24   A    
C32   C41   S    
C37   C45   S    
C44   H32   S    
C36   C50   T    
C53   O9    S    
C21   C46   S    
C25   C30   A    
C7    C9    A    
C48   H46   S    
C29   H9    S    
C43   H33   S    
C47   H38   S    
C5    H2    S    
C44   H31   S    
C27   H5    S    
C6    C7    A    
C24   N2    A    
C19   H7    S    
C1    C17   S    
C8    C17   A    
C40   H22   S    
O1    Zn1   S    
C31   N1    A    
O8    Zn2   S    
C18   C43   S    
C11   C13   A    
C31   H4    S    
C5    C6    A    
C46   H40   S    
C33   H11   S    
C38   O9    S    
C41   H29   S    
C33   C35   S    
C40   H21   S    
C3    C17   A    
C34   H34   S    
C39   H20   S    
C49   H43   S    
C2    C14   A    
O2    Zn2   S    
C10   C11   A    
C20   C21   A    
C28   C36   S    
C30   N1    A    
C40   H24   S    
C18   C31   A    
C15   H45   S    
O5    Zn1   S    
O7    Zn1   S    
C12   H1    S    
C16   O6    A    
C32   H12   S    
