data_mof_unit_54121.cif
_audit_creation_date              2012-12-10T16:56:33-0500
_audit_creation_method            fapswitch 2.2
_symmetry_space_group_name_H-M    P1
_symmetry_Int_Tables_number       1
_space_group_crystal_system       triclinic
_cell_length_a                    7.834488
_cell_length_b                    8.557649
_cell_length_c                    15.711597
_cell_angle_alpha                 90.781966
_cell_angle_beta                  87.126573
_cell_angle_gamma                 93.011016
_cell_volume                      1050.53997451

loop_
_atom_site_label
_atom_site_type_symbol
_atom_type_description
_atom_site_fract_x
_atom_site_fract_y
_atom_site_fract_z
_atom_type_partial_charge
C1    C     C_R   0.545049 0.794215 0.497864 0.973983
C2    C     C_3   0.389711 0.384967 0.027283 -0.116511
C3    C     C_1   0.512501 0.498923 0.749946 -0.099258
C4    C     C_1   0.487570 0.501561 0.250062 -0.078925
C5    C     C_3   0.345834 0.521737 0.970528 -0.103959
C6    C     C_3   0.654417 0.480283 0.029398 -0.126197
C7    C     C_3   0.511491 0.499248 0.915984 0.076722
C8    C     C_3   0.488658 0.502451 0.084048 0.106286
C9    C     C_1   0.515696 0.498601 0.825037 0.094274
C10   C     C_1   0.484432 0.502428 0.174977 0.141040
C11   C     C_2   0.731880 0.748886 0.943778 0.507126
C12   C     C_R   0.454951 0.205785 0.502133 0.970356
C13   C     C_2   0.264885 0.255049 0.055736 0.402072
C14   C     C_2   0.384089 0.795307 0.057513 0.492683
C15   C     C_2   0.617571 0.206860 0.943266 0.376149
C16   C     C_2   0.825933 0.456319 0.063845 0.455301
C17   C     C_2   0.175737 0.541703 0.933752 0.428324
C18   C     C_2   0.012753 0.429267 0.393086 0.731631
C19   C     C_2   0.987170 0.570816 0.606896 0.727014
C20   C     C_R   0.503843 0.499840 0.661555 0.902799
C21   C     C_R   0.496159 0.500177 0.338447 0.900116
C22   C     C_2   0.568875 0.957562 0.496623 -0.329391
C23   C     C_2   0.431125 0.042438 0.503370 -0.330456
C24   C     C_3   0.444705 0.639354 0.027861 -0.063109
C25   C     C_3   0.555401 0.362582 0.972200 -0.113896
C26   C     C_3   0.610228 0.617006 0.972642 -0.115459
H1    H     H_    0.699436 0.007454 0.490143 0.204123
H2    H     H_    0.941815 0.474057 0.647376 0.029413
H3    H     H_    0.300564 0.992545 0.509851 0.204281
H4    H     H_    0.792709 0.824090 0.990755 0.096410
H5    H     H_    0.203990 0.180384 0.008545 0.058827
H6    H     H_    0.361472 0.883517 0.011042 0.069788
H7    H     H_    0.642733 0.120268 0.990191 0.050525
H8    H     H_    0.892613 0.351588 0.046958 0.050846
H9    H     H_    0.114344 0.445739 0.899014 0.054766
H10   H     H_    0.058507 0.526030 0.352696 0.049306
N1    N     N_2   0.950320 0.457950 0.477300 -0.206637
N2    N     N_2   0.049680 0.542050 0.522700 -0.204571
O1    O     O_R   0.389250 0.738570 0.505570 -0.606343
O2    O     O_2   0.231075 0.232610 0.131359 -0.502393
O3    O     O_2   0.360465 0.824063 0.133316 -0.529253
O4    O     O_2   0.639930 0.176601 0.867562 -0.529659
O5    O     O_2   0.891313 0.554534 0.110791 -0.524241
O6    O     O_2   0.106607 0.665704 0.941930 -0.542903
O7    O     O_2   0.004940 0.296561 0.363749 -0.557776
O8    O     O_2   0.994329 0.703634 0.636087 -0.558198
O9    O     O_R   0.610750 0.261430 0.494430 -0.607390
O10   O     O_R   0.678390 0.711630 0.491020 -0.622104
O11   O     O_R   0.321610 0.288370 0.508980 -0.624444
O12   O     O_R   0.355460 0.513480 0.630490 -0.629973
O13   O     O_R   0.644540 0.486520 0.369510 -0.619635
O14   O     O_R   0.644600 0.486540 0.615950 -0.645498
O15   O     O_R   0.355400 0.513460 0.384050 -0.648322
O16   O     O_2   0.762588 0.772835 0.868052 -0.502131
Zn1   Zn    Zn3+2 0.306940 0.517990 0.509710 0.989617
Zn2   Zn    Zn3+2 0.693060 0.482010 0.490290 0.994854

loop_
_geom_bond_atom_site_label_1
_geom_bond_atom_site_label_2
_ccdc_geom_bond_type
C20   O12   A    
C1    O10   A    
N1    N2    D    
C3    C9    T    
C19   N2    S    
C6    C16   S    
C17   O6    D    
O12   Zn1   S    
C7    C25   S    
C21   O13   A    
C12   O9    A    
C12   O11   A    
C19   O8    D    
C1    C22   S    
C20   O14   A    
C21   O15   A    
C4    C21   S    
C7    C26   S    
C16   O5    D    
C6    C26   S    
C5    C24   S    
C14   O3    D    
C23   H3    S    
C11   O16   D    
C8    C24   S    
C18   N1    S    
C24   C26   S    
C2    C25   S    
C22   H1    S    
O15   Zn1   S    
C19   H2    S    
O1    Zn1   S    
C15   C25   S    
C2    C5    S    
C5    C17   S    
C1    O1    A    
C4    C10   T    
C6    C25   S    
C18   O7    D    
C7    C9    S    
C3    C20   S    
C14   H6    S    
C15   O4    D    
C5    C7    S    
O13   Zn2   S    
C14   C24   S    
C12   C23   S    
O10   Zn2   S    
C2    C13   S    
C22   C23   D    
C13   O2    D    
C6    C8    S    
C17   H9    S    
C11   C26   S    
C16   H8    S    
O11   Zn1   S    
N1    Zn2   S    
C18   H10   S    
C13   H5    S    
C8    C10   S    
C2    C8    S    
N2    Zn1   S    
O14   Zn2   S    
C11   H4    S    
C15   H7    S    
O9    Zn2   S    
