data_mof_unit_19667.cif
_audit_creation_date              2012-12-10T18:11:36-0500
_audit_creation_method            fapswitch 2.2
_symmetry_space_group_name_H-M    P1
_symmetry_Int_Tables_number       1
_space_group_crystal_system       triclinic
_cell_length_a                    10.493856
_cell_length_b                    12.603682
_cell_length_c                    13.08916
_cell_angle_alpha                 82.230837
_cell_angle_beta                  90.274186
_cell_angle_gamma                 101.942178
_cell_volume                      1677.69283488

loop_
_atom_site_label
_atom_site_type_symbol
_atom_type_description
_atom_site_fract_x
_atom_site_fract_y
_atom_site_fract_z
_atom_type_partial_charge
C1    C     C_R   0.484528 0.438396 0.691475 0.871858
C2    C     C_3   0.061791 0.594975 0.524362 0.562453
C3    C     C_3   0.960522 0.513304 0.595494 -0.309497
C4    C     C_3   0.876843 0.499519 0.500069 -0.039758
C5    C     C_R   0.714128 0.686315 0.068658 -0.303508
C6    C     C_R   0.552257 0.597578 0.200810 -0.162758
C7    C     C_R   0.369327 0.306820 0.838735 0.163473
C8    C     C_R   0.338892 0.283866 0.943633 -0.172380
C9    C     C_R   0.397269 0.354834 0.010591 -0.239574
C10   C     C_R   0.493251 0.448832 0.974331 0.111337
C11   C     C_R   0.539810 0.462313 0.871749 0.061897
C12   C     C_R   0.741945 0.500053 0.500049 0.892296
C13   C     C_R   0.545506 0.529358 0.037003 0.105765
C14   C     C_R   0.657351 0.610955 0.003334 0.114357
C15   C     C_R   0.713071 0.613877 0.906340 -0.226800
C16   C     C_R   0.654901 0.540743 0.841085 -0.194862
C17   C     C_R   0.488843 0.530836 0.132492 -0.336325
C18   C     C_R   0.663315 0.678997 0.168622 0.458514
C19   C     C_R   0.468711 0.398379 0.801680 -0.167077
C20   C     C_R   0.323214 0.090516 0.343829 -0.316980
C21   C     C_R   0.655355 0.799070 0.628717 0.010782
C22   C     C_R   0.688884 0.903644 0.656048 -0.247984
C23   C     C_R   0.518653 0.561185 0.308935 0.894473
C24   C     C_R   0.630291 0.985540 0.607048 -0.179112
C25   C     C_R   0.538041 0.962858 0.529547 0.004379
C26   C     C_R   0.508260 0.855076 0.503977 0.227253
C27   C     C_R   0.475002 0.042386 0.476245 -0.016707
C28   C     C_R   0.386385 0.013298 0.397144 0.170681
C29   C     C_R   0.360816 0.907267 0.372507 -0.286988
C30   C     C_R   0.420408 0.829233 0.425735 -0.138637
C31   C     C_R   0.495761 0.150310 0.498135 -0.018811
C32   C     C_R   0.348284 0.195817 0.369167 0.033342
C33   C     C_R   0.257877 0.500007 0.500141 0.870149
C34   C     C_3   0.934980 0.403476 0.475663 -0.093935
C35   C     C_3   0.021978 0.417945 0.570463 -0.199283
C36   C     C_3   0.122663 0.500941 0.500396 -0.035911
C37   C     C_3   0.038153 0.486583 0.405676 -0.248481
C38   C     C_3   0.976969 0.582556 0.429412 -0.253826
H1    H     H_    0.044639 0.350900 0.627079 0.180740
H2    H     H_    0.398445 0.475742 0.158708 0.156657
H3    H     H_    0.367643 0.332544 0.090753 0.142802
H4    H     H_    0.264802 0.213069 0.973158 0.164067
H5    H     H_    0.701774 0.545293 0.766689 0.139707
H6    H     H_    0.301076 0.257167 0.328573 0.123960
H7    H     H_    0.293369 0.884161 0.312417 0.156565
H8    H     H_    0.255367 0.069622 0.283418 0.143234
H9    H     H_    0.560654 0.180177 0.556609 0.128734
H10   H     H_    0.700780 0.735024 0.666110 0.127354
H11   H     H_    0.878444 0.324611 0.455690 0.150749
H12   H     H_    0.659987 0.065358 0.630849 0.141155
H13   H     H_    0.760057 0.921204 0.714888 0.151607
H14   H     H_    0.396452 0.749314 0.403406 0.206720
H15   H     H_    0.074102 0.475132 0.329111 0.148709
H16   H     H_    0.954244 0.649918 0.373130 0.177093
H17   H     H_    0.923803 0.523654 0.672168 0.130107
H18   H     H_    0.800564 0.673704 0.880243 0.137442
H19   H     H_    0.801870 0.746719 0.044468 0.153187
N1    N     N_R   0.432930 0.222190 0.444670 -0.096343
N2    N     N_R   0.566370 0.776980 0.554790 -0.129986
O1    O     O_R   0.467970 0.366730 0.627150 -0.583581
O2    O     O_R   0.510820 0.544830 0.662520 -0.611626
O3    O     O_R   0.664630 0.410960 0.482340 -0.627283
O4    O     O_R   0.707470 0.589060 0.517710 -0.635155
O5    O     O_R   0.489180 0.455170 0.337480 -0.619753
O6    O     O_R   0.532030 0.633270 0.372850 -0.617691
O7    O     O_R   0.292530 0.410940 0.482290 -0.609986
O8    O     O_R   0.335370 0.589040 0.517660 -0.597249
Zn1   Zn    Zn3+2 0.471390 0.381080 0.476380 0.957315
Zn2   Zn    Zn3+2 0.528610 0.618920 0.523620 0.950081
I1    I     I_    0.251295 0.201736 0.744793 -0.426048
O9    O     O_3   0.135508 0.695805 0.547023 -0.596420
C39   C     C_3   0.051730 0.755925 0.586138 0.070589
H20   H     H_    0.018752 0.718942 0.666107 0.139246
H21   H     H_    0.965032 0.759118 0.537096 0.145495
C40   C     C_3   0.124948 0.872869 0.589331 -0.759028
H22   H     H_    0.148371 0.915175 0.509683 0.255630
H23   H     H_    0.063287 0.917908 0.628230 0.209290
H24   H     H_    0.216599 0.873315 0.632259 0.270842
O10   O     O_3   0.733512 0.739340 0.238542 -0.610086
C41   C     C_3   0.700013 0.842947 0.228576 0.114422
H25   H     H_    0.593400 0.834755 0.242045 0.143064
H26   H     H_    0.728556 0.889313 0.150635 0.131154
C42   C     C_3   0.772134 0.908104 0.308696 -0.803080
H27   H     H_    0.878856 0.923610 0.293386 0.243457
H28   H     H_    0.741518 0.987701 0.305546 0.205119
H29   H     H_    0.749955 0.861736 0.387075 0.263201

loop_
_geom_bond_atom_site_label_1
_geom_bond_atom_site_label_2
_ccdc_geom_bond_type
O7    Zn1   S    
C39   H21   S    
C34   C37   S    
C35   C36   S    
C32   N1    A    
C7    I1    S    
C7    C8    A    
C11   C19   A    
C29   C30   A    
O5    Zn1   S    
C31   N1    A    
C36   C37   S    
C8    H4    S    
C21   N2    A    
C41   C42   S    
C2    C36   S    
C15   C16   A    
C33   C36   S    
C34   C35   S    
C3    H17   S    
O4    Zn2   S    
C8    C9    A    
C4    C12   S    
C26   N2    A    
C21   H10   S    
C37   H15   S    
C31   H9    S    
C21   C22   A    
C18   O10   S    
C39   C40   S    
C9    C10   A    
C33   O7    A    
C24   H12   S    
C6    C18   A    
C4    C34   S    
C1    C19   S    
C27   C31   A    
C24   C25   A    
C41   H26   S    
C1    O1    A    
C12   O4    A    
C39   H20   S    
C5    C18   A    
C20   C28   A    
C25   C26   A    
C29   H7    S    
O8    Zn2   S    
C17   H2    S    
C35   H1    S    
C40   H22   S    
C37   C38   S    
C12   O3    A    
C11   C16   A    
C2    C38   S    
C42   H27   S    
C38   H16   S    
C3    C35   S    
C32   H6    S    
C40   H23   S    
C16   H5    S    
C5    C14   A    
N2    Zn2   S    
N1    Zn1   S    
C23   O5    A    
C42   H28   S    
C4    C38   S    
C26   C30   A    
C7    C19   A    
C22   C24   A    
C3    C4    S    
C33   O8    A    
C20   C32   A    
O2    Zn2   S    
C6    C17   A    
C30   H14   S    
C28   C29   A    
C34   H11   S    
C5    H19   S    
C41   H25   S    
C10   C13   A    
C1    O2    A    
O3    Zn1   S    
C25   C27   A    
C9    H3    S    
C13   C17   A    
C15   H18   S    
C23   O6    A    
C2    C3    S    
O9    C39   S    
O6    Zn2   S    
C6    C23   S    
C40   H24   S    
C10   C11   A    
O10   C41   S    
C42   H29   S    
O1    Zn1   S    
C27   C28   A    
C14   C15   A    
C13   C14   A    
C20   H8    S    
C2    O9    S    
C22   H13   S    
