data_mof_unit_45708.cif
_audit_creation_date              2012-12-10T17:33:01-0500
_audit_creation_method            fapswitch 2.2
_symmetry_space_group_name_H-M    P1
_symmetry_Int_Tables_number       1
_space_group_crystal_system       triclinic
_cell_length_a                    12.29342
_cell_length_b                    13.457989
_cell_length_c                    14.388723
_cell_angle_alpha                 92.547069
_cell_angle_beta                  107.630915
_cell_angle_gamma                 117.169833
_cell_volume                      1970.94043093

loop_
_atom_site_label
_atom_site_type_symbol
_atom_type_description
_atom_site_fract_x
_atom_site_fract_y
_atom_site_fract_z
_atom_type_partial_charge
C1    C     C_R   0.647573 0.712110 0.502891 0.782788
C2    C     C_R   0.845428 0.489918 0.915019 0.020584
C3    C     C_R   0.794506 0.505481 0.987699 0.074242
C4    C     C_R   0.950856 0.465023 0.942029 0.096524
C5    C     C_R   0.002675 0.455683 0.041629 0.101868
C6    C     C_R   0.936623 0.454514 0.106550 -0.269131
C7    C     C_R   0.838292 0.483404 0.081760 -0.164160
C8    C     C_R   0.007128 0.449745 0.873797 -0.243238
C9    C     C_R   0.111199 0.427828 0.903192 -0.205850
C10   C     C_R   0.168881 0.426406 0.002557 0.075749
C11   C     C_R   0.118405 0.446451 0.073557 0.029714
C12   C     C_R   0.618984 0.516710 0.686233 0.822409
C13   C     C_R   0.278109 0.408304 0.032314 0.442410
C14   C     C_R   0.347116 0.427873 0.135434 -0.323084
C15   C     C_R   0.190181 0.464890 0.175349 -0.265878
C16   C     C_R   0.145639 0.976165 0.355878 -0.184382
C17   C     C_R   0.239408 0.165757 0.452762 -0.132944
C18   C     C_R   0.688697 0.911022 0.519871 -0.186370
C19   C     C_R   0.752462 0.022826 0.508919 -0.189093
C20   C     C_R   0.856093 0.058346 0.475305 -0.110063
C21   C     C_R   0.898629 0.982136 0.452529 0.075864
C22   C     C_R   0.817508 0.863968 0.444728 0.010857
C23   C     C_R   0.342586 0.286044 0.482465 0.821462
C24   C     C_R   0.017739 0.019340 0.435069 -0.091685
C25   C     C_R   0.034620 0.939142 0.382626 0.001167
C26   C     C_R   0.942288 0.822439 0.360216 0.404466
C27   C     C_R   0.835653 0.785647 0.391317 -0.301794
C28   C     C_R   0.125270 0.131676 0.475704 0.386187
C29   C     C_R   0.247255 0.088040 0.391201 -0.290541
C30   C     C_R   0.719553 0.829753 0.488537 -0.078022
C31   C     C_R   0.252329 0.678159 0.662941 -0.309817
C32   C     C_R   0.655518 0.345045 0.364474 0.079946
C33   C     C_R   0.733617 0.308690 0.338046 -0.269220
C34   C     C_R   0.378950 0.479866 0.313533 0.813561
C35   C     C_R   0.868297 0.363507 0.392036 -0.212217
C36   C     C_R   0.927063 0.456517 0.473290 -0.002710
C37   C     C_R   0.842684 0.490137 0.498093 0.286538
C38   C     C_R   0.066308 0.519722 0.528827 -0.043756
C39   C     C_R   0.116986 0.612259 0.609458 0.165203
C40   C     C_R   0.032875 0.641165 0.634313 -0.320025
C41   C     C_R   0.899498 0.582990 0.578836 -0.224023
C42   C     C_R   0.159124 0.498718 0.505772 0.042735
C43   C     C_R   0.338083 0.654220 0.635357 0.052925
C44   C     C_R   0.683842 0.521035 0.791709 -0.107062
C45   C     C_R   0.305058 0.458393 0.206409 -0.098152
C46   C     C_R   0.698273 0.539993 0.964966 0.458102
C47   C     C_R   0.639646 0.542431 0.864918 -0.330913
C48   C     C_R   0.788855 0.499546 0.817871 -0.260723
Cu1   Cu    Cu3+1 0.416420 0.526630 0.522910 0.942610
Cu2   Cu    Cu3+1 0.583580 0.473370 0.477090 0.916962
H1    H     H_    0.794933 0.486144 0.136453 0.203262
H2    H     H_    0.331818 0.113861 0.369587 0.172019
H3    H     H_    0.156047 0.918055 0.309350 0.185205
H4    H     H_    0.612591 0.887784 0.551004 0.156353
H5    H     H_    0.899446 0.145081 0.464790 0.185286
H6    H     H_    0.723088 0.082974 0.528416 0.147578
H7    H     H_    0.765732 0.695506 0.368199 0.207897
H8    H     H_    0.442714 0.704740 0.676241 0.122798
H9    H     H_    0.161981 0.490631 0.232114 0.166029
H10   H     H_    0.071134 0.712392 0.695433 0.159051
H11   H     H_    0.291635 0.748782 0.724841 0.136491
H12   H     H_    0.129519 0.430063 0.445948 0.136174
H13   H     H_    0.550988 0.301468 0.322534 0.117410
H14   H     H_    0.923950 0.331717 0.368389 0.136858
H15   H     H_    0.689558 0.237609 0.275577 0.142397
H16   H     H_    0.845386 0.616217 0.600864 0.216797
H17   H     H_    0.435942 0.422425 0.161377 0.157086
H18   H     H_    0.150859 0.418121 0.848160 0.188116
H19   H     H_    0.558011 0.558715 0.843313 0.157099
H20   H     H_    0.822182 0.487348 0.759748 0.170171
H21   H     H_    0.958224 0.428829 0.176704 0.143032
H22   H     H_    0.973710 0.453723 0.796510 0.153490
N1    N     N_R   0.290690 0.566960 0.557640 -0.184838
N2    N     N_R   0.709100 0.433710 0.442970 -0.203471
O1    O     O_R   0.545970 0.684450 0.528810 -0.587254
O2    O     O_R   0.687130 0.639470 0.490120 -0.613129
O3    O     O_R   0.519670 0.535100 0.660030 -0.583218
O4    O     O_R   0.660830 0.490120 0.621340 -0.603369
O5    O     O_R   0.312870 0.360530 0.509880 -0.530635
O6    O     O_R   0.454030 0.315550 0.471190 -0.597144
O7    O     O_R   0.339170 0.509880 0.378660 -0.596795
O8    O     O_R   0.480330 0.464900 0.339970 -0.599326
O9    O     O_3   0.318149 0.379168 0.959108 -0.607085
C49   C     C_3   0.378951 0.311930 0.987600 0.081815
H23   H     H_    0.324216 0.243224 0.022756 0.130400
H24   H     H_    0.481742 0.366864 0.039874 0.190431
C50   C     C_3   0.384472 0.255380 0.896494 -0.824103
H25   H     H_    0.421318 0.318746 0.851202 0.265428
H26   H     H_    0.451603 0.219788 0.920742 0.203778
H27   H     H_    0.285610 0.184014 0.850230 0.225446
O10   O     O_3   0.958056 0.742276 0.310980 -0.576785
C51   C     C_3   0.047144 0.719194 0.381769 0.071677
H28   H     H_    0.001279 0.673154 0.433059 0.168937
H29   H     H_    0.140058 0.798034 0.427501 0.137375
C52   C     C_3   0.082761 0.645807 0.328125 -0.797912
H30   H     H_    0.102413 0.678049 0.261947 0.264615
H31   H     H_    0.172126 0.647521 0.378861 0.212172
H32   H     H_    0.000395 0.556893 0.304720 0.236703
O11   O     O_3   0.119906 0.209454 0.537605 -0.589816
C53   C     C_3   0.155876 0.194071 0.636276 0.064043
H33   H     H_    0.261973 0.220118 0.667013 0.141942
H34   H     H_    0.096745 0.103708 0.641002 0.138622
C54   C     C_3   0.130561 0.269000 0.699088 -0.755348
H35   H     H_    0.141912 0.248662 0.773995 0.231120
H36   H     H_    0.200769 0.360586 0.706771 0.254185
H37   H     H_    0.028814 0.253402 0.663237 0.240495
O12   O     O_3   0.660251 0.563734 0.041560 -0.595937
C55   C     C_3   0.617598 0.645309 0.027434 0.077599
H38   H     H_    0.512127 0.601984 0.978640 0.177471
H39   H     H_    0.676694 0.714499 0.994745 0.131792
C56   C     C_3   0.632462 0.701651 0.127814 -0.757595
H40   H     H_    0.738106 0.754696 0.174306 0.263399
H41   H     H_    0.587635 0.757617 0.116658 0.191151
H42   H     H_    0.583608 0.636024 0.167311 0.252549

loop_
_geom_bond_atom_site_label_1
_geom_bond_atom_site_label_2
_ccdc_geom_bond_type
C19   H6    S    
C43   N1    A    
C37   N2    A    
C40   H10   S    
C17   C29   A    
C31   H11   S    
C52   H30   S    
C49   C50   S    
C4    C8    A    
C52   H32   S    
C33   H15   S    
C26   C27   A    
C17   C23   S    
C31   C43   A    
C1    C30   S    
C36   C37   A    
C49   H24   S    
C38   C42   A    
C3    C7    A    
Cu2   N2    S    
C32   N2    A    
C5    C6    A    
C55   H38   S    
C18   C19   A    
Cu1   O7    S    
C16   H3    S    
C47   H19   S    
C43   H8    S    
C11   C15   A    
C19   C20   A    
C55   H39   S    
C8    C9    A    
C12   O4    A    
O12   C55   S    
Cu1   O1    S    
C35   H14   S    
C18   C30   A    
C34   O7    A    
C23   O6    A    
C56   H42   S    
C9    C10   A    
C42   H12   S    
C44   C47   A    
C21   C22   A    
C12   O3    A    
C1    O2    A    
C20   H5    S    
Cu2   O4    S    
C51   H29   S    
C14   C45   A    
C6    H21   S    
C8    H22   S    
C1    O1    A    
C24   C25   A    
C54   H36   S    
C27   H7    S    
O10   C51   S    
C2    C48   A    
C26   O10   S    
C53   C54   S    
Cu1   O5    S    
Cu1   O3    S    
C35   C36   A    
C2    C4    A    
Cu2   O2    S    
O9    C49   S    
C14   H17   S    
C46   O12   S    
C53   H34   S    
C56   H41   S    
C34   C45   S    
C49   H23   S    
C6    C7    A    
C28   O11   S    
C40   C41   A    
C22   C27   A    
C50   H26   S    
Cu1   N1    S    
C50   H27   S    
C15   C45   A    
C39   C40   A    
Cu2   O8    S    
C16   C25   A    
C46   C47   A    
C42   N1    A    
C22   C30   A    
C56   H40   S    
C17   C28   A    
C15   H9    S    
C24   C28   A    
C32   H13   S    
C48   H20   S    
C4    C5    A    
C10   C13   A    
Cu2   O6    S    
C52   H31   S    
C5    C11   A    
C41   H16   S    
C13   O9    S    
C3    C46   A    
C55   C56   S    
C32   C33   A    
C36   C38   A    
C2    C3    A    
C25   C26   A    
C9    H18   S    
C7    H1    S    
C12   C44   S    
O11   C53   S    
C38   C39   A    
C51   H28   S    
C33   C35   A    
C31   C39   A    
C54   H37   S    
C51   C52   S    
C37   C41   A    
C10   C11   A    
C18   H4    S    
C20   C21   A    
C16   C29   A    
C50   H25   S    
Cu1   Cu2   S    
C21   C24   A    
C54   H35   S    
C53   H33   S    
C34   O8    A    
C23   O5    A    
C13   C14   A    
C44   C48   A    
C29   H2    S    
