data_mof_unit_11934.cif
_audit_creation_date              2012-10-26T21:13:38-0400
_audit_creation_method            fapswitch 2.2
_symmetry_space_group_name_H-M    P1
_symmetry_Int_Tables_number       1
_space_group_crystal_system       triclinic
_cell_length_a                    9.055194
_cell_length_b                    10.810188
_cell_length_c                    9.603683
_cell_angle_alpha                 90.620042
_cell_angle_beta                  90.465594
_cell_angle_gamma                 90.076595
_cell_volume                      940.001640098

loop_
_atom_site_label
_atom_site_type_symbol
_atom_type_description
_atom_site_fract_x
_atom_site_fract_y
_atom_site_fract_z
_atom_type_partial_charge
C1    C     C_R   0.499285 0.262840 0.499105 0.543975
C2    C     C_R   0.630483 0.511516 0.928392 0.124836
C3    C     C_3   0.742415 0.616856 0.929348 0.240340
C4    C     C_R   0.220897 0.500052 0.499581 0.556836
C5    C     C_3   0.728017 0.624216 0.088439 0.115590
C6    C     C_R   0.504067 0.737382 0.500648 0.549324
C7    C     C_R   0.779096 0.499863 0.500190 0.548798
C8    C     C_1   0.065650 0.499921 0.499085 -0.051697
C9    C     C_1   0.934389 0.499788 0.499715 -0.049643
C10   C     C_R   0.401877 0.063760 0.579249 -0.050514
C11   C     C_R   0.496740 0.129850 0.494656 -0.037431
C12   C     C_R   0.597340 0.937044 0.405075 0.216624
C13   C     C_R   0.586549 0.065850 0.400159 -0.079655
C14   C     C_3   0.899562 0.579483 0.880844 -0.185875
C15   C     C_3   0.008344 0.687642 0.887722 -0.351986
C16   C     C_R   0.508094 0.871138 0.500368 -0.003233
C17   C     C_R   0.405826 0.936280 0.580633 -0.003781
C18   C     C_3   0.378747 0.935363 0.734575 0.120388
C19   C     C_3   0.372498 0.075980 0.731309 -0.226629
C20   C     C_R   0.627752 0.516037 0.075545 0.178037
C21   C     C_R   0.375409 0.474231 0.072664 -0.021628
C22   C     C_R   0.375187 0.474853 0.924651 -0.021199
Cu1   Cu    Cu3+1 0.499990 0.499980 0.640670 0.974684
Cu2   Cu    Cu3+1 0.500010 0.500020 0.359330 0.982873
H1    H     H_    0.657596 0.116303 0.330306 0.158297
H2    H     H_    0.731089 0.801373 0.364355 0.325981
H3    H     H_    0.165681 0.910683 0.705131 0.331097
H4    H     H_    0.971773 0.762210 0.816769 0.203456
H5    H     H_    0.018398 0.725809 0.994946 0.180524
H6    H     H_    0.118951 0.655490 0.854035 0.159086
H7    H     H_    0.943431 0.501497 0.943296 0.143013
H8    H     H_    0.898181 0.545945 0.773034 0.156759
H9    H     H_    0.670377 0.707946 0.129030 0.156925
H10   H     H_    0.472918 0.899532 0.796191 0.174018
H11   H     H_    0.261491 0.115512 0.752299 0.147840
H12   H     H_    0.465049 0.120823 0.789645 0.135011
H13   H     H_    0.273531 0.454411 0.125798 0.141967
H14   H     H_    0.273129 0.455422 0.869695 0.120933
H15   H     H_    0.591259 0.742959 0.899521 0.315535
H16   H     H_    0.894568 0.671307 0.204746 0.328961
N1    N     N_R   0.500920 0.500930 0.147930 -0.256892
N2    N     N_R   0.500930 0.500890 0.852020 -0.235895
O1    O     O_R   0.500000 0.319640 0.618810 -0.503202
O2    O     O_3   0.856887 0.593277 0.162330 -0.713287
O3    O     O_3   0.702717 0.881309 0.322670 -0.713641
O4    O     O_3   0.243511 0.880090 0.769605 -0.710209
O5    O     O_R   0.500020 0.319680 0.381230 -0.501446
O6    O     O_R   0.288380 0.499980 0.618770 -0.513027
O7    O     O_R   0.288400 0.500020 0.381190 -0.498291
O8    O     O_R   0.499980 0.680320 0.618770 -0.452483
O9    O     O_R   0.500000 0.680360 0.381190 -0.501257
O10   O     O_R   0.711600 0.499980 0.618810 -0.506236
O11   O     O_R   0.711620 0.500020 0.381230 -0.451075
O12   O     O_3   0.689915 0.722913 0.861263 -0.691495

loop_
_geom_bond_atom_site_label_1
_geom_bond_atom_site_label_2
_ccdc_geom_bond_type
Cu1   Cu2   S    
C3    C14   S    
C6    O9    A    
C11   C13   A    
C10   C19   S    
C1    C11   S    
C4    O7    A    
C4    C8    S    
Cu2   O9    S    
C20   N1    A    
C15   H4    S    
Cu1   O1    S    
C5    C20   S    
C19   H11   S    
C21   C22   A    
C6    O8    A    
Cu2   N1    S    
C18   H10   S    
C13   H1    S    
Cu1   O10   S    
C22   N2    A    
Cu1   N2    S    
C2    N2    A    
C21   N1    A    
C18   O4    S    
H3    O4    S    
C5    O2    S    
C7    O10   A    
C15   H5    S    
C2    C3    S    
C19   H12   S    
C3    O12   S    
H15   O12   S    
C16   C17   A    
C10   C11   A    
C7    O11   A    
C10   C17   A    
C2    C20   A    
C22   H14   S    
H16   O2    S    
C21   H13   S    
C12   C13   A    
C15   H6    S    
C17   C18   S    
C18   C19   S    
C4    O6    A    
Cu2   O7    S    
C7    C9    S    
C14   H7    S    
C14   C15   S    
C8    C9    T    
Cu1   O8    S    
Cu1   O6    S    
H2    O3    S    
Cu2   O11   S    
Cu2   O5    S    
C6    C16   S    
C1    O1    A    
C1    O5    A    
C12   C16   A    
C14   H8    S    
C12   O3    S    
C3    C5    S    
C5    H9    S    
