data_mof_unit_8092.cif
_audit_creation_date              2012-12-10T17:17:23-0500
_audit_creation_method            fapswitch 2.2
_symmetry_space_group_name_H-M    P1
_symmetry_Int_Tables_number       1
_space_group_crystal_system       triclinic
_cell_length_a                    10.269127
_cell_length_b                    10.720771
_cell_length_c                    12.336522
_cell_angle_alpha                 90.560115
_cell_angle_beta                  110.146278
_cell_angle_gamma                 96.029821
_cell_volume                      1266.47525158

loop_
_atom_site_label
_atom_site_type_symbol
_atom_type_description
_atom_site_fract_x
_atom_site_fract_y
_atom_site_fract_z
_atom_type_partial_charge
C1    C     C_R   0.052502 0.732333 0.495039 0.896594
C2    C     C_R   0.212209 0.548600 0.835175 -0.075017
C3    C     C_2   0.088285 0.865462 0.504274 -0.186366
C4    C     C_R   0.134846 0.515002 0.713720 0.836206
C5    C     C_2   0.039313 0.933937 0.569945 -0.203908
C6    C     C_2   0.946317 0.135621 0.546158 0.101010
C7    C     C_2   0.060567 0.069605 0.571966 0.206859
C8    C     C_2   0.430693 0.526604 0.492299 0.398400
C9    C     C_2   0.565110 0.505973 0.473390 -0.059559
C10   C     C_R   0.955850 0.267836 0.517433 0.838568
C11   C     C_R   0.864899 0.486391 0.286608 0.886023
C12   C     C_R   0.430986 0.533399 0.990606 0.129932
C13   C     C_R   0.666994 0.278371 0.031270 0.441050
C14   C     C_R   0.782304 0.453545 0.167276 -0.107661
C15   C     C_R   0.205606 0.668285 0.877931 -0.157881
C16   C     C_R   0.308200 0.719049 0.979336 -0.104506
C17   C     C_R   0.422403 0.654450 0.033800 -0.131907
C18   C     C_R   0.315641 0.476302 0.898352 0.073462
C19   C     C_R   0.550003 0.467629 0.033333 0.044099
C20   C     C_R   0.546127 0.342113 0.991102 -0.005219
C21   C     C_R   0.420181 0.282526 0.913639 -0.053751
C22   C     C_R   0.306146 0.348596 0.869038 -0.153196
C23   C     C_R   0.672384 0.522836 0.117595 -0.224709
C24   C     C_R   0.783609 0.334734 0.121076 -0.230325
H1    H     H_    0.870165 0.281809 0.161948 0.214748
H2    H     H_    0.561764 0.459469 0.394148 0.212059
H3    H     H_    0.620254 0.777513 0.681536 0.386227
H4    H     H_    0.691341 0.575085 0.628024 0.201630
H5    H     H_    0.127026 0.213741 0.224457 0.382382
H6    H     H_    0.556746 0.943971 0.965154 0.385493
H7    H     H_    0.303453 0.811812 0.012253 0.182136
H8    H     H_    0.305883 0.014813 0.745931 0.333787
H9    H     H_    0.408253 0.185068 0.885876 0.214074
H10   H     H_    0.681569 0.616180 0.154691 0.155403
H11   H     H_    0.125595 0.724978 0.829587 0.152524
H12   H     H_    0.500637 0.701435 0.109442 0.161800
H13   H     H_    0.209552 0.299966 0.809957 0.152333
H14   H     H_    0.978015 0.889651 0.618378 0.212527
H15   H     H_    0.577328 0.117159 0.520900 0.440517
H16   H     H_    0.150842 0.906390 0.455894 0.231144
N1    N     N_2   0.313640 0.446500 0.454900 0.049673
N2    N     N_2   0.686360 0.553430 0.545150 -0.165400
O1    O     O_R   0.936910 0.692950 0.509080 -0.594351
O2    O     O_2   0.792785 0.013460 0.657163 -0.262203
O3    O     O_3   0.657408 0.160824 0.503714 -0.467630
O4    O     O_2   0.352461 0.757120 0.450231 -0.232721
O5    O     O_2   0.378150 0.684067 0.644600 -0.322594
O6    O     O_3   0.596477 0.763981 0.597038 -0.488935
O7    O     O_2   0.299511 0.430148 0.237282 -0.330723
O8    O     O_2   0.400037 0.262028 0.360883 -0.251251
O9    O     O_3   0.131736 0.266304 0.292481 -0.488855
O10   O     O_2   0.634691 0.127680 0.847454 -0.222612
O11   O     O_2   0.818294 0.087637 0.028205 -0.281909
O12   O     O_R   0.138320 0.658600 0.480130 -0.536698
O13   O     O_3   0.560264 0.022547 0.009532 -0.570263
O14   O     O_2   0.262374 0.122238 0.482313 -0.184788
O15   O     O_2   0.284273 0.258345 0.647661 -0.309424
O16   O     O_3   0.344152 0.031054 0.683249 -0.458762
O17   O     O_R   0.002900 0.525670 0.675280 -0.630828
O18   O     O_R   0.204310 0.491320 0.646330 -0.543138
O19   O     O_R   0.861680 0.341400 0.519870 -0.547101
O20   O     O_R   0.063090 0.307050 0.490920 -0.529750
O21   O     O_R   0.795690 0.508680 0.353670 -0.608219
O22   O     O_R   0.997100 0.474330 0.324720 -0.564825
O23   O     O_2   0.734779 0.952435 0.452560 -0.228329
S1    S     S_3+6 0.779892 0.061238 0.540164 0.082370
S2    S     S_3+6 0.435653 0.683575 0.548001 0.068895
S3    S     S_3+6 0.289888 0.350294 0.334392 0.142957
S4    S     S_3+6 0.673922 0.126418 0.976595 0.039368
S5    S     S_3+6 0.239873 0.127359 0.595900 0.052366
Zn1   Zn    Zn3+2 0.865520 0.522940 0.519330 1.033611
Zn2   Zn    Zn3+2 0.134480 0.477060 0.480670 1.175084

loop_
_geom_bond_atom_site_label_1
_geom_bond_atom_site_label_2
_ccdc_geom_bond_type
H3    O6    S    
C6    C10   S    
C2    C4    S    
C1    O12   A    
C6    C7    D    
C17   H12   S    
O15   S5    D    
C2    C18   A    
H6    O13   S    
O2    S1    D    
C19   C20   A    
H8    O16   S    
H15   O3    S    
C23   H10   S    
O11   S4    D    
C4    O18   A    
C7    S5    S    
C18   C22   A    
O20   Zn2   S    
O4    S2    D    
C10   O20   A    
C21   C22   A    
C20   C21   A    
C16   H7    S    
C8    N1    D    
C2    C15   A    
O19   Zn1   S    
C9    N2    D    
O13   S4    S    
C13   S4    S    
C14   C24   A    
N1    Zn2   S    
C4    O17   A    
O5    S2    D    
N2    Zn1   S    
O7    S3    D    
C14   C23   A    
O21   Zn1   S    
C9    H2    S    
C11   O22   A    
N1    S3    S    
C11   O21   A    
O9    S3    S    
O22   Zn2   S    
O6    S2    S    
C11   C14   S    
C10   O19   A    
C21   H9    S    
O18   Zn2   S    
C12   C18   A    
C15   C16   A    
C16   C17   A    
C12   C17   A    
C6    S1    S    
O14   S5    D    
O12   Zn2   S    
C24   H1    S    
C12   C19   A    
C8    S2    S    
C5    C7    S    
O23   S1    D    
H5    O9    S    
H4    N2    S    
O3    S1    S    
C15   H11   S    
C19   C23   A    
O16   S5    S    
O1    Zn1   S    
O10   S4    D    
C13   C20   A    
C3    C5    D    
C3    H16   S    
C5    H14   S    
C22   H13   S    
O8    S3    D    
C1    O1    A    
C13   C24   A    
O17   Zn1   S    
C8    C9    S    
C1    C3    S    
