data_mof_unit_25556.cif
_audit_creation_date              2012-12-10T17:33:00-0500
_audit_creation_method            fapswitch 2.2
_symmetry_space_group_name_H-M    P1
_symmetry_Int_Tables_number       1
_space_group_crystal_system       triclinic
_cell_length_a                    12.362003
_cell_length_b                    13.298392
_cell_length_c                    14.201983
_cell_angle_alpha                 92.994817
_cell_angle_beta                  107.769677
_cell_angle_gamma                 117.004977
_cell_volume                      1930.17619732

loop_
_atom_site_label
_atom_site_type_symbol
_atom_type_description
_atom_site_fract_x
_atom_site_fract_y
_atom_site_fract_z
_atom_type_partial_charge
C1    C     C_R   0.648460 0.713070 0.504734 0.776142
C2    C     C_R   0.830693 0.469818 0.911099 0.087455
C3    C     C_R   0.762833 0.456492 0.978110 0.151954
C4    C     C_R   0.939057 0.449803 0.936215 0.020174
C5    C     C_R   0.995163 0.443609 0.037871 0.016734
C6    C     C_R   0.924609 0.429980 0.102719 -0.170549
C7    C     C_R   0.808415 0.432927 0.071853 -0.183363
C8    C     C_R   0.991572 0.432487 0.863888 0.233941
C9    C     C_R   0.109792 0.431762 0.896979 -0.286378
C10   C     C_R   0.175167 0.442852 0.999159 0.123067
C11   C     C_R   0.118585 0.448685 0.070745 0.086859
C12   C     C_R   0.617699 0.515650 0.686785 0.791500
C13   C     C_R   0.296140 0.446133 0.030255 -0.172378
C14   C     C_R   0.363430 0.458217 0.132322 -0.161633
C15   C     C_R   0.190154 0.464229 0.173717 -0.227934
C16   C     C_R   0.169449 0.961498 0.396198 -0.145918
C17   C     C_R   0.251931 0.162296 0.468797 -0.053919
C18   C     C_R   0.703266 0.918331 0.536470 -0.179561
C19   C     C_R   0.782119 0.034237 0.540668 -0.146945
C20   C     C_R   0.890759 0.068712 0.513896 -0.166332
C21   C     C_R   0.919062 0.985982 0.476917 0.081143
C22   C     C_R   0.826750 0.867134 0.457698 0.042937
C23   C     C_R   0.345970 0.285386 0.486572 0.820993
C24   C     C_R   0.035395 0.017162 0.457879 0.044110
C25   C     C_R   0.051401 0.930702 0.410111 0.110725
C26   C     C_R   0.948478 0.815988 0.376357 0.115233
C27   C     C_R   0.836921 0.786132 0.397828 -0.221939
C28   C     C_R   0.138334 0.131749 0.488263 -0.241722
C29   C     C_R   0.268923 0.076265 0.425627 -0.177017
C30   C     C_R   0.725933 0.833599 0.497561 -0.090266
C31   C     C_R   0.254874 0.686169 0.661660 -0.297917
C32   C     C_R   0.658809 0.342637 0.362185 0.344789
C33   C     C_R   0.739446 0.310175 0.335210 -0.264795
C34   C     C_R   0.380942 0.482536 0.312964 0.813652
C35   C     C_R   0.872597 0.368878 0.388056 -0.230095
C36   C     C_R   0.929503 0.463169 0.469750 0.018012
C37   C     C_R   0.844048 0.494832 0.496701 0.268223
C38   C     C_R   0.068437 0.527331 0.524820 -0.017691
C39   C     C_R   0.119884 0.621825 0.606333 0.167010
C40   C     C_R   0.036545 0.651779 0.632063 -0.278404
C41   C     C_R   0.902261 0.590110 0.578575 -0.162736
C42   C     C_R   0.159648 0.502331 0.502396 0.024946
C43   C     C_R   0.338837 0.657149 0.636004 0.065568
C44   C     C_R   0.673291 0.509260 0.791907 -0.071636
C45   C     C_R   0.311180 0.468364 0.204702 -0.051927
C46   C     C_R   0.650187 0.467471 0.950596 -0.177640
C47   C     C_R   0.603744 0.490902 0.856719 -0.193280
C48   C     C_R   0.790486 0.506948 0.822942 -0.205505
Cu1   Cu    Cu3+1 0.416420 0.526630 0.522910 0.938073
Cu2   Cu    Cu3+1 0.583580 0.473370 0.477090 0.953827
H1    H     H_    0.756278 0.420474 0.123159 0.168891
H2    H     H_    0.339145 0.440088 0.975615 0.129497
H3    H     H_    0.357872 0.097656 0.412633 0.180577
H4    H     H_    0.185969 0.897958 0.361897 0.179341
H5    H     H_    0.133073 0.199307 0.528331 0.148884
H6    H     H_    0.624474 0.895258 0.564192 0.156682
H7    H     H_    0.948205 0.160381 0.520300 0.124904
H8    H     H_    0.760847 0.098183 0.567416 0.139370
H9    H     H_    0.757172 0.698935 0.363819 0.198645
H10   H     H_    0.442957 0.706749 0.678696 0.125740
H11   H     H_    0.155266 0.476728 0.231739 0.155405
H12   H     H_    0.075688 0.724298 0.694516 0.154735
H13   H     H_    0.295306 0.758675 0.724415 0.142706
H14   H     H_    0.129417 0.432179 0.441639 0.119555
H15   H     H_    0.928209 0.338460 0.362373 0.140106
H16   H     H_    0.698419 0.238366 0.271720 0.171509
H17   H     H_    0.848021 0.620863 0.604352 0.200732
H18   H     H_    0.457071 0.461343 0.154653 0.168447
H19   H     H_    0.149972 0.420555 0.841750 0.142810
H20   H     H_    0.596543 0.455378 0.000708 0.138643
H21   H     H_    0.512699 0.492565 0.834224 0.152250
H22   H     H_    0.849387 0.535077 0.777074 0.185341
H23   H     H_    0.954296 0.412378 0.176745 0.147887
N1    N     N_R   0.290690 0.566960 0.557640 -0.180245
N2    N     N_R   0.709100 0.433710 0.442970 -0.218197
O1    O     O_R   0.545970 0.684450 0.528810 -0.579213
O2    O     O_R   0.687130 0.639470 0.490120 -0.606666
O3    O     O_R   0.519670 0.535100 0.660030 -0.583881
O4    O     O_R   0.660830 0.490120 0.621340 -0.592658
O5    O     O_R   0.312870 0.360530 0.509880 -0.596186
O6    O     O_R   0.454030 0.315550 0.471190 -0.559551
O7    O     O_R   0.339170 0.509880 0.378660 -0.586377
O8    O     O_R   0.480330 0.464900 0.339970 -0.560870
I1    I     I_    0.952083 0.680394 0.293263 -0.447266
I2    I     I_    0.459258 0.239554 0.265555 -0.407774
N3    N     N_2   0.921480 0.404239 0.757153 -0.441221
H24   H     H_    0.979146 0.423955 0.714044 0.255910
C49   C     C_3   0.809590 0.288836 0.718033 -0.677913
H25   H     H_    0.841742 0.223388 0.730546 0.219918
H26   H     H_    0.758746 0.276319 0.635422 0.227566
H27   H     H_    0.739214 0.275900 0.755784 0.242379

loop_
_geom_bond_atom_site_label_1
_geom_bond_atom_site_label_2
_ccdc_geom_bond_type
C1    O2    A    
C35   C36   A    
C4    C8    A    
Cu2   O4    S    
C32   N2    A    
C41   H17   S    
C26   C27   A    
C17   C23   S    
C31   C43   A    
C36   C37   A    
C9    H19   S    
C5    C11   A    
C3    C7    A    
C38   C39   A    
N3    C49   S    
C35   H15   S    
C12   O4    A    
C40   H12   S    
Cu1   O3    S    
C18   C19   A    
C11   C15   A    
C19   C20   A    
C8    C9    A    
C12   O3    A    
C33   H16   S    
C18   C30   A    
C23   O5    A    
C23   O6    A    
C9    C10   A    
C44   C47   A    
C18   H6    S    
C43   N1    A    
C37   N2    A    
C13   C14   A    
C17   C28   A    
C48   H22   S    
C28   H5    S    
Cu2   O8    S    
C14   C45   A    
C19   H8    S    
C42   N1    A    
C31   H13   S    
C24   C25   A    
C39   C40   A    
N3    H24   S    
C2    C48   A    
C25   C26   A    
Cu1   O7    S    
C2    C4    A    
C13   H2    S    
C49   H27   S    
C15   H11   S    
Cu1   O1    S    
C34   C45   S    
C20   C21   A    
C47   H21   S    
C43   H10   S    
C40   C41   A    
C49   H26   S    
C22   C27   A    
C34   O8    A    
C15   C45   A    
Cu2   O2    S    
C42   H14   S    
C6    H23   S    
C16   C25   A    
C46   C47   A    
C26   I1    S    
C22   C30   A    
C1    O1    A    
C24   C28   A    
C4    C5    A    
C10   C13   A    
C38   C42   A    
C6    C7    A    
C3    C46   A    
Cu1   O5    S    
C32   C33   A    
C36   C38   A    
C2    C3    A    
C16   C29   A    
C7    H1    S    
C12   C44   S    
C27   H9    S    
Cu2   N2    S    
C5    C6    A    
C29   H3    S    
C32   I2    S    
C1    C30   S    
C33   C35   A    
C31   C39   A    
C8    N3    S    
C37   C41   A    
C16   H4    S    
C46   H20   S    
C10   C11   A    
C17   C29   A    
C49   H25   S    
Cu1   Cu2   S    
C21   C24   A    
C14   H18   S    
Cu1   N1    S    
C34   O7    A    
C20   H7    S    
C21   C22   A    
C44   C48   A    
Cu2   O6    S    
