data_mof_unit_27379.cif
_audit_creation_date              2012-12-10T17:22:13-0500
_audit_creation_method            fapswitch 2.2
_symmetry_space_group_name_H-M    P1
_symmetry_Int_Tables_number       1
_space_group_crystal_system       triclinic
_cell_length_a                    15.878402
_cell_length_b                    10.767034
_cell_length_c                    9.618552
_cell_angle_alpha                 89.374602
_cell_angle_beta                  91.871703
_cell_angle_gamma                 91.162034
_cell_volume                      1643.11748244

loop_
_atom_site_label
_atom_site_type_symbol
_atom_type_description
_atom_site_fract_x
_atom_site_fract_y
_atom_site_fract_z
_atom_type_partial_charge
C1    C     C_R   0.497382 0.262721 0.500488 0.795074
C2    C     C_R   0.298934 0.055840 0.702612 -0.088173
C3    C     C_R   0.298287 0.926716 0.700472 -0.097402
C4    C     C_R   0.340446 0.499876 0.498076 0.785213
C5    C     C_R   0.361267 0.864537 0.633466 -0.161179
C6    C     C_R   0.427174 0.931259 0.568717 0.099359
C7    C     C_R   0.427649 0.062611 0.570448 0.093555
C8    C     C_R   0.492036 0.128695 0.500990 -0.102568
C9    C     C_R   0.552111 0.066415 0.426954 -0.141789
C10   C     C_R   0.551730 0.938343 0.425620 -0.172466
C11   C     C_R   0.491236 0.870702 0.498060 -0.090691
C12   C     C_3   0.949231 0.352961 0.527212 0.604751
C13   C     C_R   0.616660 0.655208 0.141447 -0.230174
C14   C     C_R   0.679147 0.716673 0.066228 0.118287
C15   C     C_R   0.692943 0.679936 0.929718 0.116169
C16   C     C_R   0.497358 0.737104 0.499292 0.777186
C17   C     C_R   0.644864 0.580936 0.874855 0.127496
C18   C     C_R   0.565987 0.554543 0.930141 0.103104
C19   C     C_R   0.559912 0.569419 0.076227 0.178340
C20   C     C_R   0.439938 0.437981 0.071465 -0.020104
C21   C     C_R   0.438136 0.442052 0.923382 -0.025327
C22   C     C_R   0.659592 0.500402 0.501601 0.816350
C23   C     C_3   0.916746 0.488991 0.498799 -0.067111
C24   C     C_3   0.050193 0.355459 0.535313 0.157283
C25   C     C_3   0.044135 0.524624 0.346864 0.153818
C26   C     C_3   0.947862 0.542845 0.356994 0.163934
C27   C     C_1   0.749158 0.498096 0.504096 -0.058901
C28   C     C_3   0.082983 0.489507 0.493298 -0.034024
C29   C     C_3   0.955969 0.575148 0.613242 -0.472758
C30   C     C_3   0.052605 0.584913 0.600348 -0.396702
C31   C     C_1   0.824549 0.494582 0.502698 0.156286
C32   C     C_1   0.175377 0.494818 0.492241 0.096994
C33   C     C_1   0.250899 0.497930 0.493796 -0.114221
C34   C     C_R   0.362334 0.123694 0.637285 -0.172720
Cl1   Cl    Cl    0.905751 0.249599 0.396392 -0.418271
Cl2   Cl    Cl    0.904105 0.291149 0.683692 -0.449020
Cl3   Cl    Cl    0.092301 0.661856 0.273232 -0.538464
Cl4   Cl    Cl    0.891879 0.486316 0.204289 -0.452301
Cu1   Cu    Cu3+1 0.499990 0.499990 0.640660 0.974792
Cu2   Cu    Cu3+1 0.500010 0.500010 0.359340 0.981183
H1    H     H_    0.929547 0.669885 0.602996 0.227274
H2    H     H_    0.387729 0.393886 0.866510 0.141764
H3    H     H_    0.055592 0.448674 0.273108 0.201704
H4    H     H_    0.935110 0.644212 0.355446 0.198118
H5    H     H_    0.083729 0.571464 0.704372 0.229122
H6    H     H_    0.070373 0.680795 0.566479 0.241502
H7    H     H_    0.940525 0.540142 0.718736 0.276277
H8    H     H_    0.600678 0.117384 0.372252 0.184425
H9    H     H_    0.358546 0.223791 0.637972 0.143667
H10   H     H_    0.249546 0.103621 0.753828 0.179667
H11   H     H_    0.248239 0.874471 0.749624 0.162757
H12   H     H_    0.356659 0.764318 0.630972 0.149646
H13   H     H_    0.600169 0.891597 0.370637 0.163332
H14   H     H_    0.391204 0.386347 0.124471 0.146665
H15   H     H_    0.613588 0.680121 0.247913 0.206781
I1    I     I_    0.104876 0.305739 0.740076 -0.231511
I2    I     I_    0.107487 0.215087 0.407620 -0.174029
I3    I     I_    0.756381 0.851684 0.170506 -0.170775
I4    I     I_    0.792840 0.755309 0.812169 -0.198882
I5    I     I_    0.719305 0.417974 0.870552 -0.092884
N1    N     N_R   0.500800 0.501210 0.147910 -0.181411
N2    N     N_R   0.500820 0.501290 0.852040 -0.187243
O1    O     O_R   0.499990 0.319640 0.618810 -0.569498
O2    O     O_R   0.500000 0.319660 0.381240 -0.570556
O3    O     O_R   0.379430 0.499990 0.618840 -0.598618
O4    O     O_R   0.379440 0.500020 0.381260 -0.562760
O5    O     O_R   0.500000 0.680340 0.618760 -0.577149
O6    O     O_R   0.500010 0.680360 0.381190 -0.594952
O7    O     O_R   0.620560 0.499980 0.618740 -0.563054
O8    O     O_R   0.620570 0.500010 0.381160 -0.574186

loop_
_geom_bond_atom_site_label_1
_geom_bond_atom_site_label_2
_ccdc_geom_bond_type
C8    C9    A    
C4    C33   S    
C5    H12   S    
C6    C7    A    
C16   O6    A    
C12   Cl2   S    
C1    C8    S    
Cu1   O1    S    
C9    C10   A    
C20   N1    A    
C22   O7    A    
Cu2   O2    S    
C30   H6    S    
Cu1   N2    S    
C3    C5    A    
C25   Cl3   S    
C32   C33   T    
C2    C34   A    
C28   C30   S    
C17   C18   A    
Cu1   O7    S    
C26   H4    S    
C7    C8    A    
C16   O5    A    
Cu2   O4    S    
C13   C14   A    
C12   Cl1   S    
C4    O4    A    
Cu1   O3    S    
C12   C23   S    
C25   H3    S    
C21   N2    A    
C29   C30   S    
Cu2   O8    S    
C29   H7    S    
C23   C29   S    
C2    H10   S    
C19   N1    A    
C2    C3    A    
C22   C27   S    
C6    C11   A    
C27   C31   T    
Cu2   O6    S    
C5    C6    A    
C14   I3    S    
C7    C34   A    
C24   I1    S    
C10   C11   A    
C13   C19   A    
C17   I5    S    
C25   C28   S    
C21   H2    S    
C1    O2    A    
C1    O1    A    
C28   C32   S    
C20   C21   A    
C9    H8    S    
C20   H14   S    
C18   C19   A    
C11   C16   S    
C23   C26   S    
Cu1   Cu2   S    
C15   C17   A    
C10   H13   S    
C12   C24   S    
C4    O3    A    
C26   Cl4   S    
C34   H9    S    
C3    H11   S    
C30   H5    S    
C29   H1    S    
C25   C26   S    
C14   C15   A    
C15   I4    S    
C22   O8    A    
C18   N2    A    
Cu2   N1    S    
C24   C28   S    
Cu1   O5    S    
C24   I2    S    
C13   H15   S    
C23   C31   S    
