data_mof_unit_50178.cif
_audit_creation_date              2012-10-26T19:45:00-0400
_audit_creation_method            fapswitch 2.2
_symmetry_space_group_name_H-M    P1
_symmetry_Int_Tables_number       1
_space_group_crystal_system       triclinic
_cell_length_a                    9.717577
_cell_length_b                    10.82166
_cell_length_c                    13.902769
_cell_angle_alpha                 100.756
_cell_angle_beta                  85.039148
_cell_angle_gamma                 90.750082
_cell_volume                      1430.94571299

loop_
_atom_site_label
_atom_site_type_symbol
_atom_type_description
_atom_site_fract_x
_atom_site_fract_y
_atom_site_fract_z
_atom_type_partial_charge
C1    C     C_R   0.500830 0.736844 0.498314 0.558960
C2    C     C_R   0.931308 0.414262 0.430392 0.292094
C3    C     C_1   0.535777 0.500473 0.214747 0.013334
C4    C     C_1   0.464223 0.498154 0.785122 0.023025
C5    C     C_2   0.557711 0.499944 0.024067 0.007282
C6    C     C_2   0.442319 0.496101 0.975488 0.007914
C7    C     C_1   0.453223 0.497249 0.871649 -0.011997
C8    C     C_1   0.546771 0.500181 0.128071 -0.012822
C9    C     C_R   0.572514 0.950624 0.566767 -0.090980
C10   C     C_R   0.431679 0.048847 0.431649 -0.067833
C11   C     C_R   0.571943 0.080219 0.571191 -0.021969
C12   C     C_R   0.499358 0.263137 0.501801 0.566299
C13   C     C_R   0.430273 0.919509 0.428189 -0.013810
C14   C     C_3   0.299577 0.490601 0.026863 -0.350216
C15   C     C_3   0.700428 0.506125 0.972897 -0.344844
C16   C     C_3   0.644854 0.163729 0.650407 -0.357798
C17   C     C_3   0.357294 0.836014 0.348996 -0.349199
C18   C     C_R   0.499856 0.129245 0.502860 0.040042
C19   C     C_R   0.501472 0.870567 0.496914 0.035371
C20   C     C_R   0.477588 0.498948 0.682351 0.577813
C21   C     C_R   0.522413 0.500798 0.317636 0.567275
C22   C     C_R   0.918085 0.586302 0.569149 0.295826
C23   C     C_R   0.081646 0.412984 0.431555 0.297674
C24   C     C_R   0.068787 0.587883 0.567913 0.288638
Cu1   Cu    Cu3+1 0.359340 0.499980 0.500000 1.145621
Cu2   Cu    Cu3+1 0.640660 0.500020 0.500000 1.147990
H1    H     H_    0.626201 0.912547 0.619467 0.185206
H2    H     H_    0.781341 0.505342 0.024599 0.161130
H3    H     H_    0.717998 0.423838 0.912144 0.147091
H4    H     H_    0.711317 0.594086 0.942680 0.185986
H5    H     H_    0.571882 0.235447 0.693501 0.114192
H6    H     H_    0.685310 0.109329 0.702257 0.138930
H7    H     H_    0.733867 0.210966 0.617139 0.182407
H8    H     H_    0.430010 0.763831 0.306229 0.111772
H9    H     H_    0.267832 0.789363 0.382286 0.190322
H10   H     H_    0.317405 0.890299 0.296865 0.149924
H11   H     H_    0.382576 0.086425 0.376776 0.197737
H12   H     H_    0.842712 0.885055 0.746337 0.364046
H13   H     H_    0.163921 0.195824 0.194387 0.368337
H14   H     H_    0.332748 0.805582 0.709124 0.350656
H15   H     H_    0.670511 0.233429 0.260890 0.350822
H16   H     H_    0.218766 0.487703 0.974604 0.156338
H17   H     H_    0.289412 0.404802 0.060021 0.171049
H18   H     H_    0.281109 0.575089 0.085511 0.149180
N1    N     N_R   0.147930 0.499970 0.499980 -0.327987
N2    N     N_R   0.852070 0.500030 0.500020 -0.328664
O1    O     O_R   0.381260 0.680340 0.500000 -0.454317
O2    O     O_2   0.837005 0.644828 0.762224 -0.285110
O3    O     O_3   0.880652 0.841351 0.680501 -0.457717
O4    O     O_2   0.330261 0.288392 0.332137 -0.294834
O5    O     O_2   0.138719 0.166465 0.380294 -0.280394
O6    O     O_3   0.132142 0.279635 0.230662 -0.460290
O7    O     O_2   0.130412 0.833279 0.607184 -0.252573
O8    O     O_2   0.077783 0.735970 0.751642 -0.218589
O9    O     O_3   0.315364 0.719277 0.673649 -0.487646
O10   O     O_2   0.887293 0.370351 0.239129 -0.267279
O11   O     O_2   0.913949 0.181547 0.308861 -0.211555
O12   O     O_R   0.618740 0.319660 0.500000 -0.460501
O13   O     O_3   0.684253 0.278557 0.328242 -0.489551
O14   O     O_R   0.618830 0.680370 0.500010 -0.460972
O15   O     O_R   0.381170 0.319630 0.499990 -0.453415
O16   O     O_R   0.364420 0.499960 0.637840 -0.447207
O17   O     O_R   0.635580 0.500040 0.362160 -0.436907
O18   O     O_R   0.601990 0.499990 0.637850 -0.454302
O19   O     O_R   0.398010 0.500010 0.362150 -0.462775
O20   O     O_2   0.669345 0.712189 0.667156 -0.290330
S1    S     S_3+6 0.820363 0.693485 0.669388 0.080475
S2    S     S_3+6 0.176706 0.287108 0.345805 0.074715
S3    S     S_3+6 0.149297 0.717470 0.650001 0.103603
S4    S     S_3+6 0.853094 0.311246 0.327924 0.105308

loop_
_geom_bond_atom_site_label_1
_geom_bond_atom_site_label_2
_ccdc_geom_bond_type
C23   S2    S    
C20   O18   A    
C5    C8    S    
Cu2   O17   S    
C11   C18   A    
O3    S1    S    
C6    C7    S    
C23   N1    A    
C17   H10   S    
O11   S4    D    
C6    C14   S    
Cu2   O12   S    
C11   C16   S    
Cu1   O1    S    
O6    S2    S    
C13   C17   S    
C14   H16   S    
H14   O9    S    
C12   O12   A    
H13   O6    S    
O7    S3    D    
H12   O3    S    
Cu1   O15   S    
C2    N2    A    
C16   H5    S    
C12   O15   A    
C9    C11   A    
C9    H1    S    
C15   H2    S    
O9    S3    S    
O8    S3    D    
O4    S2    D    
C10   C18   A    
C4    C7    T    
Cu2   N2    S    
C24   N1    A    
O5    S2    D    
C22   N2    A    
C24   S3    S    
C15   H3    S    
O10   S4    D    
Cu1   O16   S    
C10   H11   S    
O2    S1    D    
C20   O16   A    
C5    C6    D    
C16   H7    S    
C22   C24   A    
C22   S1    S    
C5    C15   S    
C3    C21   S    
C17   H8    S    
C13   C19   A    
O13   S4    S    
C4    C20   S    
Cu1   N1    S    
O20   S1    D    
H15   O13   S    
C15   H4    S    
C14   H18   S    
C3    C8    T    
C1    O14   A    
C12   C18   S    
C2    C23   A    
Cu1   O19   S    
Cu2   O18   S    
C16   H6    S    
C1    O1    A    
C17   H9    S    
C21   O19   A    
Cu1   Cu2   S    
C2    S4    S    
C1    C19   S    
Cu2   O14   S    
C9    C19   A    
C21   O17   A    
C14   H17   S    
C10   C13   A    
