data_mof_unit_52857.cif
_audit_creation_date              2012-12-10T17:29:17-0500
_audit_creation_method            fapswitch 2.2
_symmetry_space_group_name_H-M    P1
_symmetry_Int_Tables_number       1
_space_group_crystal_system       triclinic
_cell_length_a                    12.110537
_cell_length_b                    12.885011
_cell_length_c                    13.094911
_cell_angle_alpha                 85.737571
_cell_angle_beta                  114.064366
_cell_angle_gamma                 93.707446
_cell_volume                      1859.30715171

loop_
_atom_site_label
_atom_site_type_symbol
_atom_type_description
_atom_site_fract_x
_atom_site_fract_y
_atom_site_fract_z
_atom_type_partial_charge
C1    C     C_R   0.477281 0.299693 0.497996 0.887063
C2    C     C_R   0.561090 0.519555 0.989180 0.101369
C3    C     C_R   0.541029 0.548182 0.877552 0.079936
C4    C     C_R   0.467687 0.532861 0.024981 0.039659
C5    C     C_R   0.371638 0.598694 0.959653 0.115928
C6    C     C_R   0.364854 0.642794 0.856889 -0.202799
C7    C     C_R   0.447596 0.616871 0.815462 -0.180728
C8    C     C_R   0.464426 0.480875 0.121852 -0.145566
C9    C     C_R   0.294236 0.581620 0.104566 0.450320
C10   C     C_R   0.615490 0.507578 0.831690 -0.174481
C11   C     C_R   0.537784 0.811629 0.505430 -0.094494
C12   C     C_R   0.568296 0.500086 0.709254 0.850345
C13   C     C_R   0.464429 0.188156 0.497764 -0.093390
C14   C     C_R   0.362080 0.027688 0.519565 -0.177746
C15   C     C_R   0.367313 0.135410 0.513088 -0.176200
C16   C     C_R   0.554841 0.133999 0.486660 -0.204816
C17   C     C_R   0.551663 0.026692 0.494268 0.122443
C18   C     C_R   0.454013 0.973418 0.510866 0.107946
C19   C     C_R   0.448715 0.866479 0.517493 -0.268991
C20   C     C_R   0.636579 0.863410 0.492241 -0.303826
C21   C     C_R   0.644390 0.971980 0.486221 0.440269
C22   C     C_R   0.013721 0.609263 0.408151 -0.354476
C23   C     C_R   0.523135 0.700252 0.502866 0.916175
C24   C     C_R   0.131904 0.599397 0.416604 0.057994
C25   C     C_R   0.153568 0.447244 0.536561 0.499137
C26   C     C_R   0.034031 0.456025 0.532081 0.013694
C27   C     C_R   0.963365 0.538563 0.466054 -0.047142
C28   C     C_R   0.843764 0.548131 0.459540 0.096241
C29   C     C_R   0.864543 0.400160 0.583326 -0.058524
C30   C     C_R   0.981966 0.385744 0.591541 -0.093137
C31   C     C_R   0.432433 0.504049 0.290854 0.924557
C32   C     C_R   0.283443 0.619546 0.997831 -0.305212
C33   C     C_R   0.390616 0.517130 0.169130 -0.152494
C34   C     C_R   0.727860 0.465709 0.905318 -0.005856
C35   C     C_R   0.758891 0.459182 0.020391 -0.175894
C36   C     C_R   0.675756 0.483702 0.062019 -0.186882
H1    H     H_    0.706194 0.819823 0.484838 0.169805
H2    H     H_    0.287015 0.986923 0.532016 0.145642
H3    H     H_    0.297073 0.177107 0.521849 0.197005
H4    H     H_    0.628807 0.175667 0.473164 0.219494
H5    H     H_    0.824644 0.345978 0.627085 0.159197
H6    H     H_    0.962077 0.673775 0.356879 0.166312
H7    H     H_    0.293724 0.695231 0.807138 0.146556
H8    H     H_    0.209533 0.668985 0.946890 0.142346
H9    H     H_    0.703814 0.477557 0.151838 0.159802
H10   H     H_    0.846093 0.431070 0.078123 0.162292
H11   H     H_    0.439574 0.653465 0.735784 0.164352
H12   H     H_    0.373656 0.826099 0.530456 0.164583
N1    N     N_R   0.798200 0.480260 0.519790 -0.122162
N2    N     N_R   0.201820 0.519740 0.480210 -0.167245
O1    O     O_R   0.579910 0.341070 0.505280 -0.627809
O2    O     O_R   0.388440 0.353740 0.492580 -0.626501
O3    O     O_R   0.643280 0.490550 0.663120 -0.602305
O4    O     O_R   0.451810 0.503220 0.650420 -0.646235
O5    O     O_R   0.611560 0.646260 0.507420 -0.619833
O6    O     O_R   0.420090 0.658930 0.494720 -0.636339
O7    O     O_R   0.548190 0.496780 0.349580 -0.616104
O8    O     O_R   0.356720 0.509450 0.336880 -0.553294
Zn1   Zn    Zn3+2 0.627850 0.491540 0.508480 0.963952
Zn2   Zn    Zn3+2 0.372150 0.508460 0.491520 0.968365
O9    O     O_3   0.212991 0.607127 0.147039 -0.751996
H13   H     H_    0.150891 0.651843 0.090572 0.332237
O10   O     O_3   0.740158 0.025529 0.471791 -0.778245
H14   H     H_    0.796372 0.974878 0.467795 0.338413
C37   C     C_1   0.766622 0.627034 0.385598 0.205482
N3    N     N_1   0.705079 0.690025 0.325380 -0.218455
C38   C     C_1   0.044379 0.298414 0.662838 0.309908
N4    N     N_1   0.093901 0.228343 0.720103 -0.169786
C39   C     C_1   0.177493 0.676850 0.357371 0.299112
N5    N     N_1   0.212704 0.740643 0.309856 -0.177648
O11   O     O_3   0.217915 0.362798 0.596281 -0.795972
H15   H     H_    0.303995 0.378421 0.616940 0.385717
C40   C     C_1   0.523482 0.382806 0.166492 0.196450
N6    N     N_1   0.570089 0.304628 0.202236 -0.180019
C41   C     C_1   0.814032 0.428886 0.867415 0.207462
N7    N     N_1   0.884206 0.399319 0.838434 -0.214961

loop_
_geom_bond_atom_site_label_1
_geom_bond_atom_site_label_2
_ccdc_geom_bond_type
O5    Zn1   S    
C40   N6    T    
C14   C18   A    
C35   C36   A    
C4    C8    A    
O3    Zn1   S    
C23   O6    A    
C29   N1    A    
C11   C19   A    
C26   C27   A    
C9    O9    S    
C31   O8    A    
C18   C19   A    
C3    C7    A    
C5    C6    A    
O7    Zn1   S    
O8    Zn2   S    
C34   C35   A    
C25   N2    A    
O2    Zn2   S    
C9    C32   A    
C16   C17   A    
C31   C33   S    
C25   O11   S    
C30   C38   S    
C34   C41   S    
C5    C32   A    
C9    C33   A    
C39   N5    T    
C24   C39   S    
C24   N2    A    
C11   C20   A    
C38   N4    T    
C19   H12   S    
O4    Zn2   S    
C25   C26   A    
C17   C21   A    
O6    Zn2   S    
C7    H11   S    
C2    C4    A    
C41   N7    T    
C29   C30   A    
C14   H2    S    
C28   N1    A    
C17   C18   A    
C32   H8    S    
C36   H9    S    
C10   C34   A    
C1    O1    A    
C15   H3    S    
C10   C12   S    
C16   H4    S    
C26   C30   A    
C22   C27   A    
C13   C15   A    
C22   C24   A    
O1    Zn1   S    
C2    C36   A    
C29   H5    S    
C12   O3    A    
C4    C5    A    
C23   O5    A    
C6    C7    A    
N1    Zn1   S    
C6    H7    S    
N2    Zn2   S    
C31   O7    A    
C2    C3    A    
O11   H15   S    
C3    C10   A    
C20   H1    S    
C22   H6    S    
C11   C23   S    
C8    C40   S    
C28   C37   S    
C8    C33   A    
O9    H13   S    
C1    O2    A    
C21   O10   S    
O10   H14   S    
C1    C13   S    
C20   C21   A    
C37   N3    T    
C13   C16   A    
C27   C28   A    
C14   C15   A    
C35   H10   S    
C12   O4    A    
