data_mof_unit_25965.cif
_audit_creation_date              2012-10-26T19:42:14-0400
_audit_creation_method            fapswitch 2.2
_symmetry_space_group_name_H-M    P1
_symmetry_Int_Tables_number       1
_space_group_crystal_system       triclinic
_cell_length_a                    9.622696
_cell_length_b                    10.853984
_cell_length_c                    17.313719
_cell_angle_alpha                 92.427485
_cell_angle_beta                  86.124482
_cell_angle_gamma                 92.184337
_cell_volume                      1801.44250033

loop_
_atom_site_label
_atom_site_type_symbol
_atom_type_description
_atom_site_fract_x
_atom_site_fract_y
_atom_site_fract_z
_atom_type_partial_charge
C1    C     C_R   0.502882 0.737164 0.495253 0.558005
C2    C     C_R   0.527673 0.476045 0.265826 0.035837
C3    C     C_R   0.301815 0.872301 0.409187 0.006448
C4    C     C_R   0.481749 0.501250 0.649714 0.548724
C5    C     C_R   0.168804 0.916723 0.405564 -0.127771
C6    C     C_R   0.131866 0.023302 0.447971 -0.018502
C7    C     C_R   0.233708 0.095631 0.484414 -0.120845
C8    C     C_R   0.371293 0.054240 0.485032 -0.005257
C9    C     C_R   0.395120 0.931235 0.460059 0.009434
C10   C     C_R   0.507204 0.871425 0.489621 -0.004824
C11   C     C_R   0.608790 0.941018 0.528063 -0.128771
C12   C     C_R   0.359638 0.424749 0.768575 -0.138975
C13   C     C_R   0.600599 0.068417 0.536099 -0.116768
C14   C     C_R   0.485647 0.127353 0.511414 -0.005199
C15   C     C_R   0.864382 0.348980 0.389644 -0.058841
C16   C     C_R   0.495798 0.262352 0.505001 0.532916
C17   C     C_R   0.941223 0.282715 0.332343 -0.144706
C18   C     C_R   0.084038 0.279847 0.334296 -0.171169
C19   C     C_R   0.150718 0.345605 0.392447 -0.101500
C20   C     C_R   0.078165 0.424589 0.446768 0.149931
C21   C     C_R   0.928973 0.425396 0.446167 0.160815
C22   C     C_R   0.923320 0.572830 0.550091 -0.000536
C23   C     C_R   0.415615 0.420561 0.147830 -0.097155
C24   C     C_R   0.070986 0.572781 0.550154 0.004379
C25   C     C_R   0.518123 0.493240 0.350277 0.550376
C26   C     C_R   0.469794 0.496073 0.734149 -0.009045
C27   C     C_R   0.565697 0.559410 0.780947 -0.017996
C28   C     C_R   0.553364 0.546165 0.860757 -0.118282
C29   C     C_R   0.445710 0.471753 0.894860 0.011671
C30   C     C_R   0.346399 0.412910 0.848563 0.003597
C31   C     C_1   0.672016 0.644396 0.749753 0.210092
C32   C     C_1   0.348922 0.785880 0.348663 0.218797
C33   C     C_1   0.990339 0.060097 0.450751 0.191189
C34   C     C_R   0.409104 0.436296 0.227804 -0.112777
C35   C     C_1   0.232639 0.337156 0.881560 0.189498
C36   C     C_R   0.654573 0.496562 0.222685 -0.122682
C37   C     C_R   0.660600 0.482980 0.142145 -0.108704
C38   C     C_R   0.540341 0.448108 0.104086 0.045503
C39   C     C_2   0.434274 0.460957 0.979225 -0.121816
C40   C     C_2   0.547077 0.446464 0.018958 -0.128969
Cu1   Cu    Cu3+1 0.359340 0.500010 0.500010 0.936681
Cu2   Cu    Cu3+1 0.640660 0.499990 0.499990 0.953033
H1    H     H_    0.758236 0.503048 0.109428 0.111973
H2    H     H_    0.143116 0.222198 0.292444 0.122547
H3    H     H_    0.258755 0.329514 0.393173 0.179105
H4    H     H_    0.123466 0.632733 0.591292 0.133077
H5    H     H_    0.748072 0.525724 0.250918 0.131986
H6    H     H_    0.649054 0.441163 0.988117 0.128877
H7    H     H_    0.322349 0.387375 0.121022 0.110782
H8    H     H_    0.285033 0.376446 0.732823 0.135564
H9    H     H_    0.331230 0.467560 0.008114 0.133238
H10   H     H_    0.626010 0.596550 0.896735 0.123236
H11   H     H_    0.694298 0.896965 0.552224 0.150833
H12   H     H_    0.094570 0.868952 0.369303 0.122719
H13   H     H_    0.201169 0.178575 0.516005 0.154706
H14   H     H_    0.683483 0.121291 0.562882 0.164167
H15   H     H_    0.866099 0.633275 0.590666 0.150918
H16   H     H_    0.755087 0.333111 0.388228 0.185512
H17   H     H_    0.888654 0.227078 0.289020 0.131435
H18   H     H_    0.310748 0.417692 0.259692 0.126364
N1    N     N_R   0.852190 0.498790 0.499250 -0.251555
N2    N     N_R   0.148060 0.498710 0.499220 -0.251843
N3    N     N_1   0.756895 0.713416 0.725478 -0.324137
N4    N     N_1   0.385698 0.719825 0.297953 -0.296420
N5    N     N_1   0.875873 0.088591 0.452267 -0.323667
N6    N     N_1   0.141508 0.276500 0.908004 -0.297756
O1    O     O_R   0.381190 0.680360 0.500010 -0.494369
O2    O     O_R   0.618760 0.680340 0.500000 -0.498695
O3    O     O_R   0.367440 0.500030 0.613600 -0.508162
O4    O     O_R   0.605010 0.500010 0.613590 -0.489818
O5    O     O_R   0.381240 0.319660 0.500000 -0.542033
O6    O     O_R   0.618810 0.319640 0.499990 -0.511787
O7    O     O_R   0.394990 0.499990 0.386410 -0.508997
O8    O     O_R   0.632560 0.499970 0.386400 -0.533636

loop_
_geom_bond_atom_site_label_1
_geom_bond_atom_site_label_2
_ccdc_geom_bond_type
C39   H9    S    
C11   C13   A    
Cu1   Cu2   S    
C19   C20   A    
C16   O6    A    
C7    H13   S    
C22   H15   S    
C4    O4    A    
C33   N5    T    
C7    C8    A    
Cu1   O1    S    
C26   C27   A    
C29   C30   A    
C30   C35   S    
C36   C37   A    
C25   O8    A    
C5    C6    A    
C23   H7    S    
Cu2   O4    S    
C1    O2    A    
C36   H5    S    
C40   H6    S    
C18   C19   A    
C8    C9    A    
C8    C14   A    
C14   C16   S    
C9    C10   A    
C21   N1    A    
C11   H11   S    
Cu1   O5    S    
C13   H14   S    
C2    C34   A    
C13   C14   A    
C34   H18   S    
C16   O5    A    
Cu1   N2    S    
C4    O3    A    
Cu2   O8    S    
C27   C31   S    
C31   N3    T    
C5    H12   S    
C32   N4    T    
C39   C40   D    
C35   N6    T    
C12   C26   A    
C37   H1    S    
C37   C38   A    
C3    C9    A    
C18   H2    S    
C12   H8    S    
C23   C34   A    
C29   C39   S    
Cu2   O6    S    
C17   C18   A    
Cu2   N1    S    
C17   H17   S    
C15   H16   S    
C22   C24   A    
Cu1   O3    S    
C2    C36   A    
C15   C17   A    
C28   C29   A    
C24   N2    A    
C12   C30   A    
C1    C10   S    
C3    C5    A    
C4    C26   S    
C19   H3    S    
C6    C7    A    
C23   C38   A    
C6    C33   S    
C24   H4    S    
C22   N1    A    
C38   C40   S    
C28   H10   S    
C1    O1    A    
C2    C25   S    
C25   O7    A    
Cu2   O2    S    
C20   N2    A    
C3    C32   S    
C10   C11   A    
Cu1   O7    S    
C15   C21   A    
C20   C21   A    
C27   C28   A    
