data_mof_unit_43348.cif
_audit_creation_date              2013-03-05T16:02:59-0500
_audit_creation_method            fapswitch 2.2
_symmetry_space_group_name_H-M    P1
_symmetry_Int_Tables_number       1
_space_group_crystal_system       triclinic
_cell_length_a                    14.986672
_cell_length_b                    14.018826
_cell_length_c                    10.639264
_cell_angle_alpha                 90.169548
_cell_angle_beta                  90.279378
_cell_angle_gamma                 90.096061
_cell_volume                      2235.22243536

loop_
_atom_site_label
_atom_site_type_symbol
_atom_site_description
_atom_site_fract_x
_atom_site_fract_y
_atom_site_fract_z
_atom_type_partial_charge
O1    O     O_R   0.367850 0.580280 0.500030 -0.626737
O2    O     O_R   0.632150 0.419720 0.499970 -0.625500
O3    O     O_R   0.632150 0.580280 0.499970 -0.606695
O4    O     O_R   0.367850 0.419720 0.500030 -0.623514
C1    C     C_R   0.326744 0.499503 0.498269 0.941383
C2    C     C_R   0.673158 0.499772 0.495759 0.971294
O5    O     O_R   0.499970 0.580260 0.313950 -0.599283
O6    O     O_R   0.500030 0.419740 0.686050 -0.589954
O7    O     O_R   0.500030 0.580260 0.686050 -0.611467
O8    O     O_R   0.499970 0.419740 0.313950 -0.587503
C3    C     C_R   0.496392 0.499848 0.257772 1.073348
C4    C     C_R   0.506187 0.500802 0.742351 1.097905
Zn1   Zn    Zn3+2 0.500000 0.607200 0.500000 1.046597
Zn2   Zn    Zn3+2 0.500000 0.392800 0.500000 1.057067
C5    C     C_3   0.475347 0.587169 0.043196 0.105132
C6    C     C_3   0.533680 0.418097 0.961082 0.117910
C7    C     C_3   0.561109 0.572443 0.968203 0.152968
C8    C     C_3   0.446866 0.434186 0.033236 0.174541
C9    C     C_3   0.423694 0.521632 0.951875 0.362320
C10   C     C_3   0.585111 0.485604 0.050345 0.350283
C11   C     C_3   0.510156 0.504233 0.876908 -0.425350
C12   C     C_3   0.498035 0.500116 0.124117 -0.346533
C13   C     C_R   0.812757 0.450261 0.401734 -0.239750
C14   C     C_R   0.186340 0.524543 0.603893 -0.232552
C15   C     C_R   0.768838 0.497732 0.498348 -0.169745
C16   C     C_R   0.230999 0.496422 0.496517 -0.163086
C17   C     C_R   0.815046 0.537013 0.600449 0.291701
C18   C     C_R   0.185577 0.454438 0.395406 0.278537
C19   C     C_R   0.907788 0.528790 0.605484 -0.044138
C20   C     C_R   0.092523 0.446515 0.399769 -0.046891
C21   C     C_R   0.953212 0.484713 0.504462 0.016824
C22   C     C_R   0.046511 0.483396 0.504839 0.012963
C23   C     C_R   0.905452 0.442674 0.403013 0.010498
C24   C     C_R   0.093985 0.520152 0.609604 0.018076
C25   C     C_R   0.955550 0.560341 0.711468 -0.194079
C26   C     C_R   0.044800 0.403226 0.301391 -0.179252
C27   C     C_R   0.048002 0.553910 0.715988 0.300547
C28   C     C_R   0.951993 0.396765 0.304441 0.269732
H1    H     H_    0.773486 0.422387 0.324405 0.225880
H2    H     H_    0.224664 0.548680 0.682744 0.200011
H3    H     H_    0.921439 0.587550 0.793469 0.221063
H4    H     H_    0.079487 0.371777 0.222616 0.245373
C29   C     C_R   0.567585 0.797981 0.442594 0.095430
C30   C     C_R   0.431726 0.202037 0.555875 0.074847
C31   C     C_R   0.432689 0.797973 0.558225 0.056637
C32   C     C_R   0.568782 0.201966 0.445386 0.082786
N1    N     N_R   0.500000 0.750030 0.500000 -0.125494
N2    N     N_R   0.500000 0.249970 0.500000 -0.129365
C33   C     C_R   0.430719 0.898750 0.559805 -0.106748
C34   C     C_R   0.571096 0.101217 0.444944 -0.113089
C35   C     C_R   0.569828 0.898722 0.441902 -0.105604
C36   C     C_R   0.429688 0.101268 0.557273 -0.113238
C37   C     C_R   0.500176 0.949412 0.500643 -0.045215
C38   C     C_R   0.500206 0.050567 0.500688 -0.045643
C39   C     C_R   0.361538 0.949630 0.619652 0.408288
C40   C     C_R   0.642811 0.050278 0.391486 0.411565
C41   C     C_R   0.640090 0.949515 0.384679 0.386901
C42   C     C_R   0.359088 0.050439 0.613797 0.412977
H5    H     H_    0.619820 0.757215 0.397755 0.175401
H6    H     H_    0.378998 0.242828 0.599493 0.177582
H7    H     H_    0.380572 0.757198 0.603298 0.154834
H8    H     H_    0.621757 0.242627 0.402119 0.185456
O9    O     O_3   0.340341 0.540843 0.893992 -0.534887
C43   C     C_3   0.332164 0.640007 0.871015 -0.096329
H9    H     H_    0.396032 0.674745 0.843720 0.137562
H10   H     H_    0.302595 0.675865 0.953760 0.227859
H11   H     H_    0.285616 0.653647 0.792919 0.145896
O10   O     O_3   0.664808 0.466921 0.117041 -0.620948
C44   C     C_3   0.737068 0.462146 0.033622 -0.036450
H12   H     H_    0.748014 0.530560 0.984708 0.208758
H13   H     H_    0.729647 0.402359 0.965887 0.217816
H14   H     H_    0.798296 0.449639 0.088969 0.193336
N3    N     N_R   0.443827 0.677460 0.095906 0.222090
O11   O     O_R   0.485308 0.756823 0.072020 -0.381592
O12   O     O_R   0.374067 0.678768 0.168192 -0.341385
N4    N     N_R   0.567463 0.324961 0.921945 0.246734
O13   O     O_R   0.569553 0.255752 0.002962 -0.296635
O14   O     O_R   0.614191 0.317040 0.819800 -0.364888
N5    N     N_R   0.619189 0.651920 0.934960 0.291011
O15   O     O_R   0.672326 0.687322 0.020165 -0.370185
O16   O     O_R   0.599312 0.703800 0.837706 -0.301791
N6    N     N_R   0.385530 0.357643 0.066031 0.291778
O17   O     O_R   0.309840 0.349329 0.006666 -0.234587
O18   O     O_R   0.410906 0.290599 0.142392 -0.290583
N7    N     N_R   0.766865 0.580384 0.701358 0.191058
O19   O     O_R   0.705236 0.532062 0.758321 -0.450251
O20   O     O_R   0.779226 0.669898 0.729117 -0.324514
N8    N     N_R   0.234188 0.421824 0.288290 0.203732
O21   O     O_R   0.277070 0.482812 0.219156 -0.335298
O22   O     O_R   0.241738 0.330857 0.266543 -0.337086
N9    N     N_R   0.093736 0.580922 0.829527 0.191990
O23   O     O_R   0.070340 0.657906 0.889417 -0.360583
O24   O     O_R   0.145095 0.519538 0.885822 -0.290173
N10   N     N_R   0.907300 0.342118 0.208092 0.184658
O25   O     O_R   0.940726 0.337627 0.095515 -0.359854
O26   O     O_R   0.843273 0.283591 0.237284 -0.374455
O27   O     O_3   0.293082 0.900958 0.678197 -0.610160
C45   C     C_3   0.313469 0.894515 0.807425 -0.197867
H15   H     H_    0.314896 0.966202 0.852546 0.221207
H16   H     H_    0.377982 0.857110 0.823688 0.151531
H17   H     H_    0.260446 0.852274 0.853876 0.201557
O28   O     O_3   0.715145 0.098515 0.342251 -0.572290
C46   C     C_3   0.781163 0.105553 0.436853 -0.137138
H18   H     H_    0.802202 0.034056 0.471230 0.179939
H19   H     H_    0.757822 0.150350 0.516710 0.141402
H20   H     H_    0.841058 0.140360 0.396919 0.225266
O29   O     O_3   0.710059 0.900815 0.329830 -0.618275
C47   C     C_3   0.693560 0.894545 0.199508 -0.102603
H21   H     H_    0.692148 0.966359 0.155255 0.199049
H22   H     H_    0.630272 0.855631 0.179310 0.192469
H23   H     H_    0.748607 0.853741 0.155556 0.223120
O30   O     O_3   0.289751 0.099052 0.670362 -0.590841
C48   C     C_3   0.219978 0.108683 0.581945 -0.184092
H24   H     H_    0.192992 0.037902 0.552979 0.194696
H25   H     H_    0.241866 0.149622 0.497981 0.158469
H26   H     H_    0.164848 0.149105 0.626325 0.204526

loop_
_geom_bond_atom_site_label_1
_geom_bond_atom_site_label_2
_geom_bond_distance
_ccdc_geom_bond_type
C6    C11   1.545693 S    
C1    C16   1.435503 S    
C17   C19   1.395646 A    
C24   C27   1.409067 A    
N3    O11   1.299920 A    
C26   H4    1.081595 S    
O3    C2    1.286772 A    
O27   C45   1.410167 S    
N7    O19   1.298092 A    
C40   C41   1.414722 A    
O5    C3    1.275289 A    
C34   C38   1.410924 A    
C32   H8    1.082006 S    
C42   O30   1.382921 S    
C6    C10   1.541662 S    
C9    C11   1.544250 S    
C14   C16   1.383518 A    
C33   C37   1.410926 A    
C2    C15   1.434388 S    
C7    N5    1.458150 S    
C7    C10   1.542676 S    
C47   H21   1.112855 S    
C17   N7    1.431375 S    
C8    C9    1.541905 S    
C31   H7    1.081921 S    
C44   H13   1.108833 S    
O7    Zn1   2.016237 S    
C8    N6    1.456079 S    
C5    C12   1.533272 S    
C9    O9    1.416628 S    
O10   C44   1.405051 S    
C13   C23   1.393437 A    
C18   N8    1.429930 S    
O29   C47   1.409678 S    
C21   C23   1.418409 A    
C35   C41   1.411651 A    
O3    Zn1   2.016747 S    
C29   H5    1.081902 S    
C48   H26   1.109275 S    
C30   C36   1.413063 A    
C31   N1    1.363438 A    
C8    C12   1.536993 S    
N3    O12   1.301016 A    
C28   N10   1.439875 S    
O2    C2    1.279604 A    
O2    Zn2   2.015504 S    
O30   C48   1.410027 S    
C36   C38   1.410922 A    
N7    O20   1.301060 A    
C32   N2    1.363421 A    
C27   N9    1.435523 S    
O28   C46   1.411043 S    
C43   H11   1.099698 S    
N4    O13   1.300040 A    
O8    Zn2   2.016238 S    
N9    O23   1.301181 A    
N5    O16   1.300190 A    
Zn2   N2    2.002310 S    
C33   C39   1.412575 A    
C4    C11   1.433193 S    
C14   C24   1.386989 A    
O9    C43   1.417602 S    
C35   C37   1.411168 A    
C22   C24   1.414831 A    
C44   H14   1.102434 S    
C5    C9    1.540243 S    
N9    O24   1.300949 A    
C21   C22   1.398376 A    
C31   C33   1.413188 A    
O6    C4    1.285998 A    
C39   O27   1.382920 S    
N10   O25   1.301920 A    
C46   H19   1.113138 S    
N10   O26   1.300835 A    
C36   C42   1.412482 A    
C41   O29   1.382840 S    
N8    O22   1.300614 A    
N6    O17   1.300528 A    
N6    O18   1.300283 A    
O1    C1    1.288262 A    
O1    Zn1   2.015506 S    
C10   C12   1.539587 S    
C25   C27   1.389230 A    
Zn1   N1    2.002309 S    
C48   H24   1.112999 S    
C5    C7    1.530061 S    
C19   C25   1.402700 A    
O6    Zn2   2.014041 S    
C5    N3    1.462941 S    
C6    N4    1.461343 S    
C16   C18   1.398137 A    
C10   O10   1.411593 S    
N4    O14   1.300283 A    
O4    C1    1.277948 A    
C37   C38   1.418074 A    
C15   C17   1.396659 A    
C45   H17   1.109205 S    
C32   C34   1.412863 A    
C3    C12   1.422340 S    
C45   H16   1.113675 S    
C23   C28   1.416040 A    
C47   H23   1.109152 S    
C20   C26   1.401003 A    
C43   H9    1.113389 S    
C26   C28   1.394215 A    
C40   O28   1.382750 S    
C19   C21   1.416000 A    
C20   C22   1.413418 A    
C29   C35   1.412655 A    
C30   H6    1.081820 S    
C13   H1    1.081002 S    
C18   C20   1.399800 A    
C14   H2    1.068235 S    
C47   H22   1.113090 S    
C46   H20   1.108075 S    
C13   C15   1.391655 A    
O4    Zn2   2.016748 S    
C44   H12   1.104911 S    
C25   H3    1.082132 S    
O7    C4    1.269586 A    
C34   C40   1.412325 A    
O8    C3    1.274812 A    
N5    O15   1.300470 A    
O5    Zn1   2.014043 S    
N8    O21   1.300575 A    
C6    C8    1.530562 S    
C45   H15   1.112585 S    
C39   C42   1.415306 A    
C46   H18   1.113507 S    
C29   N1    1.362724 A    
C30   N2    1.363032 A    
C43   H10   1.107258 S    
C48   H25   1.113664 S    
C7    C11   1.557471 S    
