data_mof_unit_37096.cif
_audit_creation_date              2012-12-11T15:50:39-0500
_audit_creation_method            fapswitch 2.2
_symmetry_space_group_name_H-M    P1
_symmetry_Int_Tables_number       1
_space_group_crystal_system       triclinic
_cell_length_a                    18.95596
_cell_length_b                    11.02419
_cell_length_c                    18.781296
_cell_angle_alpha                 89.864528
_cell_angle_beta                  90.761699
_cell_angle_gamma                 90.026629
_cell_volume                      3924.44635854

loop_
_atom_site_label
_atom_site_type_symbol
_atom_type_description
_atom_site_fract_x
_atom_site_fract_y
_atom_site_fract_z
_atom_type_partial_charge
C1    C     C_R   0.272257 0.040910 0.853735 0.548602
C2    C     C_R   0.754806 0.572364 0.926248 0.012285
C3    C     C_R   0.227888 0.541746 0.354915 0.557695
C4    C     C_R   0.470991 0.823082 0.647808 0.528501
C5    C     C_R   0.532464 0.824225 0.354143 0.561420
C6    C     C_R   0.970993 0.323082 0.647811 0.528498
C7    C     C_R   0.032474 0.324225 0.354146 0.561431
C8    C     C_R   0.258792 0.635013 0.645025 0.582122
C9    C     C_R   0.738762 0.638064 0.356906 0.564936
C10   C     C_R   0.758789 0.135003 0.645030 0.582122
C11   C     C_R   0.238757 0.138079 0.356912 0.564924
C12   C     C_3   0.483210 0.911554 0.030966 -0.101724
C13   C     C_R   0.736155 0.057309 0.067912 0.014871
C14   C     C_3   0.531967 0.940216 0.967593 -0.112973
C15   C     C_3   0.983209 0.411555 0.030966 -0.101724
C16   C     C_3   0.031966 0.440216 0.967593 -0.112974
C17   C     C_3   0.451311 0.803653 0.989730 -0.118479
C18   C     C_3   0.589146 0.854420 0.999811 -0.137410
C19   C     C_3   0.951311 0.303653 0.989730 -0.118479
C20   C     C_3   0.089146 0.354420 0.999811 -0.137413
C21   C     C_3   0.500603 0.831456 0.927468 0.054030
C22   C     C_3   0.539588 0.825450 0.061684 0.049125
C23   C     C_3   0.000602 0.331456 0.927468 0.054032
C24   C     C_R   0.254806 0.072363 0.926248 0.012286
C25   C     C_3   0.039588 0.325450 0.061684 0.049124
C26   C     C_R   0.290264 0.498953 0.031455 0.010312
C27   C     C_R   0.720812 0.486916 0.969604 0.031617
C28   C     C_R   0.790264 0.998952 0.031454 0.010311
C29   C     C_R   0.220812 0.986915 0.969604 0.031618
C30   C     C_R   0.295151 0.507397 0.957899 0.004424
C31   C     C_R   0.717575 0.502707 0.042570 0.007433
C32   C     C_R   0.795150 0.007397 0.957899 0.004424
C33   C     C_R   0.725543 0.036915 0.143984 0.538861
C34   C     C_R   0.217575 0.002707 0.042570 0.007432
C35   C     C_R   0.182903 0.607160 0.952996 -0.168640
C36   C     C_R   0.793375 0.676695 0.032546 -0.159759
C37   C     C_R   0.682903 0.107162 0.952996 -0.168638
C38   C     C_R   0.293376 0.176695 0.032546 -0.159759
C39   C     C_R   0.179705 0.604515 0.026896 -0.170248
C40   C     C_R   0.793739 0.664751 0.959254 -0.161989
C41   C     C_R   0.679705 0.104518 0.026896 -0.170247
C42   C     C_R   0.293740 0.164751 0.959254 -0.161990
C43   C     C_3   0.368088 0.507493 0.041737 -0.285649
C44   C     C_R   0.772257 0.540910 0.853735 0.548608
C45   C     C_3   0.647139 0.438439 0.966880 -0.269312
C46   C     C_3   0.868088 0.007492 0.041736 -0.285648
C47   C     C_3   0.147139 0.938439 0.966880 -0.269312
C48   C     C_3   0.373728 0.511425 0.960989 -0.272169
C49   C     C_3   0.644099 0.456515 0.047009 -0.276577
C50   C     C_3   0.873727 0.011424 0.960988 -0.272169
C51   C     C_3   0.144099 0.956516 0.047009 -0.276577
C52   C     C_R   0.244993 0.573755 0.918384 0.020827
C53   C     C_R   0.751221 0.600681 0.075005 0.018652
C54   C     C_R   0.744992 0.073756 0.918384 0.020829
C55   C     C_R   0.225543 0.536915 0.143984 0.538860
C56   C     C_R   0.251221 0.100681 0.075005 0.018651
C57   C     C_R   0.512840 0.835439 0.427918 0.012581
C58   C     C_R   0.499529 0.825545 0.576498 0.007272
C59   C     C_R   0.012864 0.335446 0.427923 0.012638
C60   C     C_R   0.999513 0.325539 0.576494 0.007280
C61   C     C_R   0.471331 0.822064 0.854822 0.540153
C62   C     C_R   0.560522 0.817447 0.137567 0.551272
C63   C     C_R   0.971330 0.322064 0.854822 0.540150
C64   C     C_R   0.060522 0.317447 0.137567 0.551273
C65   C     C_R   0.489027 0.732209 0.460977 0.104150
C66   C     C_3   0.557119 0.746705 0.958084 -0.128991
C67   C     C_R   0.483873 0.726009 0.533188 0.058075
C68   C     C_R   0.988961 0.232253 0.460962 0.104137
C69   C     C_R   0.983780 0.226051 0.533171 0.058170
C70   C     C_R   0.530790 0.927666 0.545411 -0.168811
C71   C     C_R   0.538292 0.931730 0.470975 -0.156706
C72   C     C_R   0.030863 0.427604 0.545429 -0.168814
C73   C     C_R   0.038393 0.431667 0.470996 -0.156656
C74   C     C_3   0.423556 0.662102 0.447064 -0.275234
C75   C     C_3   0.417244 0.654765 0.527060 -0.239387
C76   C     C_3   0.923429 0.162306 0.447029 -0.275295
C77   C     C_3   0.508083 0.717673 0.020750 -0.120405
C78   C     C_3   0.917087 0.154979 0.527024 -0.239489
C79   C     C_R   0.248223 0.572992 0.425770 -0.019777
C80   C     C_R   0.756265 0.589837 0.576747 0.015990
C81   C     C_R   0.748208 0.072958 0.425780 -0.019725
C82   C     C_R   0.256250 0.089878 0.576760 0.015944
C83   C     C_R   0.223363 0.678409 0.455642 -0.037902
C84   C     C_R   0.813464 0.621521 0.534531 0.097420
C85   C     C_R   0.723348 0.178374 0.455652 -0.037884
C86   C     C_R   0.313445 0.121590 0.534546 0.097468
C87   C     C_R   0.222746 0.689912 0.527589 -0.029369
C88   C     C_3   0.057119 0.246704 0.958084 -0.128990
C89   C     C_R   0.807084 0.627450 0.462749 -0.004700
C90   C     C_R   0.722730 0.189882 0.527598 -0.029349
C91   C     C_R   0.307063 0.127527 0.462764 -0.004680
C92   C     C_R   0.281592 0.497482 0.543547 0.175388
C93   C     C_R   0.683280 0.576354 0.471782 0.183836
C94   C     C_R   0.781562 0.997439 0.543560 0.175356
C95   C     C_R   0.183262 0.076411 0.471796 0.183823
C96   C     C_R   0.281324 0.484464 0.469676 -0.125149
C97   C     C_R   0.689820 0.575760 0.545716 -0.136447
C98   C     C_R   0.781294 0.984417 0.469688 -0.125142
C99   C     C_3   0.008082 0.217673 0.020751 -0.120404
C100  C     C_R   0.189804 0.075803 0.545731 -0.136469
C101  C     C_3   0.155252 0.744159 0.446036 -0.231624
C102  C     C_3   0.885093 0.565594 0.530165 -0.229794
C103  C     C_3   0.655233 0.244109 0.446043 -0.231611
C104  C     C_3   0.385077 0.065668 0.530174 -0.229795
C105  C     C_3   0.153042 0.752909 0.526338 -0.228028
C106  C     C_3   0.877892 0.573860 0.450235 -0.288299
C107  C     C_3   0.653024 0.252870 0.526344 -0.228031
C108  C     C_3   0.377874 0.073944 0.450245 -0.288300
C109  C     C_R   0.260048 0.634000 0.850762 0.549151
C110  C     C_R   0.236155 0.557309 0.067912 0.014871
C111  C     C_R   0.739212 0.638770 0.147758 0.536456
C112  C     C_R   0.760048 0.134000 0.850762 0.549153
C113  C     C_R   0.239211 0.138770 0.147758 0.536462
C114  C     C_R   0.248469 0.598848 0.572737 0.035388
C115  C     C_R   0.743928 0.599082 0.429514 0.011428
C116  C     C_R   0.748453 0.098820 0.572747 0.035432
C117  C     C_R   0.243911 0.099141 0.429528 0.011414
C118  C     C_R   0.271748 0.046537 0.646691 0.560074
C119  C     C_R   0.727884 0.041735 0.354919 0.557713
C120  C     C_R   0.771752 0.546528 0.646687 0.560109
Cl1   Cl    Cl    0.321828 0.386487 0.597822 -0.639962
Cl2   Cl    Cl    0.599935 0.536277 0.436951 -0.657577
Cl3   Cl    Cl    0.821779 0.886430 0.597840 -0.639897
Cl4   Cl    Cl    0.099914 0.036337 0.436966 -0.657417
Cr1   Cr    Cr6+3 0.229640 0.835880 0.747370 1.014850
Cr2   Cr    Cr6+3 0.614230 0.677220 0.250660 1.059036
Cr3   Cr    Cr6+3 0.885770 0.177220 0.749340 1.052626
Cr4   Cr    Cr6+3 0.114230 0.177220 0.250660 1.059041
Cr5   Cr    Cr6+3 0.770360 0.835880 0.252630 1.014808
Cr6   Cr    Cr6+3 0.729640 0.335880 0.747370 1.014845
Cr7   Cr    Cr6+3 0.270360 0.335880 0.252630 1.014792
Cr8   Cr    Cr6+3 0.387390 0.989720 0.750850 1.036558
Cr9   Cr    Cr6+3 0.612610 0.989720 0.249150 1.012256
Cr10  Cr    Cr6+3 0.887390 0.489720 0.750850 1.036569
Cr11  Cr    Cr6+3 0.112610 0.489720 0.249150 1.012253
Cr12  Cr    Cr6+3 0.385770 0.677220 0.749340 1.052617
H1    H     H_    0.393616 0.787353 0.985422 0.109128
H2    H     H_    0.871742 0.207412 0.547355 0.135208
H3    H     H_    0.434141 0.572934 0.421878 0.192181
H4    H     H_    0.371862 0.707077 0.547401 0.135356
H5    H     H_    0.381510 0.717528 0.421003 0.115250
H6    H     H_    0.424210 0.561566 0.548532 0.212054
H7    H     H_    0.881434 0.217843 0.420956 0.115243
H8    H     H_    0.923971 0.061756 0.548496 0.212052
H9    H     H_    0.302550 0.401829 0.447425 0.176319
H10   H     H_    0.644805 0.553133 0.578185 0.154421
H11   H     H_    0.802511 0.901775 0.447438 0.176316
H12   H     H_    0.646767 0.869045 0.005224 0.125538
H13   H     H_    0.144791 0.053162 0.578199 0.154441
H14   H     H_    0.111078 0.690026 0.423777 0.162110
H15   H     H_    0.885011 0.470506 0.549652 0.138966
H16   H     H_    0.611065 0.189962 0.423788 0.162091
H17   H     H_    0.384997 0.970572 0.549656 0.138997
H18   H     H_    0.164898 0.830614 0.418017 0.199199
H19   H     H_    0.926976 0.625462 0.552629 0.173709
H20   H     H_    0.664879 0.330556 0.418014 0.199227
H21   H     H_    0.426962 0.125539 0.552639 0.173690
H22   H     H_    0.156707 0.846340 0.546774 0.179354
H23   H     H_    0.893615 0.287353 0.985422 0.109128
H24   H     H_    0.914885 0.640069 0.426139 0.161476
H25   H     H_    0.656684 0.346304 0.546775 0.179352
H26   H     H_    0.414866 0.140161 0.426151 0.161452
H27   H     H_    0.110500 0.697231 0.550214 0.136385
H28   H     H_    0.875162 0.483911 0.423600 0.126301
H29   H     H_    0.610485 0.197189 0.550224 0.136377
H30   H     H_    0.375144 0.983996 0.423605 0.126322
H31   H     H_    0.452750 0.978978 0.061812 0.127795
H32   H     H_    0.539220 0.031363 0.943921 0.110594
H33   H     H_    0.952750 0.478978 0.061812 0.127795
H34   H     H_    0.146767 0.369044 0.005224 0.125538
H35   H     H_    0.039219 0.531363 0.943921 0.110593
H36   H     H_    0.588373 0.685866 0.924210 0.116217
H37   H     H_    0.499578 0.625593 0.042580 0.120077
H38   H     H_    0.088373 0.185866 0.924211 0.116216
H39   H     H_    0.999578 0.125593 0.042581 0.120077
H40   H     H_    0.139235 0.646942 0.923651 0.126745
H41   H     H_    0.822884 0.751209 0.055203 0.148928
H42   H     H_    0.639235 0.146949 0.923652 0.126745
H43   H     H_    0.322884 0.251209 0.055203 0.148927
H44   H     H_    0.132271 0.638571 0.051360 0.141720
H45   H     H_    0.545494 0.005272 0.577521 0.123763
H46   H     H_    0.825461 0.727078 0.928513 0.141996
H47   H     H_    0.632272 0.138578 0.051361 0.141718
H48   H     H_    0.325461 0.227078 0.928513 0.141995
H49   H     H_    0.891534 0.924579 0.065892 0.135083
H50   H     H_    0.145903 0.842236 0.951341 0.149969
H51   H     H_    0.391535 0.424581 0.065892 0.135082
H52   H     H_    0.645904 0.342236 0.951341 0.149967
H53   H     H_    0.383023 0.593503 0.068651 0.142623
H54   H     H_    0.609726 0.495054 0.935888 0.126798
H55   H     H_    0.883023 0.093501 0.068650 0.142624
H56   H     H_    0.563041 0.009668 0.447257 0.137840
H57   H     H_    0.109726 0.995054 0.935887 0.126797
H58   H     H_    0.395717 0.596568 0.939712 0.173265
H59   H     H_    0.606361 0.527604 0.063375 0.153794
H60   H     H_    0.895717 0.096566 0.939712 0.173265
H61   H     H_    0.106361 0.027606 0.063375 0.153794
H62   H     H_    0.397548 0.427916 0.938619 0.131970
H63   H     H_    0.641105 0.370039 0.077327 0.141152
H64   H     H_    0.897547 0.927915 0.938619 0.131971
H65   H     H_    0.141105 0.870040 0.077327 0.141154
H66   H     H_    0.045641 0.505162 0.577554 0.123765
H67   H     H_    0.063249 0.509538 0.447295 0.137875
H68   H     H_    0.933951 0.073108 0.421845 0.192069
O1    O     O_R   0.214300 0.709080 0.827500 -0.527995
O2    O     O_R   0.543340 0.717710 0.330180 -0.451182
O3    O     O_R   0.956660 0.217710 0.669820 -0.506985
O4    O     O_R   0.043340 0.217710 0.330180 -0.451149
O5    O     O_R   0.320590 0.625770 0.672930 -0.462670
O6    O     O_R   0.679410 0.625770 0.327070 -0.443466
O7    O     O_R   0.820590 0.125770 0.672930 -0.462684
O8    O     O_R   0.179410 0.125770 0.327070 -0.443495
O9    O     O_3   0.334270 0.834280 0.749190 -0.267369
O10   O     O_3   0.665730 0.834280 0.250810 -0.282365
O11   O     O_3   0.834270 0.334280 0.749190 -0.267376
O12   O     O_R   0.785700 0.709080 0.172500 -0.529639
O13   O     O_3   0.165730 0.334280 0.250810 -0.282371
O14   O     O_R   0.236190 0.958390 0.823150 -0.501010
O15   O     O_R   0.763810 0.958390 0.176850 -0.500897
O16   O     O_R   0.736190 0.458390 0.823150 -0.501009
O17   O     O_R   0.263810 0.458390 0.176850 -0.500898
O18   O     O_R   0.332090 0.075280 0.831290 -0.514818
O19   O     O_R   0.667910 0.075280 0.168710 -0.531155
O20   O     O_R   0.832090 0.575280 0.831290 -0.514814
O21   O     O_R   0.167910 0.575280 0.168710 -0.531153
O22   O     O_R   0.446280 0.918040 0.826620 -0.502419
O23   O     O_R   0.714300 0.209080 0.827500 -0.527996
O24   O     O_R   0.553720 0.918040 0.173380 -0.504300
O25   O     O_R   0.946280 0.418040 0.826620 -0.502424
O26   O     O_R   0.053720 0.418040 0.173380 -0.504295
O27   O     O_R   0.457080 0.716270 0.831760 -0.529374
O28   O     O_R   0.542920 0.716270 0.168240 -0.526752
O29   O     O_R   0.957080 0.216270 0.831760 -0.529378
O30   O     O_R   0.042920 0.216270 0.168240 -0.526749
O31   O     O_R   0.320980 0.624440 0.823040 -0.498276
O32   O     O_R   0.679020 0.624440 0.176960 -0.519491
O33   O     O_R   0.820980 0.124440 0.823040 -0.498277
O34   O     O_R   0.285700 0.209080 0.172500 -0.529636
O35   O     O_R   0.179020 0.124440 0.176960 -0.519489
O36   O     O_R   0.213880 0.710510 0.665560 -0.533445
O37   O     O_R   0.786120 0.710510 0.334440 -0.526286
O38   O     O_R   0.713880 0.210510 0.665560 -0.533448
O39   O     O_R   0.286120 0.210510 0.334440 -0.526286
O40   O     O_R   0.235800 0.959720 0.673040 -0.522278
O41   O     O_R   0.764200 0.959720 0.326960 -0.510444
O42   O     O_R   0.735800 0.459720 0.673040 -0.522288
O43   O     O_R   0.264200 0.459720 0.326960 -0.510443
O44   O     O_R   0.331670 0.076720 0.669350 -0.482554
O45   O     O_R   0.445900 0.919370 0.676500 -0.515481
O46   O     O_R   0.668330 0.076720 0.330650 -0.522358
O47   O     O_R   0.831670 0.576720 0.669350 -0.482524
O48   O     O_R   0.168330 0.576720 0.330650 -0.522370
O49   O     O_R   0.554100 0.919370 0.323500 -0.516519
O50   O     O_R   0.945900 0.419370 0.676500 -0.515487
O51   O     O_R   0.054100 0.419370 0.323500 -0.516536
O52   O     O_R   0.456660 0.717710 0.669820 -0.507022

loop_
_geom_bond_atom_site_label_1
_geom_bond_atom_site_label_2
_ccdc_geom_bond_type
C95   Cl4   S    
C83   C87   A    
C80   C120  S    
C34   C56   A    
C89   C115  A    
C93   C97   A    
C21   C66   S    
C36   C40   A    
C84   C102  S    
C97   H10   S    
C14   C18   S    
C35   C39   A    
C44   O16   A    
Cr9   O24   S    
C104  H21   S    
C80   C84   A    
C86   C104  S    
Cr2   O32   S    
C12   H31   S    
C13   C41   A    
C39   H44   S    
Cr6   O42   S    
C88   H38   S    
Cr5   O41   S    
C95   C117  A    
Cr4   O35   S    
C15   C19   S    
C37   H42   S    
C73   H67   S    
C28   C46   S    
C34   C51   S    
C3    O43   A    
C29   C47   S    
Cr8   O18   S    
C35   H40   S    
C52   C109  S    
C14   C21   S    
C30   C48   S    
C76   C78   S    
C90   C107  S    
C38   C42   A    
Cr6   O16   S    
C18   H12   S    
C86   C91   A    
C81   C98   A    
C80   C97   A    
C106  H24   S    
C15   C25   S    
C82   C118  S    
C22   C62   S    
C20   C25   S    
C94   C98   A    
Cr7   O34   S    
C15   C16   S    
Cr11  O13   S    
Cr12  O31   S    
C12   C22   S    
C101  H14   S    
C92   C96   A    
Cr11  O21   S    
C24   C42   A    
C47   H57   S    
C15   H33   S    
Cr1   O40   S    
C93   C115  A    
Cr10  O25   S    
C5    O49   A    
Cr5   O10   S    
Cr3   O3    S    
C24   C29   A    
C107  H29   S    
C87   C114  A    
C108  H30   S    
C36   C53   A    
C51   H61   S    
Cr1   O14   S    
C5    O2    A    
C63   O25   A    
Cr1   O9    S    
C25   C99   S    
C39   C110  A    
C107  H25   S    
C2    C44   S    
C68   C69   A    
C65   C67   A    
Cr11  O26   S    
C10   O38   A    
C12   C17   S    
C26   C43   S    
C56   C113  S    
C91   C117  A    
C13   C28   A    
C58   C67   A    
C2    C27   A    
C44   O20   A    
C106  H28   S    
C104  H17   S    
Cr2   O10   S    
C43   C48   S    
C59   C73   A    
C21   C61   S    
C85   C103  S    
C8    C114  S    
C102  H15   S    
C55   O17   A    
C7    O51   A    
C94   Cl3   S    
C53   C111  S    
C46   C50   S    
C23   C63   S    
Cr9   O19   S    
C4    O52   A    
C9    O37   A    
C112  O23   A    
C62   O28   A    
C13   C33   S    
Cr4   O30   S    
C69   C78   S    
C120  O42   A    
Cr10  O47   S    
C31   C49   S    
C78   H2    S    
C7    C59   S    
C118  O40   A    
Cr8   O45   S    
C40   H46   S    
C33   O15   A    
C11   O8    A    
C101  C105  S    
Cr12  O27   S    
Cr3   O29   S    
C74   C75   S    
C27   C31   A    
C9    C115  S    
C6    C60   S    
C28   C32   A    
C60   C69   A    
C111  O12   A    
Cr10  O50   S    
C6    O50   A    
Cr2   O6    S    
C119  O46   A    
Cr9   O49   S    
C94   C116  A    
C95   C100  A    
C58   C70   A    
C47   C51   S    
C49   H59   S    
C42   H48   S    
C82   C86   A    
C108  H26   S    
C29   C34   A    
C57   C71   A    
C65   C74   S    
C48   H62   S    
C1    O18   A    
C25   C64   S    
C89   C106  S    
Cr2   O28   S    
C64   O30   A    
C96   H9    S    
C75   H6    S    
C78   H8    S    
C59   C68   A    
C63   O29   A    
C17   C77   S    
C103  H20   S    
C70   H45   S    
C105  H22   S    
C87   C105  S    
C45   C49   S    
C9    O6    A    
C16   C20   S    
C102  H19   S    
C105  H27   S    
C111  O32   A    
C6    O3    A    
C54   C112  S    
Cr6   O11   S    
Cr7   O17   S    
C46   H55   S    
C3    O48   A    
C47   H50   S    
C109  O1    A    
C19   C99   S    
Cr1   O36   S    
Cr8   O22   S    
C32   C50   S    
C3    C79   S    
C1    O14   A    
C8    O36   A    
Cr7   O43   S    
C103  H16   S    
C26   C110  A    
C33   O19   A    
Cr3   O7    S    
C113  O34   A    
C74   H5    S    
C12   C14   S    
Cr6   O23   S    
Cr3   O33   S    
C16   C23   S    
C90   C116  A    
C23   C88   S    
C55   C110  S    
C92   C114  A    
C71   H56   S    
C31   C53   A    
C67   C75   S    
C84   C89   A    
Cr9   O10   S    
C14   H32   S    
C8    O5    A    
C11   C117  S    
Cr11  O48   S    
C109  O31   A    
C104  C108  S    
C70   C71   A    
C10   C116  S    
C19   C23   S    
C72   H66   S    
Cr12  O9    S    
C49   H63   S    
C66   H36   S    
C66   C77   S    
C30   C52   A    
C18   C66   S    
C77   H37   S    
C38   H43   S    
C83   C101  S    
C48   H58   S    
C18   C22   S    
C82   C100  A    
C91   C108  S    
Cr12  O52   S    
C10   O7    A    
Cr8   O44   S    
C36   H41   S    
C22   C77   S    
C57   C65   A    
C7    O4    A    
C43   H51   S    
C4    O45   A    
C17   H1    S    
C85   C90   A    
C76   H68   S    
C45   H52   S    
C26   C30   A    
C120  O47   A    
C100  H13   S    
C68   C76   S    
C37   C54   A    
C74   H3    S    
C81   C119  S    
Cr10  O20   S    
C61   O22   A    
C32   C54   A    
C5    C57   S    
C11   O39   A    
C75   H4    S    
C19   H23   S    
C55   O21   A    
Cr5   O12   S    
C20   H34   S    
C119  O41   A    
C79   C96   A    
Cr5   O15   S    
C64   O26   A    
Cr7   O39   S    
C92   Cl1   S    
Cr4   O8    S    
C79   C83   A    
Cr6   O38   S    
C16   H35   S    
C27   C45   S    
C99   H39   S    
Cr5   O37   S    
C101  H18   S    
Cr2   O2    S    
C72   C73   A    
C62   O24   A    
C20   C88   S    
Cr1   O1    S    
C61   O27   A    
C102  C106  S    
C118  O44   A    
C46   H49   S    
C37   C41   A    
C17   C21   S    
Cr4   O13   S    
C88   C99   S    
Cr10  O11   S    
C4    C58   S    
Cr12  O5    S    
Cr3   O11   S    
C76   H7    S    
C2    C40   A    
C45   H54   S    
C113  O35   A    
C38   C56   A    
C43   H53   S    
C1    C24   S    
C112  O33   A    
C98   H11   S    
C50   H60   S    
C35   C52   A    
C60   C72   A    
C41   H47   S    
C103  C107  S    
Cr8   O9    S    
Cr4   O4    S    
Cr11  O51   S    
Cr7   O13   S    
C50   H64   S    
Cr9   O46   S    
C93   Cl2   S    
C81   C85   A    
C51   H65   S    
