data_mof_unit_37363.cif
_audit_creation_date              2012-12-11T14:38:07-0500
_audit_creation_method            fapswitch 2.2
_symmetry_space_group_name_H-M    P1
_symmetry_Int_Tables_number       1
_space_group_crystal_system       triclinic
_cell_length_a                    19.498485
_cell_length_b                    11.137648
_cell_length_c                    19.600691
_cell_angle_alpha                 90.205732
_cell_angle_beta                  96.351756
_cell_angle_gamma                 90.516278
_cell_volume                      4230.28196233

loop_
_atom_site_label
_atom_site_type_symbol
_atom_type_description
_atom_site_fract_x
_atom_site_fract_y
_atom_site_fract_z
_atom_type_partial_charge
C1    C     C_R   0.725509 0.952824 0.360024 0.584600
C2    C     C_R   0.274176 0.951076 0.640354 0.574915
C3    C     C_R   0.225509 0.452824 0.360024 0.584600
C4    C     C_R   0.774177 0.451076 0.640353 0.574914
C5    C     C_3   0.684698 0.473149 0.455408 -0.267267
C6    C     C_3   0.322602 0.458067 0.543221 -0.252657
C7    C     C_3   0.184698 0.973149 0.455408 -0.267270
C8    C     C_3   0.822602 0.958066 0.543221 -0.252657
C9    C     C_3   0.826660 0.449216 0.532155 -0.092066
C10   C     C_3   0.176419 0.465461 0.469859 -0.102012
C11   C     C_3   0.326659 0.949214 0.532155 -0.092066
C12   C     C_3   0.676418 0.965462 0.469859 -0.102012
C13   C     C_3   0.743311 0.284616 0.555739 0.198883
C14   C     C_3   0.248068 0.288554 0.443098 0.206724
C15   C     C_3   0.243310 0.784615 0.555740 0.198882
C16   C     C_3   0.748067 0.788554 0.443098 0.206723
C17   C     C_3   0.759038 0.417273 0.567752 0.051691
C18   C     C_3   0.240874 0.422419 0.432504 0.039669
C19   C     C_3   0.259037 0.917272 0.567752 0.051693
C20   C     C_3   0.740873 0.922420 0.432504 0.039670
C21   C     C_3   0.740441 0.386452 0.435851 -0.005393
C22   C     C_3   0.259488 0.387796 0.563907 -0.017217
C23   C     C_3   0.240441 0.886450 0.435852 -0.005393
C24   C     C_3   0.759488 0.887796 0.563907 -0.017217
C25   C     C_3   0.811235 0.445800 0.455014 -0.246153
C26   C     C_3   0.194664 0.463250 0.547274 -0.251459
C27   C     C_3   0.311235 0.945796 0.455014 -0.246151
C28   C     C_3   0.694664 0.963251 0.547274 -0.251460
C29   C     C_3   0.728289 0.268700 0.476765 -0.179581
C30   C     C_3   0.254629 0.269145 0.521346 -0.182140
C31   C     C_3   0.228287 0.768698 0.476766 -0.179583
C32   C     C_3   0.754628 0.769146 0.521345 -0.182142
C33   C     C_3   0.423342 0.274850 0.974800 -0.241568
C34   C     C_3   0.445897 0.271786 0.052391 -0.230700
C35   C     C_3   0.923345 0.774856 0.974799 -0.241568
C36   C     C_3   0.945902 0.771797 0.052390 -0.230694
C37   C     C_3   0.441530 0.052136 0.969266 -0.232535
C38   C     C_3   0.562592 0.196045 0.027209 -0.232817
C39   C     C_3   0.941524 0.552140 0.969266 -0.232534
C40   C     C_3   0.062593 0.696031 0.027209 -0.232818
C41   C     C_3   0.539265 0.193746 0.950215 -0.217323
C42   C     C_3   0.467367 0.049752 0.046946 -0.236464
C43   C     C_3   0.039265 0.693738 0.950215 -0.217320
C44   C     C_3   0.967358 0.549757 0.046948 -0.236463
C45   C     C_R   0.534135 0.180571 0.337219 0.550199
C46   C     C_R   0.437255 0.183512 0.652333 0.546693
C47   C     C_R   0.034135 0.680571 0.337219 0.550198
C48   C     C_R   0.937256 0.683512 0.652333 0.546692
C49   C     C_3   0.460128 0.174968 0.937615 0.042053
C50   C     C_3   0.500797 0.172684 0.069151 0.055293
C51   C     C_3   0.960127 0.674969 0.937615 0.042052
C52   C     C_3   0.000796 0.672684 0.069151 0.055296
C53   C     C_1   0.756454 0.412157 0.900143 -0.009561
C54   C     C_1   0.219259 0.475576 0.085356 -0.021111
C55   C     C_1   0.256454 0.912157 0.900143 -0.009560
C56   C     C_1   0.719259 0.975577 0.085356 -0.021111
C57   C     C_1   0.735025 0.360965 0.026272 -0.050343
C58   C     C_1   0.241125 0.437442 0.957953 -0.045829
C59   C     C_1   0.235025 0.860965 0.026272 -0.050343
C60   C     C_1   0.741124 0.937442 0.957952 -0.045829
C61   C     C_1   0.744507 0.386112 0.957341 -0.045466
C62   C     C_1   0.229697 0.459638 0.026603 -0.048778
C63   C     C_1   0.244507 0.886112 0.957341 -0.045466
C64   C     C_1   0.729696 0.959639 0.026603 -0.048778
C65   C     C_1   0.729027 0.340072 0.085671 -0.020811
C66   C     C_1   0.250870 0.409855 0.900390 -0.011257
C67   C     C_1   0.229027 0.840072 0.085671 -0.020811
C68   C     C_1   0.750869 0.909856 0.900389 -0.011257
C69   C     C_R   0.736453 0.355541 0.363264 0.563879
C70   C     C_R   0.263793 0.355069 0.636399 0.547197
C71   C     C_R   0.236452 0.855538 0.363265 0.563880
C72   C     C_R   0.763793 0.855069 0.636399 0.547196
C73   C     C_R   0.705340 0.997074 0.154582 0.536677
C74   C     C_R   0.276977 0.952471 0.835902 0.542696
C75   C     C_R   0.205340 0.497073 0.154582 0.536677
C76   C     C_R   0.776977 0.452471 0.835902 0.542695
C77   C     C_R   0.529361 0.178612 0.142165 0.523621
C78   C     C_R   0.438217 0.182045 0.863038 0.545190
C79   C     C_R   0.029360 0.678612 0.142165 0.523620
C80   C     C_R   0.938216 0.682045 0.863038 0.545188
C81   C     C_R   0.722722 0.311445 0.156089 0.536308
C82   C     C_R   0.262964 0.361588 0.835036 0.549091
C83   C     C_R   0.222722 0.811446 0.156089 0.536308
C84   C     C_R   0.762964 0.861588 0.835036 0.549091
C85   C     C_1   0.456035 0.178208 0.583811 0.028627
C86   C     C_1   0.503879 0.175154 0.400435 0.061836
C87   C     C_1   0.956035 0.678208 0.583811 0.028626
C88   C     C_1   0.003880 0.675154 0.400435 0.061835
C89   C     C_1   0.485569 0.174227 0.457088 0.033197
C90   C     C_1   0.469300 0.175581 0.525295 0.012316
C91   C     C_1   0.985570 0.674227 0.457088 0.033194
C92   C     C_1   0.969301 0.675581 0.525296 0.012313
C93   C     C_3   0.690875 0.479936 0.534208 -0.233254
C94   C     C_3   0.313098 0.475697 0.464935 -0.228487
C95   C     C_3   0.190874 0.979935 0.534209 -0.233256
C96   C     C_3   0.813097 0.975696 0.464935 -0.228487
Cr1   Cr    Cr6+3 0.765780 0.160710 0.267420 1.036861
Cr2   Cr    Cr6+3 0.234220 0.160710 0.732580 1.040104
Cr3   Cr    Cr6+3 0.265780 0.660710 0.267420 1.036861
Cr4   Cr    Cr6+3 0.734220 0.660710 0.732580 1.040103
Cr5   Cr    Cr6+3 0.612200 0.009560 0.248850 1.054247
Cr6   Cr    Cr6+3 0.387800 0.009560 0.751150 1.065019
Cr7   Cr    Cr6+3 0.112200 0.509560 0.248850 1.054247
Cr8   Cr    Cr6+3 0.887800 0.509560 0.751150 1.065020
Cr9   Cr    Cr6+3 0.616030 0.323720 0.248510 1.024055
Cr10  Cr    Cr6+3 0.383970 0.323720 0.751490 1.023873
Cr11  Cr    Cr6+3 0.116030 0.823720 0.248510 1.024056
Cr12  Cr    Cr6+3 0.883970 0.823720 0.751490 1.023873
H1    H     H_    0.681725 0.567777 0.553803 0.139899
H2    H     H_    0.325550 0.567770 0.451250 0.154109
H3    H     H_    0.181721 0.067775 0.553804 0.139902
H4    H     H_    0.825549 0.067770 0.451251 0.154106
H5    H     H_    0.758414 0.196764 0.459445 0.121504
H6    H     H_    0.206756 0.229478 0.532123 0.163324
H7    H     H_    0.258410 0.696759 0.459445 0.121497
H8    H     H_    0.706755 0.729481 0.532123 0.163324
H9    H     H_    0.853150 0.400689 0.430556 0.190199
H10   H     H_    0.150566 0.429794 0.573824 0.193689
H11   H     H_    0.353149 0.900683 0.430557 0.190198
H12   H     H_    0.650566 0.929795 0.573824 0.193689
H13   H     H_    0.366417 0.262003 0.965355 0.111052
H14   H     H_    0.466755 0.361995 0.068655 0.153336
H15   H     H_    0.866419 0.762012 0.965356 0.111053
H16   H     H_    0.966767 0.862006 0.068650 0.153336
H17   H     H_    0.435683 0.364930 0.954690 0.149034
H18   H     H_    0.400363 0.254135 0.080601 0.130080
H19   H     H_    0.935686 0.864934 0.954686 0.149035
H20   H     H_    0.900367 0.754161 0.080603 0.130079
H21   H     H_    0.384694 0.037555 0.961876 0.121024
H22   H     H_    0.586449 0.285251 0.041021 0.135286
H23   H     H_    0.884688 0.537563 0.961874 0.121021
H24   H     H_    0.086457 0.785233 0.041022 0.135277
H25   H     H_    0.423474 0.030086 0.077053 0.131275
H26   H     H_    0.555071 0.279718 0.927440 0.152413
H27   H     H_    0.923462 0.530104 0.077054 0.131274
H28   H     H_    0.055072 0.779710 0.927442 0.152412
H29   H     H_    0.565897 0.120013 0.925468 0.139632
H30   H     H_    0.505608 0.976584 0.057021 0.143909
H31   H     H_    0.065894 0.620004 0.925466 0.139633
H32   H     H_    0.005594 0.476580 0.057026 0.143908
H33   H     H_    0.603084 0.127251 0.039325 0.104284
H34   H     H_    0.465549 0.976861 0.943314 0.150733
H35   H     H_    0.103079 0.627226 0.039324 0.104291
H36   H     H_    0.965543 0.476861 0.943316 0.150733
H37   H     H_    0.644592 0.433834 0.550560 0.204873
H38   H     H_    0.355764 0.428262 0.443218 0.199982
H39   H     H_    0.144591 0.933830 0.550559 0.204872
H40   H     H_    0.855763 0.928263 0.443218 0.199983
H41   H     H_    0.631999 0.440770 0.435603 0.153827
H42   H     H_    0.370794 0.407014 0.557781 0.148997
H43   H     H_    0.131999 0.940772 0.435603 0.153827
H44   H     H_    0.870793 0.907014 0.557781 0.148998
H45   H     H_    0.691318 0.561357 0.432768 0.148629
H46   H     H_    0.328560 0.545548 0.570247 0.150061
H47   H     H_    0.191319 0.061357 0.432769 0.148631
H48   H     H_    0.828559 0.045548 0.570247 0.150057
H49   H     H_    0.343120 0.041249 0.547168 0.085354
H50   H     H_    0.664615 0.058124 0.454300 0.098807
H51   H     H_    0.843121 0.541251 0.547169 0.085353
H52   H     H_    0.164616 0.558124 0.454299 0.098805
H53   H     H_    0.311061 0.038034 0.434416 0.191109
H54   H     H_    0.705255 0.054313 0.567266 0.190735
H55   H     H_    0.811061 0.538038 0.434417 0.191111
H56   H     H_    0.205255 0.554312 0.567266 0.190734
H57   H     H_    0.786525 0.228562 0.577589 0.170864
H58   H     H_    0.202176 0.243325 0.416357 0.169195
H59   H     H_    0.286524 0.728561 0.577589 0.170868
H60   H     H_    0.702176 0.743325 0.416357 0.169195
H61   H     H_    0.673039 0.243862 0.464628 0.138472
H62   H     H_    0.298693 0.211318 0.538008 0.117037
H63   H     H_    0.173036 0.743863 0.464630 0.138472
H64   H     H_    0.798691 0.711317 0.538008 0.117036
O1    O     O_R   0.783100 0.287550 0.345460 -0.512882
O2    O     O_R   0.216900 0.287550 0.654540 -0.513152
O3    O     O_R   0.283100 0.787550 0.345460 -0.512883
O4    O     O_R   0.716900 0.787550 0.654540 -0.513152
O5    O     O_R   0.554710 0.081900 0.170950 -0.525277
O6    O     O_R   0.445290 0.081900 0.829050 -0.497663
O7    O     O_R   0.054710 0.581900 0.170950 -0.525277
O8    O     O_R   0.945290 0.581900 0.829050 -0.497662
O9    O     O_R   0.545650 0.284910 0.163740 -0.527311
O10   O     O_R   0.454350 0.284910 0.836260 -0.511441
O11   O     O_R   0.045650 0.784910 0.163740 -0.527311
O12   O     O_R   0.954350 0.784910 0.836260 -0.511440
O13   O     O_R   0.677950 0.374280 0.185410 -0.477870
O14   O     O_R   0.322050 0.374280 0.814590 -0.509047
O15   O     O_R   0.177950 0.874280 0.185410 -0.477869
O16   O     O_R   0.822050 0.874280 0.814590 -0.509048
O17   O     O_3   0.664670 0.164660 0.254930 -0.313658
O18   O     O_3   0.335330 0.164660 0.745070 -0.313722
O19   O     O_3   0.164670 0.664660 0.254930 -0.313659
O20   O     O_3   0.835330 0.664660 0.745070 -0.313723
O21   O     O_R   0.760020 0.037400 0.337700 -0.511662
O22   O     O_R   0.239980 0.037400 0.662300 -0.514903
O23   O     O_R   0.260020 0.537400 0.337700 -0.511663
O24   O     O_R   0.739980 0.537400 0.662300 -0.514903
O25   O     O_R   0.666600 0.921990 0.332020 -0.493980
O26   O     O_R   0.333400 0.921990 0.667980 -0.501105
O27   O     O_R   0.166600 0.421990 0.332020 -0.493980
O28   O     O_R   0.833400 0.421990 0.667980 -0.501103
O29   O     O_R   0.557260 0.082670 0.312540 -0.450292
O30   O     O_R   0.442740 0.082670 0.687460 -0.433854
O31   O     O_R   0.057260 0.582670 0.312540 -0.450292
O32   O     O_R   0.942740 0.582670 0.687460 -0.433853
O33   O     O_R   0.548410 0.285740 0.316480 -0.524075
O34   O     O_R   0.451590 0.285740 0.683520 -0.500044
O35   O     O_R   0.048410 0.785740 0.316480 -0.524076
O36   O     O_R   0.951590 0.785740 0.683520 -0.500043
O37   O     O_R   0.680500 0.375040 0.327000 -0.494090
O38   O     O_R   0.319500 0.375040 0.673000 -0.513647
O39   O     O_R   0.180500 0.875040 0.327000 -0.494089
O40   O     O_R   0.819500 0.875040 0.673000 -0.513647
O41   O     O_R   0.780350 0.286720 0.192720 -0.498009
O42   O     O_R   0.219650 0.286720 0.807280 -0.497246
O43   O     O_R   0.280350 0.786720 0.192720 -0.498008
O44   O     O_R   0.719650 0.786720 0.807280 -0.497246
O45   O     O_R   0.757470 0.036630 0.196110 -0.495549
O46   O     O_R   0.242530 0.036630 0.803890 -0.490777
O47   O     O_R   0.257470 0.536630 0.196110 -0.495549
O48   O     O_R   0.742530 0.536630 0.803890 -0.490777
O49   O     O_R   0.663840 0.921160 0.179280 -0.490764
O50   O     O_R   0.336160 0.921160 0.820720 -0.516063
O51   O     O_R   0.163840 0.421160 0.179280 -0.490764
O52   O     O_R   0.836160 0.421160 0.820720 -0.516063
C97   C     C_2   0.889553 0.369062 0.551593 0.578105
O53   O     O_2   0.940468 0.409786 0.586176 -0.473326
O54   O     O_R   0.891232 0.251808 0.525955 -0.758065
H65   H     H_    0.936107 0.209609 0.541381 0.340027
C98   C     C_2   0.108498 0.394294 0.452184 0.582767
O55   O     O_2   0.059551 0.441976 0.419447 -0.490995
O56   O     O_R   0.099830 0.277745 0.476284 -0.751459
H66   H     H_    0.052163 0.243136 0.461683 0.347774
C99   C     C_2   0.389553 0.869062 0.551593 0.578105
O57   O     O_2   0.440469 0.909789 0.586174 -0.473328
O58   O     O_R   0.391232 0.751805 0.525959 -0.758068
H67   H     H_    0.436107 0.709607 0.541384 0.340028
C100  C     C_2   0.608497 0.894295 0.452184 0.582767
O59   O     O_2   0.559551 0.941977 0.419446 -0.490996
O60   O     O_R   0.599829 0.777746 0.476284 -0.751457
H68   H     H_    0.552161 0.743137 0.461683 0.347774
F1    F     F_    0.686533 0.251045 0.588521 -0.681589
F2    F     F_    0.304922 0.244407 0.414813 -0.691130
F3    F     F_    0.186533 0.751044 0.588523 -0.681589
F4    F     F_    0.804921 0.744407 0.414814 -0.691132

loop_
_geom_bond_atom_site_label_1
_geom_bond_atom_site_label_2
_ccdc_geom_bond_type
C11   C99   S    
C39   C51   S    
C58   C62   S    
C79   O11   A    
C94   H38   S    
C8    C24   S    
Cr5   O29   S    
Cr11  O15   S    
C42   H30   S    
C14   C18   S    
C1    O21   A    
C35   C36   S    
C8    C96   S    
Cr12  O36   S    
C83   O15   A    
Cr7   O19   S    
C9    C25   S    
C36   H20   S    
C76   O52   A    
C67   C83   S    
C96   H4    S    
C11   C19   S    
C31   H63   S    
C48   O36   A    
C82   O14   A    
C42   H25   S    
C80   O8    A    
C13   C29   S    
C8    H44   S    
C25   H55   S    
C72   O40   A    
Cr5   O17   S    
C74   O46   A    
Cr6   O26   S    
Cr2   O2    S    
Cr5   O25   S    
C27   H11   S    
C39   H23   S    
Cr7   O7    S    
Cr11  O39   S    
C9    H51   S    
Cr9   O13   S    
C6    C22   S    
C100  O60   S    
Cr3   O23   S    
Cr9   O37   S    
C49   C78   S    
Cr2   O22   S    
C3    C18   S    
C46   O34   A    
C48   O32   A    
Cr1   O21   S    
C37   C42   S    
C12   H50   S    
C51   C80   S    
Cr10  O10   S    
C21   C25   S    
C59   C67   T    
C43   C51   S    
C14   F2    S    
C5    H41   S    
C13   H57   S    
C58   C66   T    
C40   C43   S    
C13   F1    S    
O60   H68   S    
C71   O3    A    
C78   O6    A    
C6    C94   S    
Cr8   O20   S    
C55   C63   T    
Cr11  O11   S    
Cr4   O4    S    
C77   O9    A    
O58   H67   S    
C56   C64   T    
C93   H37   S    
C73   O49   A    
C11   C27   S    
C14   H58   S    
C52   C79   S    
C99   O57   D    
Cr11  O35   S    
C36   C52   S    
C16   C20   S    
C81   O41   A    
C46   C85   S    
Cr7   O51   S    
C5    C93   S    
C10   C26   S    
C44   H27   S    
Cr1   O17   S    
C32   H64   S    
C20   C96   S    
C75   O51   A    
C34   H14   S    
C45   O29   A    
C82   O42   A    
C100  O59   D    
C33   H13   S    
Cr8   O28   S    
Cr6   O6    S    
C15   H59   S    
Cr4   O20   S    
C69   O1    A    
C14   C30   S    
C40   H24   S    
C31   H7    S    
C41   H26   S    
Cr12  O40   S    
C97   O53   D    
C10   H52   S    
Cr7   O31   S    
Cr4   O24   S    
C24   C72   S    
C96   H40   S    
C15   F3    S    
C34   C50   S    
Cr1   O1    S    
C37   H34   S    
Cr12  O12   S    
C28   H54   S    
C68   C84   S    
C26   H10   S    
Cr6   O18   S    
C95   H39   S    
Cr10  O14   S    
C38   C41   S    
C28   H12   S    
C91   C92   S    
C81   O13   A    
C54   C62   T    
C40   C52   S    
C21   C29   S    
C15   C31   S    
C94   H2    S    
C10   C98   S    
C3    O23   A    
C21   C69   S    
C2    O22   A    
C5    C21   S    
C23   C31   S    
C15   C19   S    
C24   C32   S    
C98   O55   D    
Cr9   O17   S    
C66   C82   S    
C9    C97   S    
C70   O2    A    
C65   C81   S    
O54   H65   S    
C88   C91   T    
C75   O47   A    
C34   H18   S    
C12   C20   S    
C22   C70   S    
C33   H17   S    
C33   C34   S    
C48   C87   S    
C47   O31   A    
Cr7   O27   S    
C32   H8    S    
C3    O27   A    
C57   C61   S    
C99   O58   S    
C16   H60   S    
C37   C49   S    
C6    H46   S    
Cr12  O20   S    
Cr2   O18   S    
C42   C50   S    
C7    H43   S    
C4    C17   S    
C16   F4    S    
C9    C17   S    
C12   C100  S    
Cr3   O47   S    
C23   C27   S    
Cr2   O46   S    
C35   C51   S    
C18   C94   S    
C38   H33   S    
C30   H62   S    
C84   O16   A    
C53   C76   S    
C17   C93   S    
Cr10  O18   S    
C53   C61   T    
C50   C77   S    
Cr8   O32   S    
C35   H19   S    
C19   C95   S    
C11   H49   S    
C12   C28   S    
C30   H6    S    
Cr5   O49   S    
C4    O24   A    
C29   H5    S    
Cr4   O44   S    
C1    C20   S    
C45   O33   A    
C56   C73   S    
C22   C30   S    
C36   H16   S    
C2    C19   S    
C2    O26   A    
C41   H29   S    
Cr12  O16   S    
C1    O25   A    
C24   C28   S    
C57   C65   T    
C86   C89   T    
C25   H9    S    
Cr10  O34   S    
C83   O43   A    
C85   C90   T    
Cr9   O33   S    
C39   C44   S    
C38   C50   S    
C13   C17   S    
C43   H31   S    
C16   C32   S    
C41   C49   S    
C7    C95   S    
C74   O50   A    
C59   C63   S    
C38   H22   S    
C47   O35   A    
C60   C64   S    
Cr9   O9    S    
C47   C88   S    
C35   H15   S    
C45   C86   S    
Cr6   O30   S    
C98   O56   S    
C95   H3    S    
C27   H53   S    
Cr3   O19   S    
C44   C52   S    
Cr8   O8    S    
C7    C23   S    
Cr3   O43   S    
C10   C18   S    
C5    H45   S    
Cr6   O50   S    
C26   H56   S    
C97   O54   S    
C37   H21   S    
C29   H61   S    
C69   O37   A    
Cr1   O45   S    
C80   O12   A    
Cr2   O42   S    
C43   H28   S    
C8    H48   S    
C72   O4    A    
C77   O5    A    
Cr4   O48   S    
Cr3   O3    S    
Cr5   O5    S    
C54   C75   S    
C6    H42   S    
C4    O28   A    
C79   O7    A    
C7    H47   S    
C39   H36   S    
C60   C68   T    
C23   C71   S    
C44   H32   S    
C22   C26   S    
C40   H35   S    
Cr11  O19   S    
O56   H66   S    
C73   O45   A    
C76   O48   A    
C71   O39   A    
Cr1   O41   S    
C70   O38   A    
C78   O10   A    
C89   C90   S    
C87   C92   T    
C33   C49   S    
Cr8   O52   S    
C55   C74   S    
C84   O44   A    
C93   H1    S    
C46   O30   A    
Cr10  O38   S    
