data_mof_unit_22333.cif
_audit_creation_date              2012-12-10T17:09:31-0500
_audit_creation_method            fapswitch 2.2
_symmetry_space_group_name_H-M    P1
_symmetry_Int_Tables_number       1
_space_group_crystal_system       triclinic
_cell_length_a                    10.603853
_cell_length_b                    10.718345
_cell_length_c                    10.096367
_cell_angle_alpha                 89.519011
_cell_angle_beta                  90.523309
_cell_angle_gamma                 89.886463
_cell_volume                      1147.41948612

loop_
_atom_site_label
_atom_site_type_symbol
_atom_type_description
_atom_site_fract_x
_atom_site_fract_y
_atom_site_fract_z
_atom_type_partial_charge
C1    C     C_R   0.493738 0.262484 0.499389 0.970348
C2    C     C_3   0.959714 0.609359 0.457221 0.218719
C3    C     C_3   0.036895 0.516398 0.374647 0.247661
C4    C     C_3   0.123508 0.493259 0.495428 -0.413968
C5    C     C_2   0.419809 0.931870 0.409396 0.361394
C6    C     C_2   0.495874 0.869560 0.494108 -0.419057
C7    C     C_2   0.444577 0.063367 0.388132 0.411270
C8    C     C_2   0.464730 0.131851 0.498342 -0.506345
C9    C     C_2   0.503884 0.598162 0.925639 -0.102723
C10   C     C_2   0.540130 0.590697 0.068813 0.431521
C11   C     C_R   0.257933 0.496205 0.498872 1.022100
C12   C     C_R   0.496451 0.737091 0.499230 1.052865
C13   C     C_R   0.742252 0.500049 0.501232 1.045485
C14   C     C_3   0.042309 0.383629 0.543746 -0.374897
C15   C     C_3   0.954050 0.408132 0.424092 0.576493
C16   C     C_3   0.876942 0.500797 0.504936 -0.464821
C17   C     C_3   0.964267 0.477004 0.624362 0.259934
C18   C     C_3   0.047007 0.585070 0.577681 0.569987
H1    H     H_    0.452566 0.089578 0.595792 0.156547
H2    H     H_    0.497878 0.689307 0.878508 0.215053
H3    H     H_    0.519563 0.417126 0.898561 0.194936
H4    H     H_    0.436843 0.441304 0.106229 0.196716
H5    H     H_    0.077742 0.291086 0.577631 0.234806
H6    H     H_    0.570532 0.915883 0.549292 0.163248
N1    N     N_2   0.501360 0.501330 0.852150 -0.202654
N2    N     N_2   0.501400 0.501360 0.147810 -0.218155
O1    O     O_R   0.499980 0.319060 0.613040 -0.624352
O2    O     O_R   0.500020 0.319100 0.386900 -0.546029
O3    O     O_R   0.313930 0.499950 0.613050 -0.603783
O4    O     O_R   0.313970 0.499990 0.386910 -0.569581
O5    O     O_R   0.499980 0.680900 0.613100 -0.623322
O6    O     O_R   0.500020 0.680940 0.386960 -0.543737
O7    O     O_R   0.686030 0.500010 0.613090 -0.576054
O8    O     O_R   0.686070 0.500050 0.386950 -0.550451
Zn1   Zn    Zn3+2 0.499970 0.499970 0.650990 1.064706
Zn2   Zn    Zn3+2 0.500030 0.500030 0.349010 1.172419
F1    F     F_    0.902125 0.314942 0.347042 -0.592265
S1    S     S_3+6 0.653676 0.702299 0.116001 0.154053
O9    O     O_2   0.595966 0.806336 0.193070 -0.210843
O10   O     O_2   0.754793 0.639945 0.196436 -0.191699
O11   O     O_3   0.719364 0.764265 0.979469 -0.504128
H7    H     H_    0.789335 0.816850 0.012751 0.421835
S2    S     S_3+6 0.924582 0.450173 0.792590 0.141212
O12   O     O_2   0.865415 0.565399 0.848775 -0.172894
O13   O     O_2   0.833646 0.343249 0.802298 -0.235274
O14   O     O_3   0.057212 0.414019 0.877044 -0.468896
H8    H     H_    0.111822 0.488428 0.868018 0.395540
F2    F     F_    0.098705 0.673801 0.660722 -0.555129
S3    S     S_3+6 0.911295 0.766303 0.419030 0.170655
O15   O     O_2   0.944423 0.799361 0.278815 -0.184778
O16   O     O_2   0.771633 0.778677 0.436804 -0.306842
O17   O     O_3   0.983845 0.866383 0.521821 -0.419034
H9    H     H_    0.958132 0.950366 0.489862 0.396981
S4    S     S_3+6 0.074425 0.520987 0.202469 0.174881
O18   O     O_2   0.126120 0.645930 0.163774 -0.167961
O19   O     O_2   0.169979 0.421904 0.171847 -0.248345
O20   O     O_3   0.942646 0.494184 0.114033 -0.401909
H10   H     H_    0.932500 0.402386 0.113964 0.423435
S5    S     S_3+6 0.286262 0.863996 0.331815 0.140101
O21   O     O_2   0.327675 0.791934 0.212812 -0.217211
O22   O     O_2   0.222902 0.776933 0.427113 -0.264013
O23   O     O_3   0.184165 0.976665 0.284687 -0.470354
H11   H     H_    0.146528 0.947521 0.200348 0.421297
S6    S     S_3+6 0.456718 0.117831 0.220605 0.117925
O24   O     O_2   0.357481 0.215538 0.194784 -0.254234
O25   O     O_2   0.585285 0.172907 0.198796 -0.242967
O26   O     O_3   0.435890 0.002128 0.111450 -0.459461
H12   H     H_    0.444374 0.042213 0.023238 0.384042

loop_
_geom_bond_atom_site_label_1
_geom_bond_atom_site_label_2
_ccdc_geom_bond_type
C14   H5    S    
C1    O2    A    
S2    O12   D    
C17   S2    S    
S4    O19   D    
C13   O7    A    
O23   H11   S    
C2    S3    S    
C2    C18   S    
C1    C8    S    
C2    C16   S    
C9    C10   S    
O3    Zn1   S    
C9    H2    S    
O4    Zn2   S    
C10   S1    S    
S3    O17   S    
C6    H6    S    
S6    O24   D    
C10   N2    D    
S3    O15   D    
C17   C18   S    
C9    N1    D    
S5    O21   D    
C12   O6    A    
C4    C11   S    
S1    O10   D    
S2    O13   D    
C14   C17   S    
C11   O3    A    
O20   H10   S    
C5    C6    D    
N1    Zn1   S    
O6    Zn2   S    
C6    C12   S    
N2    Zn2   S    
O7    Zn1   S    
C2    C3    S    
O8    Zn2   S    
C12   O5    A    
C4    C14   S    
S1    O9    D    
C3    S4    S    
O5    Zn1   S    
C7    S6    S    
S2    O14   S    
C8    H1    S    
S5    O22   D    
C5    S5    S    
H4    N2    S    
C15   C16   S    
S6    O26   S    
C13   O8    A    
C3    C15   S    
O17   H9    S    
O2    Zn2   S    
S1    O11   S    
C1    O1    A    
C7    C8    D    
O11   H7    S    
C13   C16   S    
S4    O18   D    
C5    C7    S    
H3    N1    S    
C14   C15   S    
C15   F1    S    
S5    O23   S    
O1    Zn1   S    
O14   H8    S    
C4    C18   S    
C3    C4    S    
O26   H12   S    
C11   O4    A    
S6    O25   D    
C16   C17   S    
S3    O16   D    
S4    O20   S    
C18   F2    S    
