data_mof_unit_45447.cif
_audit_creation_date              2012-12-10T19:44:40-0500
_audit_creation_method            fapswitch 2.2
_symmetry_space_group_name_H-M    P1
_symmetry_Int_Tables_number       1
_space_group_crystal_system       triclinic
_cell_length_a                    8.544508
_cell_length_b                    14.962794
_cell_length_c                    14.249262
_cell_angle_alpha                 88.96031
_cell_angle_beta                  99.259595
_cell_angle_gamma                 91.66067
_cell_volume                      1797.10242254

loop_
_atom_site_label
_atom_site_type_symbol
_atom_type_description
_atom_site_fract_x
_atom_site_fract_y
_atom_site_fract_z
_atom_type_partial_charge
C1    C     C_R   0.497842 0.328594 0.500829 0.889482
C2    C     C_R   0.449456 0.424827 0.891932 -0.438412
C3    C     C_R   0.492483 0.501125 0.052239 -0.006757
C4    C     C_R   0.494635 0.501255 0.946135 -0.014569
C5    C     C_R   0.200987 0.497997 0.475013 0.933334
C6    C     C_R   0.798981 0.499435 0.525192 0.954457
C7    C     C_2   0.035253 0.492713 0.462348 -0.370588
C8    C     C_2   0.964742 0.499543 0.538737 -0.401692
C9    C     C_R   0.343594 0.094702 0.490259 -0.187306
C10   C     C_R   0.600968 0.911945 0.466116 -0.175561
C11   C     C_R   0.345863 0.187429 0.488324 0.129193
C12   C     C_R   0.496491 0.671871 0.499042 0.879649
C13   C     C_R   0.605234 0.819848 0.461922 0.132339
C14   C     C_R   0.493505 0.233406 0.504122 -0.026083
C15   C     C_R   0.487715 0.767825 0.497677 -0.043672
C16   C     C_R   0.636632 0.188414 0.528327 0.156139
C17   C     C_R   0.364284 0.808210 0.535189 0.157830
C18   C     C_R   0.630881 0.095948 0.534430 -0.174618
C19   C     C_R   0.365821 0.900797 0.541669 -0.179640
C20   C     C_R   0.485652 0.049114 0.512557 0.041410
C21   C     C_R   0.484432 0.952348 0.507803 0.042488
C22   C     C_3   0.191490 0.236143 0.472103 -0.957375
C23   C     C_R   0.363680 0.465492 0.092891 0.271545
C24   C     C_3   0.733196 0.778638 0.417561 -0.920314
C25   C     C_3   0.794649 0.238057 0.547053 -0.959553
C26   C     C_3   0.228533 0.754116 0.565340 -0.905674
C27   C     C_3   0.135117 0.499896 0.991385 0.132569
C28   C     C_3   0.960166 0.469827 0.975465 -0.356958
C29   C     C_3   0.923571 0.398029 0.899944 -0.836177
C30   C     C_3   0.441004 0.707549 0.937574 0.111491
C31   C     C_3   0.473874 0.788325 0.002410 -0.322180
C32   C     C_3   0.327899 0.845877 0.996129 -0.975988
C33   C     C_3   0.248392 0.326531 0.219683 0.134475
C34   C     C_R   0.542237 0.577829 0.897857 0.256466
C35   C     C_3   0.076697 0.291534 0.210092 -0.331235
C36   C     C_3   0.066979 0.189593 0.207196 -0.975645
C37   C     C_3   0.787985 0.647056 0.786064 0.115451
C38   C     C_3   0.863379 0.724178 0.736032 -0.292679
C39   C     C_3   0.040136 0.734501 0.775110 -1.044427
C40   C     C_3   0.842357 0.642835 0.238151 0.015563
C41   C     C_3   0.998104 0.607900 0.214728 -0.322192
C42   C     C_3   0.094013 0.682269 0.173565 -0.972554
C43   C     C_3   0.242063 0.319122 0.751275 0.060436
C44   C     C_3   0.245039 0.217226 0.761459 -0.327451
C45   C     C_R   0.374934 0.460065 0.193699 0.410379
C46   C     C_3   0.089642 0.178231 0.786324 -0.969582
C47   C     C_R   0.556646 0.573383 0.800083 0.396054
C48   C     C_R   0.623803 0.539321 0.214317 0.522237
C49   C     C_R   0.442169 0.426818 0.791640 0.501016
C50   C     C_R   0.622729 0.536207 0.114304 -0.433112
H1    H     H_    0.971703 0.482877 0.390772 0.212319
H2    H     H_    0.191381 0.286758 0.414680 0.248684
H3    H     H_    0.088182 0.189753 0.452168 0.247797
H4    H     H_    0.675698 0.746621 0.350906 0.265510
H5    H     H_    0.821959 0.829133 0.399525 0.227946
H6    H     H_    0.796846 0.728284 0.466606 0.238840
H7    H     H_    0.797655 0.283741 0.607896 0.250366
H8    H     H_    0.894365 0.191529 0.564289 0.244974
H9    H     H_    0.813230 0.277871 0.483041 0.246809
H10   H     H_    0.176118 0.708201 0.507589 0.229524
H11   H     H_    0.271190 0.714635 0.630620 0.271263
H12   H     H_    0.028084 0.507544 0.610836 0.170588
H13   H     H_    0.132528 0.797635 0.580084 0.235363
H14   H     H_    0.171140 0.517435 0.921674 0.128054
H15   H     H_    0.145537 0.561741 0.034298 0.093826
H16   H     H_    0.926964 0.443725 0.043131 0.220813
H17   H     H_    0.885923 0.528271 0.952829 0.159991
H18   H     H_    0.951114 0.423701 0.830649 0.228044
H19   H     H_    0.795598 0.378860 0.890848 0.250522
H20   H     H_    0.993587 0.337792 0.922214 0.279712
H21   H     H_    0.340171 0.667666 0.959399 0.112603
H22   H     H_    0.407124 0.731404 0.862709 0.169495
H23   H     H_    0.231531 0.058153 0.473424 0.141056
H24   H     H_    0.508870 0.764898 0.077159 0.218920
H25   H     H_    0.573534 0.829445 0.981608 0.227852
H26   H     H_    0.292233 0.871197 0.922224 0.269747
H27   H     H_    0.355524 0.903884 0.044030 0.270548
H28   H     H_    0.227623 0.806415 0.018302 0.264866
H29   H     H_    0.320475 0.294505 0.282261 0.156805
H30   H     H_    0.297307 0.305242 0.155830 0.141108
H31   H     H_    0.021794 0.314711 0.270612 0.222320
H32   H     H_    0.007826 0.318684 0.143503 0.236779
H33   H     H_    0.115764 0.165435 0.144821 0.268260
H34   H     H_    0.688235 0.952485 0.436016 0.141484
H35   H     H_    0.941145 0.166472 0.201117 0.267641
H36   H     H_    0.134584 0.160449 0.273204 0.275317
H37   H     H_    0.840369 0.583312 0.768349 0.130702
H38   H     H_    0.817503 0.658185 0.863937 0.161181
H39   H     H_    0.847279 0.711698 0.658343 0.219906
H40   H     H_    0.804058 0.787326 0.747452 0.232966
H41   H     H_    0.058660 0.744211 0.853255 0.266375
H42   H     H_    0.090906 0.793989 0.742105 0.277519
H43   H     H_    0.103627 0.674148 0.759419 0.260238
H44   H     H_    0.877986 0.692823 0.294210 0.175837
H45   H     H_    0.739977 0.060164 0.554516 0.140859
H46   H     H_    0.773717 0.680258 0.177574 0.144853
H47   H     H_    0.070067 0.582336 0.280751 0.255888
H48   H     H_    0.975439 0.551936 0.164286 0.219633
H49   H     H_    0.030792 0.704495 0.103108 0.257486
H50   H     H_    0.212047 0.657447 0.164987 0.260515
H51   H     H_    0.113116 0.740178 0.222166 0.270072
H52   H     H_    0.156199 0.337597 0.687257 0.151862
H53   H     H_    0.196802 0.347117 0.813226 0.142941
H54   H     H_    0.267174 0.188028 0.693793 0.236372
H55   H     H_    0.343493 0.198242 0.818577 0.229229
H56   H     H_    0.275169 0.932660 0.573445 0.137949
H57   H     H_    0.074617 0.198921 0.858693 0.267426
H58   H     H_    0.091420 0.104086 0.785138 0.267299
H59   H     H_    0.987415 0.201226 0.734408 0.274208
H60   H     H_    0.723849 0.560126 0.083688 0.204173
H61   H     H_    0.418521 0.363653 0.927234 0.215059
H62   H     H_    0.176471 0.271074 0.537827 0.253592
N1    N     N_R   0.500000 0.499980 0.252470 -0.177027
N2    N     N_R   0.500000 0.500020 0.747530 -0.178119
O1    O     O_R   0.500010 0.369070 0.579480 -0.554738
O2    O     O_3   0.579384 0.656780 0.946255 -0.648165
O3    O     O_3   0.252047 0.420303 0.232926 -0.610902
O4    O     O_3   0.621950 0.645232 0.756410 -0.598241
O5    O     O_3   0.753119 0.573906 0.276863 -0.610100
O6    O     O_3   0.395019 0.351329 0.738617 -0.596122
O7    O     O_R   0.499990 0.630930 0.420520 -0.607342
O8    O     O_R   0.500010 0.369060 0.420520 -0.636534
O9    O     O_R   0.499990 0.630940 0.579480 -0.565535
O10   O     O_R   0.271750 0.500000 0.560890 -0.613928
O11   O     O_R   0.728250 0.500000 0.439110 -0.554404
O12   O     O_R   0.271750 0.499990 0.401930 -0.588251
O13   O     O_R   0.728250 0.500010 0.598070 -0.634620
O14   O     O_3   0.229265 0.430211 0.036492 -0.619571
Zn1   Zn    Zn3+2 0.500000 0.500010 0.606140 0.988691
Zn2   Zn    Zn3+2 0.500000 0.499990 0.393860 0.993011

loop_
_geom_bond_atom_site_label_1
_geom_bond_atom_site_label_2
_ccdc_geom_bond_type
C47   N2    A    
C33   O3    S    
C23   C45   A    
C41   C42   S    
C37   H38   S    
C3    C23   A    
C35   C36   S    
O7    Zn2   S    
C26   H13   S    
C30   H21   S    
C35   H31   S    
C7    C8    D    
C30   O2    S    
C44   H55   S    
C24   H5    S    
C38   H39   S    
C25   H7    S    
C17   C26   S    
C28   C29   S    
C19   C21   A    
C26   H11   S    
C6    O13   A    
C30   C31   S    
C11   C14   A    
C49   O6    S    
O12   Zn2   S    
C36   H33   S    
C24   H4    S    
C50   H60   S    
C1    O8    A    
C39   H43   S    
C17   C19   A    
C32   H27   S    
O11   Zn2   S    
C3    C50   A    
C47   O4    S    
C37   O4    S    
C46   H58   S    
C5    O12   A    
C22   H3    S    
C18   C20   A    
C43   O6    S    
C48   C50   A    
C49   N2    A    
O9    Zn1   S    
C18   H45   S    
C9    H23   S    
C40   H46   S    
C39   H41   S    
C35   H32   S    
C44   C46   S    
C48   O5    S    
C29   H19   S    
C10   C21   A    
C44   H54   S    
C4    C34   A    
C2    H61   S    
N1    Zn2   S    
C12   O7    A    
C28   H17   S    
C5    C7    S    
C33   H29   S    
C31   H24   S    
C6    C8    S    
C36   H36   S    
C13   C24   S    
C28   H16   S    
C43   C44   S    
O13   Zn1   S    
C37   C38   S    
C27   H15   S    
C2    C49   A    
C42   H50   S    
C29   H18   S    
C27   O14   S    
C9    C20   A    
C31   H25   S    
C31   C32   S    
C5    O10   A    
C12   C15   S    
C46   H57   S    
C9    C11   A    
C40   C41   S    
C22   H62   S    
C13   C15   A    
N2    Zn1   S    
C14   C16   A    
C25   H8    S    
C3    C4    S    
C42   H51   S    
C39   H42   S    
C22   H2    S    
C29   H20   S    
O1    Zn1   S    
C45   O3    S    
C16   C25   S    
C15   C17   A    
C34   O2    S    
C37   H37   S    
C6    O11   A    
C40   H44   S    
C10   C13   A    
C32   H26   S    
C30   H22   S    
C33   H30   S    
C1    C14   S    
C36   H35   S    
C24   H6    S    
C1    O1    A    
C38   H40   S    
C11   C22   S    
C43   H52   S    
C7    H1    S    
C42   H49   S    
C38   C39   S    
C12   O9    A    
C2    C4    A    
C10   H34   S    
C33   C35   S    
O10   Zn1   S    
C41   H47   S    
C43   H53   S    
C27   H14   S    
C32   H28   S    
C19   H56   S    
C45   N1    A    
C40   O5    S    
C20   C21   S    
C16   C18   A    
C46   H59   S    
C27   C28   S    
C41   H48   S    
C48   N1    A    
C34   C47   A    
C25   H9    S    
C26   H10   S    
O8    Zn2   S    
C8    H12   S    
C23   O14   S    
