data_mof_unit_52707.cif
_audit_creation_date              2012-12-10T16:59:21-0500
_audit_creation_method            fapswitch 2.2
_symmetry_space_group_name_H-M    P1
_symmetry_Int_Tables_number       1
_space_group_crystal_system       triclinic
_cell_length_a                    7.813453
_cell_length_b                    8.542888
_cell_length_c                    27.721541
_cell_angle_alpha                 92.165037
_cell_angle_beta                  85.282994
_cell_angle_gamma                 93.506132
_cell_volume                      1839.6809522

loop_
_atom_site_label
_atom_site_type_symbol
_atom_type_description
_atom_site_fract_x
_atom_site_fract_y
_atom_site_fract_z
_atom_type_partial_charge
C1    C     C_R   0.545450 0.794492 0.498792 0.958223
C2    C     C_R   0.528500 0.640081 0.128823 -0.031411
C3    C     C_R   0.505503 0.501761 0.646423 -0.120566
C4    C     C_R   0.494581 0.498818 0.353578 -0.120754
C5    C     C_R   0.537313 0.643535 0.026673 0.047967
C6    C     C_R   0.462740 0.358656 0.973342 0.047984
C7    C     C_R   0.458243 0.358290 0.024575 0.048296
C8    C     C_R   0.541780 0.643907 0.975439 0.048291
C9    C     C_R   0.495701 0.500704 0.050879 0.077209
C10   C     C_R   0.504357 0.501485 0.949135 0.077206
C11   C     C_R   0.573179 0.781666 0.054856 -0.222102
C12   C     C_R   0.454550 0.205508 0.501208 0.958322
C13   C     C_R   0.426925 0.220512 0.945160 -0.222104
C14   C     C_R   0.568666 0.779563 0.104856 -0.125613
C15   C     C_R   0.431504 0.222597 0.895161 -0.125580
C16   C     C_R   0.501519 0.500477 0.593841 0.894931
C17   C     C_R   0.498491 0.499591 0.406159 0.895044
C18   C     C_R   0.582710 0.782367 0.949288 -0.220754
C19   C     C_R   0.417267 0.219836 0.050724 -0.220769
C20   C     C_2   0.569481 0.957967 0.498061 -0.338266
C21   C     C_2   0.430519 0.042033 0.501938 -0.338294
C22   C     C_R   0.550560 0.640289 0.822757 0.565418
C23   C     C_R   0.508377 0.501929 0.897914 -0.046918
C24   C     C_R   0.449636 0.361850 0.177248 0.565685
C25   C     C_R   0.475380 0.365297 0.820751 0.577189
C26   C     C_R   0.524892 0.636825 0.179267 0.576939
C27   C     C_R   0.359629 0.527908 0.726328 -0.121077
C28   C     C_R   0.640841 0.474365 0.273650 -0.121149
C29   C     C_R   0.355281 0.526572 0.676383 -0.151603
C30   C     C_R   0.645039 0.474998 0.323593 -0.151569
C31   C     C_R   0.659988 0.478527 0.667081 -0.212243
C32   C     C_R   0.340027 0.521810 0.332948 -0.212281
C33   C     C_R   0.664150 0.479357 0.717122 0.450604
C34   C     C_R   0.491736 0.500245 0.102099 -0.046911
C35   C     C_R   0.336014 0.521694 0.282912 0.450836
C36   C     C_R   0.513337 0.504092 0.746650 0.209760
C37   C     C_R   0.487045 0.497924 0.253358 0.209776
C38   C     C_R   0.548708 0.642288 0.873247 -0.031201
C39   C     C_R   0.451402 0.359882 0.126762 -0.031216
C40   C     C_R   0.585794 0.781182 0.899266 -0.132952
C41   C     C_R   0.414231 0.221006 0.100743 -0.132951
C42   C     C_R   0.471682 0.362074 0.871194 -0.031386
Cl1   Cl    Cl    0.039274 0.321139 0.446560 -0.492572
Cl2   Cl    Cl    0.960726 0.678857 0.553441 -0.492639
Cl3   Cl    Cl    0.858407 0.448205 0.742218 -0.591814
Cl4   Cl    Cl    0.141647 0.552432 0.257854 -0.592354
H1    H     H_    0.777185 0.459055 0.644538 0.212340
H2    H     H_    0.402634 0.113710 0.875327 0.196706
H3    H     H_    0.605936 0.894630 0.039753 0.141301
H4    H     H_    0.394184 0.107544 0.960263 0.141276
H5    H     H_    0.613581 0.894934 0.966047 0.140609
H6    H     H_    0.386321 0.107281 0.033967 0.140628
H7    H     H_    0.700919 0.008554 0.494326 0.214368
H8    H     H_    0.299081 0.991446 0.505674 0.214363
H9    H     H_    0.222650 0.540500 0.355510 0.212449
H10   H     H_    0.617790 0.890361 0.881032 0.194448
H11   H     H_    0.382214 0.111828 0.118976 0.194452
H12   H     H_    0.765675 0.456691 0.338617 0.211388
H13   H     H_    0.234711 0.545101 0.661336 0.211338
H14   H     H_    0.756952 0.455918 0.250552 0.205334
H15   H     H_    0.243663 0.546995 0.749403 0.205040
H16   H     H_    0.597584 0.888436 0.124692 0.196724
N1    N     N_R   0.514173 0.503092 0.797901 -0.345501
N2    N     N_R   0.486113 0.499022 0.202110 -0.345486
N3    N     N_2   0.950320 0.457960 0.486880 0.131524
N4    N     N_2   0.049680 0.542040 0.513120 0.131533
O1    O     O_R   0.389250 0.738570 0.503220 -0.604468
O2    O     O_2   0.412278 0.228185 0.201421 -0.504549
O3    O     O_2   0.559989 0.769806 0.205407 -0.500339
O4    O     O_2   0.440349 0.232285 0.794617 -0.500276
O5    O     O_R   0.610750 0.261430 0.496780 -0.604436
O6    O     O_R   0.678390 0.711630 0.494810 -0.580738
O7    O     O_R   0.321610 0.288370 0.505190 -0.580705
O8    O     O_R   0.355440 0.513440 0.575450 -0.608862
O9    O     O_R   0.644560 0.486560 0.424550 -0.608836
O10   O     O_R   0.644590 0.486500 0.567040 -0.591328
O11   O     O_R   0.355410 0.513500 0.432960 -0.591380
O12   O     O_2   0.587922 0.773941 0.798577 -0.504579
Zn1   Zn    Zn3+2 0.306940 0.517990 0.505620 1.097503
Zn2   Zn    Zn3+2 0.693060 0.482010 0.494380 1.097529

loop_
_geom_bond_atom_site_label_1
_geom_bond_atom_site_label_2
_ccdc_geom_bond_type
C27   C29   A    
C33   Cl3   S    
Cl2   N4    S    
C33   C36   A    
C39   C41   A    
N4    Zn1   S    
C23   C42   A    
C16   O8    A    
C35   C37   A    
C5    C11   A    
C21   H8    S    
C11   C14   A    
C22   C38   A    
C24   C39   A    
C25   N1    A    
C3    C29   A    
C26   N2    A    
C18   C40   A    
C27   H15   S    
C22   N1    A    
C19   H6    S    
C29   H13   S    
C40   H10   S    
C31   C33   A    
C36   N1    S    
O9    Zn2   S    
C32   H9    S    
C2    C34   A    
C28   H14   S    
C24   N2    A    
N3    Zn2   S    
C31   H1    S    
C12   O7    A    
C15   H2    S    
O5    Zn2   S    
C18   H5    S    
O11   Zn1   S    
C1    O6    A    
C34   C39   A    
C32   C35   A    
O1    Zn1   S    
C22   O12   S    
C12   C21   S    
C8    C18   A    
C5    C9    A    
C11   H3    S    
Cl1   N3    S    
C17   O11   A    
O7    Zn1   S    
C2    C26   A    
C3    C31   A    
C4    C32   A    
C4    C17   S    
C12   O5    A    
C7    C19   A    
O8    Zn1   S    
C13   C15   A    
C9    C34   A    
C10   C23   A    
C37   N2    S    
C7    C9    A    
C1    C20   S    
C16   O10   A    
O10   Zn2   S    
C15   C42   A    
C20   H7    S    
C25   C42   A    
C6    C10   A    
C5    C8    A    
C6    C7    A    
C27   C36   A    
C23   C38   A    
C28   C30   A    
C41   H11   S    
O6    Zn2   S    
C6    C13   A    
C38   C40   A    
C28   C37   A    
C30   H12   S    
C1    O1    A    
C2    C14   A    
C24   O2    S    
C13   H4    S    
C20   C21   D    
C8    C10   A    
N3    N4    D    
C17   O9    A    
C26   O3    S    
C25   O4    S    
C35   Cl4   S    
C4    C30   A    
C3    C16   S    
C19   C41   A    
C14   H16   S    
