data_mof_unit_40885.cif
_audit_creation_date              2012-10-26T19:15:57-0400
_audit_creation_method            fapswitch 2.2
_symmetry_space_group_name_H-M    P1
_symmetry_Int_Tables_number       1
_space_group_crystal_system       triclinic
_cell_length_a                    7.80989
_cell_length_b                    9.088594
_cell_length_c                    16.781891
_cell_angle_alpha                 89.806429
_cell_angle_beta                  94.318656
_cell_angle_gamma                 89.774401
_cell_volume                      1187.79458145

loop_
_atom_site_label
_atom_site_type_symbol
_atom_type_description
_atom_site_fract_x
_atom_site_fract_y
_atom_site_fract_z
_atom_type_partial_charge
C1    C     C_R   0.500283 0.220130 0.500911 0.581217
C2    C     C_R   0.452805 0.328660 0.142076 0.177511
C3    C     C_R   0.500434 0.406978 0.900226 0.169041
C4    C     C_R   0.371214 0.443866 0.096164 0.163682
C5    C     C_R   0.662814 0.415025 0.869399 0.183536
C6    C     C_R   0.319732 0.571725 0.135110 0.212494
C7    C     C_R   0.673301 0.446511 0.787524 -0.128604
C8    C     C_R   0.356761 0.586052 0.217434 -0.160049
C9    C     C_1   0.500290 0.065386 0.501109 0.032861
C10   C     C_1   0.499746 0.934588 0.500818 0.015184
C11   C     C_R   0.499837 0.779878 0.500268 0.560220
C12   C     C_R   0.520754 0.502023 0.652459 0.587142
C13   C     C_R   0.478339 0.496387 0.348006 0.578091
C14   C     C_R   0.524799 0.490901 0.740662 -0.053299
C15   C     C_R   0.460322 0.482660 0.260423 -0.080916
C16   C     C_R   0.368995 0.499322 0.778121 0.231602
C17   C     C_R   0.520592 0.357356 0.220944 0.163314
C18   C     C_R   0.353720 0.415515 0.846827 0.271099
Cu1   Cu    Cu3+1 0.669080 0.500010 0.500000 1.164324
Cu2   Cu    Cu3+1 0.330920 0.499990 0.500000 1.145971
H1    H     H_    0.794989 0.437946 0.761198 0.233790
H2    H     H_    0.310273 0.681195 0.248131 0.201023
H3    H     H_    0.886028 0.407945 0.265599 0.345203
H4    H     H_    0.175395 0.815778 0.670660 0.367736
H5    H     H_    0.147657 0.165990 0.097866 0.353870
H6    H     H_    0.323423 0.050272 0.761198 0.397006
H7    H     H_    0.776633 0.142088 0.932969 0.373444
H8    H     H_    0.039626 0.890772 0.113117 0.401006
N1    N     N_1   0.076820 0.499970 0.500010 -0.038435
N2    N     N_1   0.923180 0.500030 0.499990 -0.032762
N3    N     N_2   0.490819 0.390478 0.983982 -0.126560
N4    N     N_2   0.358273 0.441386 0.010938 -0.095791
O1    O     O_R   0.642760 0.288400 0.500000 -0.469150
O2    O     O_2   0.763880 0.145721 0.206925 -0.193173
O3    O     O_3   0.846301 0.347177 0.309675 -0.480972
O4    O     O_2   0.065934 0.539792 0.694614 -0.262355
O5    O     O_2   0.120891 0.685484 0.816435 -0.182398
O6    O     O_3   0.277904 0.759422 0.691725 -0.532579
O7    O     O_2   0.558690 0.105954 0.052126 -0.171476
O8    O     O_2   0.433791 0.037527 0.176472 -0.179355
O9    O     O_3   0.228837 0.130946 0.059406 -0.390815
O10   O     O_2   0.235499 0.160365 0.902351 -0.107878
O11   O     O_2   0.082831 0.263607 0.781316 -0.215807
O12   O     O_R   0.357240 0.711600 0.500000 -0.496401
O13   O     O_3   0.382100 0.146004 0.769534 -0.546791
O14   O     O_2   0.998467 0.454938 0.902702 -0.151544
O15   O     O_2   0.830848 0.408658 0.016910 -0.220415
O16   O     O_3   0.887369 0.189613 0.923870 -0.395602
O17   O     O_2   0.336469 0.794053 0.031890 -0.139119
O18   O     O_2   0.067851 0.655956 0.027656 -0.175054
O19   O     O_3   0.131962 0.837499 0.145183 -0.480579
O20   O     O_R   0.357190 0.288380 0.500000 -0.498843
O21   O     O_R   0.642810 0.711620 0.500000 -0.501263
O22   O     O_R   0.658410 0.498660 0.613920 -0.497155
O23   O     O_R   0.341590 0.501340 0.386080 -0.509101
O24   O     O_R   0.372840 0.498650 0.613930 -0.438946
O25   O     O_R   0.627160 0.501350 0.386070 -0.444532
O26   O     O_2   0.614293 0.149857 0.329793 -0.244737
S1    S     S_3+6 0.686996 0.243731 0.266886 0.095872
S2    S     S_3+6 0.200394 0.621484 0.745429 0.083828
S3    S     S_3+6 0.424090 0.144932 0.107965 0.160043
S4    S     S_3+6 0.254954 0.243777 0.826420 0.116188
S5    S     S_3+6 0.849702 0.371086 0.930837 0.142575
S6    S     S_3+6 0.212076 0.716906 0.081686 0.133583

loop_
_geom_bond_atom_site_label_1
_geom_bond_atom_site_label_2
_ccdc_geom_bond_type
H7    O16   S    
C2    C4    A    
C15   C17   A    
N1    N2    T    
O18   S6    D    
C9    C10   T    
O10   S4    D    
C8    H2    S    
N3    N4    D    
C11   O21   A    
C2    S3    S    
O9    S3    S    
O14   S5    D    
Cu2   O24   S    
O3    S1    S    
Cu1   O21   S    
C1    O20   A    
C1    O1    A    
C11   O12   A    
Cu2   O20   S    
O17   S6    D    
C12   O24   A    
Cu1   O25   S    
C2    C17   A    
C3    N3    S    
Cu1   N2    S    
C4    N4    S    
C17   S1    S    
Cu2   O23   S    
O6    S2    S    
Cu1   O22   S    
C4    C6    A    
Cu2   O12   S    
C12   C14   S    
C8    C15   A    
H3    O3    S    
Cu2   N1    S    
C13   C15   S    
O15   S5    D    
O2    S1    D    
O7    S3    D    
H8    O19   S    
C14   C16   A    
O5    S2    D    
C13   O25   A    
C10   C11   S    
O8    S3    D    
C6    S6    S    
H4    O6    S    
C3    C5    A    
O13   S4    S    
C1    C9    S    
C5    S5    S    
C3    C18   A    
C16   C18   A    
Cu1   O1    S    
H5    O9    S    
C5    C7    A    
C18   S4    S    
O16   S5    S    
C6    C8    A    
H6    O13   S    
O4    S2    D    
O26   S1    D    
C7    H1    S    
C16   S2    S    
C7    C14   A    
C12   O22   A    
O19   S6    S    
Cu1   Cu2   S    
O11   S4    D    
C13   O23   A    
