data_mof_unit_52662.cif
_audit_creation_date              2012-10-26T19:46:29-0400
_audit_creation_method            fapswitch 2.2
_symmetry_space_group_name_H-M    P1
_symmetry_Int_Tables_number       1
_space_group_crystal_system       triclinic
_cell_length_a                    10.83086
_cell_length_b                    9.490148
_cell_length_c                    15.22375
_cell_angle_alpha                 90.000266
_cell_angle_beta                  90.298178
_cell_angle_gamma                 89.999982
_cell_volume                      1564.77424682

loop_
_atom_site_label
_atom_site_type_symbol
_atom_type_description
_atom_site_fract_x
_atom_site_fract_y
_atom_site_fract_z
_atom_type_partial_charge
C1    C     C_R   0.261976 0.499989 0.499895 0.535827
C2    C     C_R   0.936148 0.628069 0.500117 -0.146812
C3    C     C_R   0.936147 0.371867 0.500146 -0.152427
C4    C     C_R   0.063853 0.628069 0.499920 -0.146817
C5    C     C_R   0.466414 0.618530 0.094158 -0.120184
C6    C     C_R   0.467185 0.375291 0.904622 -0.122585
C7    C     C_R   0.533581 0.618534 0.905843 -0.120189
C8    C     C_R   0.532830 0.375293 0.095378 -0.122601
C9    C     C_R   0.466761 0.621346 0.185601 0.210623
C10   C     C_R   0.466339 0.375507 0.813072 0.205696
C11   C     C_R   0.533231 0.621351 0.814400 0.210627
C12   C     C_R   0.738024 0.499989 0.500104 0.535847
C13   C     C_R   0.533667 0.375508 0.186929 0.205711
C14   C     C_R   0.500254 0.499144 0.233108 0.016254
C15   C     C_R   0.499743 0.499146 0.766892 0.016232
C16   C     C_R   0.499523 0.496404 0.048383 -0.052330
C17   C     C_R   0.500485 0.496404 0.951618 -0.052333
C18   C     C_R   0.871819 0.499967 0.500158 0.020893
C19   C     C_R   0.128181 0.499967 0.499838 0.020879
C20   C     C_3   0.315955 0.774130 0.230316 0.007719
C21   C     C_3   0.295025 0.933479 0.229830 -0.247508
C22   C     C_3   0.161440 0.970405 0.251019 -0.503880
C23   C     C_R   0.500127 0.499922 0.329787 0.566290
C24   C     C_3   0.308693 0.239533 0.761921 0.020613
C25   C     C_3   0.278439 0.117671 0.699835 -0.236381
C26   C     C_3   0.139476 0.094684 0.691925 -0.504377
C27   C     C_3   0.684023 0.774155 0.769690 0.007718
C28   C     C_3   0.704935 0.933508 0.770172 -0.247500
C29   C     C_3   0.838519 0.970452 0.748987 -0.503874
C30   C     C_3   0.691317 0.239489 0.238034 0.020583
C31   C     C_3   0.721582 0.117789 0.300237 -0.236410
C32   C     C_3   0.860539 0.094720 0.308084 -0.504407
C33   C     C_R   0.499872 0.499922 0.670213 0.566257
C34   C     C_R   0.407389 0.074465 0.459487 -0.000753
C35   C     C_R   0.593052 0.925539 0.539920 0.018717
C36   C     C_R   0.592612 0.074465 0.540512 -0.000778
C37   C     C_R   0.406948 0.925539 0.460079 0.018709
C38   C     C_R   0.063852 0.371868 0.499808 -0.152435
Cu1   Cu    Cu3+1 0.500000 0.640660 0.500000 0.960939
Cu2   Cu    Cu3+1 0.500000 0.359340 0.500000 0.942056
H1    H     H_    0.333354 0.130517 0.426803 0.112714
H2    H     H_    0.888097 0.728202 0.500226 0.116770
H3    H     H_    0.888085 0.271746 0.500325 0.120150
H4    H     H_    0.111903 0.728202 0.499844 0.116779
H5    H     H_    0.278622 0.728017 0.291879 0.146829
H6    H     H_    0.263696 0.728382 0.173639 0.108396
H7    H     H_    0.356756 0.984658 0.278719 0.192981
H8    H     H_    0.318615 0.976063 0.163993 0.170328
H9    H     H_    0.098056 0.921826 0.202072 0.146826
H10   H     H_    0.149413 0.086568 0.249068 0.150977
H11   H     H_    0.137204 0.932465 0.317789 0.134501
H12   H     H_    0.667746 0.869439 0.571643 0.106502
H13   H     H_    0.266594 0.337583 0.734423 0.127268
H14   H     H_    0.268086 0.217212 0.827536 0.122076
H15   H     H_    0.316165 0.141197 0.633778 0.196628
H16   H     H_    0.322486 0.019418 0.724526 0.192389
H17   H     H_    0.100578 0.067071 0.757023 0.148562
H18   H     H_    0.120616 0.006912 0.645505 0.142624
H19   H     H_    0.093480 0.191376 0.666875 0.148776
H20   H     H_    0.721367 0.728041 0.708129 0.146824
H21   H     H_    0.736284 0.728421 0.826370 0.108397
H22   H     H_    0.643201 0.984673 0.721279 0.192993
H23   H     H_    0.666647 0.130518 0.573195 0.112715
H24   H     H_    0.681333 0.976095 0.836007 0.170332
H25   H     H_    0.901905 0.921887 0.797938 0.146823
H26   H     H_    0.850532 0.086618 0.750937 0.150981
H27   H     H_    0.862763 0.932511 0.682218 0.134488
H28   H     H_    0.733495 0.337585 0.265404 0.127192
H29   H     H_    0.731843 0.216959 0.172423 0.122135
H30   H     H_    0.683953 0.141542 0.366288 0.196667
H31   H     H_    0.677446 0.019500 0.275688 0.192419
H32   H     H_    0.899344 0.066903 0.242994 0.148586
H33   H     H_    0.879409 0.007061 0.354582 0.142611
H34   H     H_    0.332254 0.869437 0.428356 0.106508
H35   H     H_    0.906620 0.191441 0.333007 0.148769
H36   H     H_    0.438993 0.713107 0.059411 0.125983
H37   H     H_    0.439625 0.280143 0.938494 0.123461
H38   H     H_    0.560996 0.713114 0.940590 0.125980
H39   H     H_    0.560395 0.280148 0.061506 0.123435
H40   H     H_    0.111914 0.271746 0.499595 0.120144
N1    N     N_R   0.500000 0.852070 0.500000 -0.215329
N2    N     N_R   0.500000 0.147930 0.500000 -0.233697
O1    O     O_R   0.319640 0.618740 0.499990 -0.522538
O2    O     O_3   0.438229 0.251929 0.769185 -0.554210
O3    O     O_3   0.555592 0.748049 0.772570 -0.550809
O4    O     O_3   0.561779 0.251935 0.230821 -0.554197
O5    O     O_R   0.680360 0.381260 0.500010 -0.525117
O6    O     O_R   0.680360 0.618740 0.500010 -0.522531
O7    O     O_R   0.319640 0.381260 0.499990 -0.525084
O8    O     O_R   0.499990 0.618780 0.371460 -0.461614
O9    O     O_R   0.500010 0.381220 0.628540 -0.462793
O10   O     O_R   0.500010 0.618780 0.628540 -0.461610
O11   O     O_R   0.499990 0.381220 0.371460 -0.462792
O12   O     O_3   0.444389 0.748042 0.227431 -0.550801

loop_
_geom_bond_atom_site_label_1
_geom_bond_atom_site_label_2
_ccdc_geom_bond_type
C37   H34   S    
C8    C13   A    
C2    C18   A    
C34   C37   A    
C35   C36   A    
C25   H16   S    
Cu2   O11   S    
C32   H35   S    
C35   N1    A    
C32   H32   S    
C7    C11   A    
C3    H3    S    
Cu2   O5    S    
C28   C29   S    
C2    H2    S    
C27   H20   S    
C33   O9    A    
C30   C31   S    
C24   H14   S    
C3    C18   A    
C27   O3    S    
C5    C16   A    
C27   H21   S    
C29   H27   S    
C4    C19   A    
C11   C15   A    
C31   H30   S    
C3    C38   A    
C36   N2    A    
C16   C17   S    
C7    C17   A    
C13   O4    S    
C8    H39   S    
Cu2   O7    S    
C30   O4    S    
C36   H23   S    
C26   H19   S    
Cu1   O8    S    
C20   H5    S    
C22   H10   S    
C21   H8    S    
C31   H31   S    
C8    C16   A    
C13   C14   A    
C37   N1    A    
C34   H1    S    
Cu1   O6    S    
C25   C26   S    
C1    C19   S    
C12   O6    A    
Cu2   N2    S    
C24   C25   S    
Cu1   N1    S    
C33   O10   A    
Cu1   Cu2   S    
C6    H37   S    
C4    H4    S    
C24   H13   S    
C23   O11   A    
C14   C23   S    
C2    C4    A    
C9    C14   A    
C5    C9    A    
C19   C38   A    
C31   C32   S    
C23   O8    A    
C26   H18   S    
C7    H38   S    
C29   H25   S    
C28   H24   S    
C22   H9    S    
Cu1   O10   S    
C32   H33   S    
C30   H29   S    
C6    C17   A    
C20   O12   S    
C1    O7    A    
C12   O5    A    
C25   H15   S    
C6    C10   A    
C1    O1    A    
C10   C15   A    
C5    H36   S    
C24   O2    S    
Cu1   O1    S    
C35   H12   S    
C38   H40   S    
C11   O3    S    
C10   O2    S    
Cu2   O9    S    
C26   H17   S    
C30   H28   S    
C29   H26   S    
C20   C21   S    
C12   C18   S    
C27   C28   S    
C34   N2    A    
C21   C22   S    
C9    O12   S    
C15   C33   S    
C20   H6    S    
C22   H11   S    
C21   H7    S    
C28   H22   S    
