data_mof_unit_8106.cif
_audit_creation_date              2012-12-11T15:30:34-0500
_audit_creation_method            fapswitch 2.2
_symmetry_space_group_name_H-M    P1
_symmetry_Int_Tables_number       1
_space_group_crystal_system       triclinic
_cell_length_a                    6.95761
_cell_length_b                    20.483937
_cell_length_c                    24.368619
_cell_angle_alpha                 89.8236
_cell_angle_beta                  90.445743
_cell_angle_gamma                 89.208825
_cell_volume                      3472.54335405

loop_
_atom_site_label
_atom_site_type_symbol
_atom_type_description
_atom_site_fract_x
_atom_site_fract_y
_atom_site_fract_z
_atom_type_partial_charge
O1    O     O_R   0.507310 0.423620 0.460450 -0.521871
O2    O     O_R   0.170760 0.556060 0.437190 -0.533042
O3    O     O_R   0.004040 0.576380 0.539550 -0.539742
C1    C     C_R   0.338457 0.576120 0.421196 0.740947
O4    O     O_R   0.177350 0.422870 0.454070 -0.542437
O5    O     O_R   0.010680 0.442240 0.556560 -0.540984
C2    C     C_R   0.346582 0.398637 0.443780 0.765891
O6    O     O_R   0.500670 0.557760 0.443440 -0.532437
O7    O     O_3   0.340380 0.506510 0.533610 -0.379418
V1    V     V_3+5 0.064130 0.498790 0.493770 1.463703
O8    O     O_R   0.681170 0.443940 0.562810 -0.541801
C3    C     C_R   0.851084 0.423859 0.578623 0.723798
O9    O     O_R   0.674570 0.577130 0.545930 -0.540857
C4    C     C_R   0.842182 0.601009 0.556827 0.682656
V2    V     V_3+5 0.564560 0.501210 0.506230 1.458665
O10   O     O_3   0.838170 0.493490 0.466390 -0.355476
C5    C     C_R   0.976629 0.836751 0.912738 -0.127391
C6    C     C_R   0.843054 0.661500 0.589733 -0.052746
C7    C     C_R   0.034323 0.720169 0.909016 -0.101259
C8    C     C_R   0.025540 0.777891 0.939090 0.233013
C9    C     C_R   0.930600 0.836399 0.856448 -0.160342
C10   C     C_R   0.921600 0.777300 0.826139 0.050321
C11   C     C_R   0.988497 0.719367 0.852583 0.038994
C12   C     C_R   0.860509 0.774572 0.769712 0.004775
C13   C     C_R   0.903646 0.717160 0.738029 -0.010164
C14   C     C_R   0.980019 0.661899 0.765668 -0.248099
C15   C     C_R   0.014677 0.661703 0.822429 0.365488
C16   C     C_R   0.750181 0.825302 0.744067 0.259930
C17   C     C_R   0.719388 0.824961 0.687609 -0.193552
C18   C     C_R   0.775311 0.771981 0.655476 0.071498
C19   C     C_R   0.862018 0.715978 0.680064 0.107520
C20   C     C_R   0.730753 0.773063 0.599204 -0.127700
C21   C     C_R   0.762337 0.718189 0.566899 -0.158110
C22   C     C_R   0.896775 0.660714 0.645607 -0.194739
H1    H     H_    0.957023 0.615494 0.660999 0.094233
H2    H     H_    0.717908 0.719248 0.524178 0.109637
H3    H     H_    0.638258 0.864981 0.669037 0.171386
H4    H     H_    0.080104 0.675944 0.930109 0.207135
H5    H     H_    0.914193 0.883105 0.836339 0.170116
H6    H     H_    0.010322 0.617103 0.744358 0.110245
H7    H     H_    0.663625 0.815793 0.580492 0.130599
C23   C     C_3   0.768899 0.257770 0.801864 -0.418087
C24   C     C_3   0.120923 0.245707 0.783582 0.146325
C25   C     C_3   0.099217 0.295566 0.735217 -0.298233
H8    H     H_    0.757531 0.356891 0.767674 0.155389
H9    H     H_    0.804076 0.285897 0.839552 0.149905
H10   H     H_    0.151063 0.273698 0.821883 0.089391
H11   H     H_    0.122866 0.345812 0.750920 0.113697
H12   H     H_    0.211391 0.286107 0.703769 0.172612
C26   C     C_1   0.864228 0.378268 0.624222 -0.177786
C27   C     C_3   0.931304 0.206762 0.790722 0.160228
C28   C     C_3   0.744189 0.305858 0.752734 -0.348866
C29   C     C_3   0.896852 0.291871 0.708089 0.170902
C30   C     C_3   0.868141 0.221200 0.687143 -0.372419
C31   C     C_3   0.888677 0.170995 0.735421 0.262753
C32   C     C_1   0.877934 0.339621 0.662042 -0.048662
C33   C     C_1   0.947675 0.159534 0.837340 -0.028215
C34   C     C_1   0.960258 0.121275 0.875456 -0.156105
H13   H     H_    0.012933 0.138165 0.726223 0.172001
H14   H     H_    0.724948 0.217412 0.666816 0.172434
H15   H     H_    0.631024 0.233194 0.810116 0.184947
H16   H     H_    0.597302 0.301120 0.734892 0.173485
H17   H     H_    0.977257 0.209623 0.655323 0.157037
C35   C     C_3   0.537185 0.680769 0.249181 -0.306518
C36   C     C_3   0.190801 0.718687 0.258393 0.092508
C37   C     C_3   0.219803 0.767732 0.209786 0.104420
H18   H     H_    0.495242 0.632270 0.233114 0.234255
H19   H     H_    0.084236 0.739281 0.287644 0.142713
H20   H     H_    0.184501 0.743581 0.170299 0.219840
C38   C     C_1   0.476549 0.877948 0.124365 -0.060552
C39   C     C_3   0.383699 0.706390 0.290072 0.114550
C40   C     C_3   0.566877 0.730191 0.201217 0.118227
C41   C     C_3   0.432383 0.791270 0.207766 0.066676
C42   C     C_3   0.482632 0.822593 0.264022 -0.354771
C43   C     C_3   0.452915 0.773324 0.311886 -0.401819
C44   C     C_1   0.460443 0.839179 0.162025 0.105856
C45   C     C_1   0.360828 0.659497 0.336796 0.012346
C46   C     C_1   0.347161 0.621394 0.375060 -0.148083
H21   H     H_    0.590436 0.766713 0.335020 0.174958
H22   H     H_    0.345716 0.793825 0.341034 0.182128
H23   H     H_    0.634651 0.838609 0.264170 0.203789
H24   H     H_    0.675991 0.673094 0.271384 0.171648
H25   H     H_    0.718701 0.746294 0.202383 0.182574
H26   H     H_    0.393023 0.867108 0.270953 0.224437
C47   C     C_R   0.466425 0.161462 0.089102 -0.037912
C48   C     C_R   0.353545 0.336483 0.412978 -0.168446
C49   C     C_R   0.447701 0.279260 0.092229 -0.147934
C50   C     C_R   0.463726 0.221717 0.062266 -0.174053
C51   C     C_R   0.454245 0.158976 0.146624 -0.202359
C52   C     C_R   0.435368 0.217064 0.178282 0.099964
C53   C     C_R   0.432679 0.277522 0.149641 0.131532
C54   C     C_R   0.415566 0.217425 0.236956 0.013496
C55   C     C_R   0.406230 0.278122 0.265976 0.061220
C56   C     C_R   0.392486 0.336228 0.234901 -0.172470
C57   C     C_R   0.408748 0.335929 0.178163 -0.184108
C58   C     C_R   0.395155 0.159288 0.267198 -0.189468
C59   C     C_R   0.356715 0.159910 0.323103 0.294308
C60   C     C_R   0.350697 0.219197 0.352132 -0.049807
C61   C     C_R   0.392908 0.278627 0.324860 -0.050747
C62   C     C_R   0.301418 0.219969 0.407940 -0.089462
C63   C     C_R   0.294898 0.277681 0.437926 0.275762
C64   C     C_R   0.415430 0.336060 0.357932 0.262500
H27   H     H_    0.398900 0.382015 0.156250 0.153474
H28   H     H_    0.444809 0.325406 0.070331 0.129669
H29   H     H_    0.472918 0.224155 0.017941 0.104766
H30   H     H_    0.460502 0.111131 0.165081 0.103556
H31   H     H_    0.359423 0.382735 0.253480 0.187613
H32   H     H_    0.397794 0.112035 0.248042 0.157676
H33   H     H_    0.262667 0.175612 0.429059 0.203443
O11   O     O_R   0.323590 0.942280 0.056590 -0.522429
O12   O     O_R   0.647030 0.077140 0.045940 -0.543995
O13   O     O_R   0.813570 0.057750 0.943430 -0.537617
C65   C     C_R   0.477558 0.101101 0.056536 0.672305
O14   O     O_R   0.653510 0.943950 0.062820 -0.529434
O15   O     O_R   0.820100 0.923600 0.960440 -0.525772
C66   C     C_R   0.485791 0.923773 0.078695 0.740422
O16   O     O_R   0.317060 0.076430 0.039590 -0.543007
O17   O     O_3   0.483830 0.993520 0.966410 -0.363063
V3    V     V_3+5 0.760140 0.001200 0.006230 1.519752
O18   O     O_R   0.149560 0.922820 0.954030 -0.525972
C67   C     C_R   0.981720 0.898799 0.943423 0.777973
O19   O     O_R   0.143080 0.056020 0.937150 -0.543243
C68   C     C_R   0.973169 0.076022 0.921288 0.710670
V4    V     V_3+5 0.259690 0.998730 0.993720 1.523571
O20   O     O_3   0.986120 0.006480 0.033580 -0.367765
O21   O     O_3   0.081642 0.605935 0.848947 -0.639434
H34   H     H_    0.092203 0.569624 0.822280 0.289460
O22   O     O_3   0.276600 0.203198 0.773195 -0.663623
H35   H     H_    0.315748 0.183441 0.808878 0.286926
O23   O     O_3   0.726868 0.130746 0.739194 -0.619745
H36   H     H_    0.610518 0.159121 0.739800 0.333938
Br1   Br    Br    0.535549 0.687221 0.130244 -0.394405
Br2   Br    Br    0.078808 0.637643 0.231553 -0.520560
Br3   Br    Br    0.036950 0.840878 0.214615 -0.604789
O24   O     O_3   0.509299 0.390695 0.339510 -0.646398
H37   H     H_    0.612790 0.375785 0.314562 0.301388
O25   O     O_3   0.236892 0.273234 0.491974 -0.632194
H38   H     H_    0.252644 0.315509 0.510794 0.279796
Br4   Br    Br    0.315543 0.076485 0.357423 -0.505636
Br5   Br    Br    0.089406 0.774604 0.015930 -0.445848
Br6   Br    Br    0.589358 0.887267 0.782563 -0.543788

loop_
_geom_bond_atom_site_label_1
_geom_bond_atom_site_label_2
_ccdc_geom_bond_type
C25   H12   S    
C13   C19   A    
C18   C20   A    
C49   C50   A    
C55   C56   A    
O15   C67   A    
C49   C53   A    
C41   C42   S    
C4    C6    S    
O2    C1    A    
C7    C8    A    
C1    O6    A    
C14   H6    S    
O22   H35   S    
C21   H2    S    
C59   C60   A    
C52   C53   A    
O24   H37   S    
C30   H14   S    
C45   C46   T    
O18   C67   A    
C14   C15   A    
O21   H34   S    
C16   C17   A    
O16   V4    S    
C31   H13   S    
O5    C3    A    
C18   C19   A    
C15   O21   S    
C29   C32   S    
C37   H20   S    
C30   H17   S    
V2    O10   S    
C54   C58   A    
C5    C8    A    
O12   V3    S    
C22   H1    S    
C23   H9    S    
C35   C39   S    
O17   V3    S    
C62   C63   A    
O11   V4    S    
C37   Br3   S    
O8    V2    S    
C25   C29   S    
C51   H30   S    
C20   H7    S    
O1    V2    S    
C11   C15   A    
C43   H22   S    
C55   C61   A    
C27   C31   S    
O14   V3    S    
C23   C27   S    
C36   H19   S    
C58   H32   S    
C62   H33   S    
O9    C4    A    
C57   H27   S    
C40   Br1   S    
C56   H31   S    
C42   C43   S    
C35   H18   S    
C12   C13   A    
O13   C68   A    
O4    C2    A    
C63   O25   S    
H8    C28   S    
C38   C66   S    
C13   C14   A    
C36   C39   S    
C37   C41   S    
C26   C32   T    
O14   C66   A    
C7    C11   A    
C24   C25   S    
C1    C46   S    
C17   C18   A    
C7    H4    S    
C52   C54   A    
C9    H5    S    
C31   O23   S    
C58   C59   A    
C34   C68   S    
C19   C22   A    
O12   C65   A    
O17   V4    S    
C6    C22   A    
C23   H15   S    
C35   H24   S    
O3    C4    A    
C27   C33   S    
V3    O20   S    
C5    C67   S    
C36   C37   S    
O6    V2    S    
C60   C62   A    
O9    V2    S    
C38   C44   T    
C64   O24   S    
C41   C44   S    
C65   O16   A    
C42   H23   S    
O19   V4    S    
O2    V1    S    
O11   C66   A    
C39   C45   S    
C28   C29   S    
O7    V1    S    
C47   C50   A    
C30   C31   S    
C47   C51   A    
O1    C2    A    
C12   C16   A    
C42   H26   S    
C40   C41   S    
C24   O22   S    
O5    V1    S    
O13   V3    S    
C3    C26   S    
O8    C3    A    
C29   C30   S    
O25   H38   S    
O15   V3    S    
C20   C21   A    
C8    Br5   S    
C47   C65   S    
O23   H36   S    
O7    V2    S    
O4    V1    S    
O3    V1    S    
V1    O10   S    
C39   C43   S    
C50   H29   S    
C24   C27   S    
C33   C34   T    
C24   H10   S    
C54   C55   A    
C10   C12   A    
C35   C40   S    
C56   C57   A    
C6    C21   A    
C5    C9    A    
C40   H25   S    
C53   C57   A    
C49   H28   S    
C2    C48   S    
C25   H11   S    
C61   C64   A    
C60   C61   A    
C17   H3    S    
O19   C68   A    
C10   C11   A    
C28   H16   S    
C16   Br6   S    
C51   C52   A    
C9    C10   A    
C48   C63   A    
C43   H21   S    
C59   Br4   S    
C36   Br2   S    
O18   V4    S    
C23   C28   S    
V4    O20   S    
C48   C64   A    
