data_mof_unit_49554.cif
_audit_creation_date              2012-12-11T16:05:02-0500
_audit_creation_method            fapswitch 2.2
_symmetry_space_group_name_H-M    P1
_symmetry_Int_Tables_number       1
_space_group_crystal_system       triclinic
_cell_length_a                    10.581122
_cell_length_b                    10.630193
_cell_length_c                    16.916818
_cell_angle_alpha                 98.54373
_cell_angle_beta                  98.585305
_cell_angle_gamma                 61.988338
_cell_volume                      1654.33939593

loop_
_atom_site_label
_atom_site_type_symbol
_atom_type_description
_atom_site_fract_x
_atom_site_fract_y
_atom_site_fract_z
_atom_type_partial_charge
C1    C     C_R   0.351438 0.783036 0.401903 0.546027
C2    C     C_3   0.686165 0.322166 0.236478 -0.149015
C3    C     C_3   0.749016 0.384744 0.309757 0.039569
C4    C     C_3   0.902385 0.282138 0.290015 -0.117949
C5    C     C_3   0.897348 0.395673 0.241257 -0.114001
C6    C     C_3   0.743356 0.498847 0.262185 -0.088751
C7    C     C_3   0.680903 0.436575 0.187125 -0.112660
C8    C     C_3   0.834271 0.333644 0.167231 0.056411
C9    C     C_3   0.433868 0.836547 0.225542 0.276038
C10   C     C_3   0.376977 0.742228 0.252277 -0.087038
C11   C     C_3   0.330487 0.847158 0.327840 0.021876
C12   C     C_R   0.369197 0.345998 0.359287 0.531056
C13   C     C_3   0.391306 0.939627 0.302432 -0.146783
C14   C     C_3   0.241453 0.028942 0.257674 -0.188829
C15   C     C_3   0.181920 0.935847 0.285514 -0.139812
C16   C     C_3   0.227950 0.831054 0.209846 -0.130631
C17   C     C_3   0.287098 0.923205 0.182349 0.062058
C18   C     C_3   0.430543 0.340264 0.784589 -0.143842
C19   C     C_3   0.314662 0.451482 0.729094 -0.165739
C20   C     C_3   0.337037 0.329662 0.661967 0.016428
C21   C     C_3   0.450214 0.220359 0.717494 0.285767
C22   C     C_3   0.332636 0.194697 0.744223 -0.154627
C23   C     C_R   0.706872 0.415127 0.390672 0.562622
C24   C     C_3   0.217467 0.305897 0.688072 -0.145376
C25   C     C_3   0.197587 0.425099 0.756390 0.275062
C26   C     C_3   0.312054 0.316599 0.811065 0.023280
C27   C     C_1   0.817237 0.342013 0.709660 -0.003951
C28   C     C_1   0.843445 0.314916 0.778130 -0.004889
C29   C     C_1   0.356281 0.770244 0.714155 -0.072618
C30   C     C_1   0.325022 0.815406 0.781671 -0.075024
C31   C     C_R   0.892387 0.310277 0.091114 0.544968
C32   C     C_R   0.318365 0.298287 0.120678 0.531576
C33   C     C_R   0.256378 0.960253 0.099447 0.571161
C34   C     C_R   0.378420 0.718338 0.631997 0.555234
C35   C     C_R   0.884307 0.299490 0.860963 0.554993
C36   C     C_R   0.305847 0.291362 0.890425 0.549502
C37   C     C_R   0.282059 0.881020 0.859561 0.552636
C38   C     C_R   0.367280 0.345122 0.584976 0.543788
C39   C     C_R   0.774191 0.379680 0.629655 0.554665
C40   C     C_1   0.340557 0.334465 0.275698 -0.074395
C41   C     C_1   0.329094 0.324067 0.204453 -0.076302
C42   C     C_3   0.841060 0.218732 0.215153 -0.120411
Cr1   Cr    Cr6+3 0.608340 0.611040 0.520430 0.985715
Cr2   Cr    Cr6+3 0.287650 0.601120 0.489350 1.012993
Cr3   Cr    Cr6+3 0.604040 0.287870 0.490280 1.014065
Cr4   Cr    Cr6+3 0.054020 0.052700 0.970850 0.996922
Cr5   Cr    Cr6+3 0.059230 0.375120 0.993390 1.013049
Cr6   Cr    Cr6+3 0.374950 0.061200 0.992340 1.015659
H1    H     H_    0.601330 0.289758 0.236977 0.125794
H2    H     H_    0.188460 0.146749 0.256593 0.105463
H3    H     H_    0.079010 0.973600 0.312072 0.127941
H4    H     H_    0.161016 0.785478 0.172481 0.133286
H5    H     H_    0.303975 0.557042 0.721067 0.109009
H6    H     H_    0.517324 0.353138 0.825044 0.119459
H7    H     H_    0.338881 0.090265 0.752699 0.119651
H8    H     H_    0.130554 0.293529 0.647512 0.126756
H9    H     H_    0.881712 0.103638 0.193895 0.119418
H10   H     H_    0.988655 0.225058 0.336560 0.123575
H11   H     H_    0.985170 0.425271 0.241778 0.121254
H12   H     H_    0.707200 0.611070 0.287812 0.161897
H13   H     H_    0.592253 0.497667 0.142559 0.148116
H14   H     H_    0.430322 0.624235 0.252542 0.097841
H15   H     H_    0.456363 0.983866 0.342922 0.115073
O1    O     O_R   0.751220 0.499230 0.435170 -0.522066
O2    O     O_R   0.297880 0.469080 0.560050 -0.514205
O3    O     O_R   0.489720 0.254590 0.564810 -0.483514
O4    O     O_R   0.725220 0.304230 0.585080 -0.481624
O5    O     O_3   0.500010 0.500010 0.500020 -0.288298
O6    O     O_R   0.171830 0.913880 0.057510 -0.533113
O7    O     O_R   0.940690 0.186050 0.054730 -0.525029
O8    O     O_R   0.920470 0.405720 0.075010 -0.519013
O9    O     O_R   0.196690 0.370460 0.084120 -0.504764
O10   O     O_R   0.412990 0.180750 0.091610 -0.536373
O11   O     O_R   0.366620 0.943130 0.065760 -0.466566
O12   O     O_R   0.477220 0.727600 0.436870 -0.525178
O13   O     O_R   0.160510 0.906330 0.879210 -0.525937
O14   O     O_R   0.930190 0.179050 0.889450 -0.493467
O15   O     O_R   0.909140 0.398170 0.896710 -0.496312
O16   O     O_R   0.186190 0.363460 0.918830 -0.478254
O17   O     O_R   0.401670 0.173200 0.913310 -0.518463
O18   O     O_R   0.356120 0.936130 0.900470 -0.490325
O19   O     O_3   0.162740 0.163010 0.985530 -0.278319
O20   O     O_R   0.258650 0.745120 0.411470 -0.509036
O21   O     O_R   0.297070 0.467240 0.395960 -0.494250
O22   O     O_R   0.488830 0.252610 0.387790 -0.537267
O23   O     O_R   0.724400 0.302390 0.420980 -0.498922
O24   O     O_R   0.752100 0.501210 0.612190 -0.508474
O25   O     O_R   0.478040 0.729440 0.600970 -0.514616
O26   O     O_R   0.259530 0.747110 0.588490 -0.504637
O27   O     O_3   0.589345 0.116344 0.698392 -0.531750
C43   C     C_3   0.585911 0.989838 0.661393 0.016469
H16   H     H_    0.497340 0.012527 0.612207 0.140534
H17   H     H_    0.572844 0.932003 0.706754 0.137220
C44   C     C_3   0.727552 0.892850 0.625436 -0.337227
H18   H     H_    0.818333 0.866767 0.673063 0.156666
H19   H     H_    0.726967 0.791934 0.597102 0.131520
H20   H     H_    0.742994 0.947040 0.579099 0.154502
O28   O     O_3   0.059510 0.526653 0.778049 -0.533526
C45   C     C_3   0.065010 0.648876 0.820402 0.017395
H21   H     H_    0.077388 0.712576 0.778307 0.144416
H22   H     H_    0.154857 0.620058 0.869066 0.136172
C46   C     C_3   0.924766 0.741500 0.858606 -0.336679
H23   H     H_    0.910472 0.681373 0.902004 0.161150
H24   H     H_    0.926544 0.839632 0.890922 0.117629
H25   H     H_    0.832665 0.773016 0.811663 0.155748
O29   O     O_3   0.561747 0.779383 0.187117 -0.563810
C47   C     C_3   0.628617 0.869019 0.206791 -0.000937
H26   H     H_    0.673222 0.863432 0.270772 0.114379
H27   H     H_    0.552092 0.982041 0.195989 0.165228
C48   C     C_3   0.752255 0.818125 0.154873 -0.344106
H28   H     H_    0.711020 0.823614 0.090469 0.165468
H29   H     H_    0.806616 0.887221 0.170336 0.081365
H30   H     H_    0.831535 0.705956 0.165195 0.165183

loop_
_geom_bond_atom_site_label_1
_geom_bond_atom_site_label_2
_ccdc_geom_bond_type
C18   C21   S    
C3    C23   S    
C2    C7    S    
C1    C11   S    
Cr5   O16   S    
C3    C6    S    
Cr4   O13   S    
C7    C8    S    
C32   O9    A    
C12   O22   A    
Cr1   O25   S    
C8    C42   S    
C5    C6    S    
O29   C47   S    
C15   C16   S    
Cr6   O18   S    
C12   O21   A    
C46   H25   S    
C18   C19   S    
Cr5   O19   S    
C9    C13   S    
C48   H28   S    
C7    H13   S    
Cr4   O6    S    
Cr4   O19   S    
C11   C15   S    
C31   O7    A    
C19   C20   S    
C28   C35   S    
C27   C39   S    
Cr1   O5    S    
C23   O23   A    
C18   C26   S    
Cr3   O4    S    
C32   C41   S    
C15   H3    S    
C9    C10   S    
C33   O6    A    
Cr2   O20   S    
C31   O8    A    
C21   C22   S    
C47   H27   S    
C14   C17   S    
C37   O18   A    
Cr2   O2    S    
C10   H14   S    
C17   C33   S    
C42   H9    S    
Cr1   O1    S    
C21   O27   S    
Cr1   O12   S    
C5    H11   S    
C46   H23   S    
C1    O12   A    
Cr6   O11   S    
C24   C25   S    
C36   O17   A    
C43   H16   S    
C16   C17   S    
C44   H20   S    
C9    O29   S    
C29   C34   S    
C35   O14   A    
C30   C37   S    
C12   C40   S    
C44   H19   S    
C29   C30   T    
C2    H1    S    
C6    H12   S    
C43   H17   S    
C20   C38   S    
C25   O28   S    
C45   H21   S    
C13   H15   S    
C38   O2    A    
C47   H26   S    
Cr3   O5    S    
C34   O25   A    
C46   H24   S    
C48   H30   S    
Cr5   O8    S    
C6    C7    S    
C9    C17   S    
C23   O1    A    
C45   H22   S    
C37   O13   A    
C47   C48   S    
C22   C24   S    
Cr2   O5    S    
C1    O20   A    
C3    C4    S    
C32   O10   A    
C26   C36   S    
C38   O3    A    
C40   C41   T    
C8    C31   S    
C39   O4    A    
Cr6   O10   S    
C16   H4    S    
C4    C5    S    
Cr2   O21   S    
C36   O16   A    
C5    C8    S    
C22   H7    S    
C24   H8    S    
Cr4   O14   S    
C35   O15   A    
Cr3   O22   S    
Cr1   O24   S    
Cr6   O17   S    
C2    C3    S    
C25   C26   S    
C34   O26   A    
C10   C16   S    
C43   C44   S    
C11   C13   S    
C19   H5    S    
O27   C43   S    
C14   H2    S    
C4    C42   S    
C2    C42   S    
C39   O24   A    
Cr6   O19   S    
Cr3   O23   S    
C44   H18   S    
C19   C25   S    
C48   H29   S    
Cr5   O9    S    
Cr4   O7    S    
C10   C11   S    
C18   H6    S    
C33   O11   A    
C45   C46   S    
C20   C21   S    
O28   C45   S    
C22   C26   S    
C4    H10   S    
Cr3   O3    S    
C14   C15   S    
Cr5   O15   S    
C13   C14   S    
C20   C24   S    
Cr2   O26   S    
C27   C28   T    
