data_mof_unit_58494.cif
_audit_creation_date              2012-12-11T17:08:34-0500
_audit_creation_method            fapswitch 2.2
_symmetry_space_group_name_H-M    P1
_symmetry_Int_Tables_number       1
_space_group_crystal_system       triclinic
_cell_length_a                    6.948581
_cell_length_b                    14.540065
_cell_length_c                    16.079118
_cell_angle_alpha                 90.013265
_cell_angle_beta                  89.869784
_cell_angle_gamma                 89.933782
_cell_volume                      1624.51330007

loop_
_atom_site_label
_atom_site_type_symbol
_atom_type_description
_atom_site_fract_x
_atom_site_fract_y
_atom_site_fract_z
_atom_type_partial_charge
O1    O     O_R   0.505700 0.583890 0.413310 -0.539925
O2    O     O_R   0.175960 0.594920 0.586080 -0.539477
O3    O     O_R   0.005660 0.416110 0.586690 -0.534838
C1    C     C_R   0.344739 0.618008 0.613914 0.707172
O4    O     O_R   0.175980 0.594920 0.413930 -0.545834
O5    O     O_R   0.005680 0.416110 0.413310 -0.545079
C2    C     C_R   0.344774 0.616857 0.385192 0.696667
O6    O     O_R   0.505680 0.583890 0.586690 -0.537697
O7    O     O_3   0.339200 0.441330 0.500000 -0.363368
V1    V     V_3+5 0.064350 0.510880 0.500000 1.417415
O8    O     O_R   0.675960 0.405080 0.413920 -0.541452
C3    C     C_R   0.845165 0.383199 0.385006 0.680007
O9    O     O_R   0.675940 0.405080 0.586070 -0.516209
C4    C     C_R   0.844673 0.382196 0.614299 0.760517
V2    V     V_3+5 0.564340 0.489120 0.500000 1.436764
O10   O     O_3   0.839360 0.558670 0.500000 -0.375647
C5    C     C_R   0.026579 0.295186 0.723622 -0.062455
C6    C     C_R   0.855650 0.309447 0.679129 -0.151558
C7    C     C_R   0.700154 0.248837 0.696351 0.429657
C8    C     C_R   0.712250 0.186088 0.763488 -0.276037
H1    H     H_    0.588101 0.143924 0.777822 0.136357
C9    C     C_R   0.879905 0.179538 0.812590 -0.099894
C10   C     C_R   0.038935 0.231725 0.787825 -0.045361
C11   C     C_3   0.171493 0.291107 0.837399 0.323559
C12   C     C_3   0.157310 0.361529 0.766648 0.311025
H2    H     H_    0.317520 0.259423 0.842920 0.010237
H3    H     H_    0.292863 0.371643 0.730625 0.069116
C13   C     C_R   0.723064 0.185806 0.239059 0.107107
C14   C     C_R   0.880983 0.183224 0.184869 -0.097649
C15   C     C_R   0.034715 0.243271 0.201748 -0.184992
H4    H     H_    0.158872 0.244153 0.161382 0.125879
C16   C     C_R   0.023868 0.307280 0.267371 -0.173398
H5    H     H_    0.140298 0.355627 0.275586 0.129153
C17   C     C_R   0.858891 0.313101 0.318234 -0.104468
C18   C     C_R   0.712360 0.248959 0.304274 0.082405
C19   C     C_3   0.503776 0.265795 0.289745 -0.408517
C20   C     C_3   0.515630 0.197348 0.218658 -0.406323
H6    H     H_    0.475216 0.337370 0.268803 0.169134
H7    H     H_    0.413565 0.241497 0.342516 0.171255
H8    H     H_    0.494617 0.229180 0.156443 0.165192
H9    H     H_    0.430989 0.133795 0.229990 0.165839
C21   C     C_R   0.499866 0.681041 0.742599 -0.012045
C22   C     C_R   0.352585 0.684431 0.683629 -0.089855
C23   C     C_R   0.204089 0.748809 0.697651 -0.179558
H10   H     H_    0.084260 0.753173 0.655050 0.115416
C24   C     C_R   0.215732 0.812622 0.763725 -0.124535
H11   H     H_    0.104573 0.864428 0.769583 0.110276
C25   C     C_R   0.374934 0.813059 0.818347 -0.125711
C26   C     C_R   0.508143 0.741485 0.809336 0.005806
C27   C     C_3   0.724553 0.739000 0.808569 0.358058
C28   C     C_3   0.712950 0.673909 0.733959 -0.438885
H12   H     H_    0.786945 0.806971 0.792413 0.064855
H13   H     H_    0.767344 0.603222 0.745722 0.199804
H14   H     H_    0.764280 0.705371 0.675040 0.138093
C29   C     C_R   0.487330 0.756962 0.316864 0.008866
C30   C     C_R   0.351997 0.685813 0.317573 -0.098013
C31   C     C_R   0.218239 0.683189 0.251919 -0.195551
H15   H     H_    0.110557 0.629405 0.250468 0.130862
C32   C     C_R   0.232982 0.744189 0.183800 0.150332
C33   C     C_R   0.376581 0.813518 0.182276 -0.158569
C34   C     C_R   0.496069 0.820706 0.252143 -0.030124
C35   C     C_3   0.712387 0.824213 0.258027 0.359441
C36   C     C_3   0.700402 0.754443 0.328680 -0.428081
H16   H     H_    0.781832 0.795457 0.201626 0.121899
H17   H     H_    0.744679 0.781363 0.390390 0.173707
H18   H     H_    0.763863 0.686600 0.312134 0.151739
O11   O     O_R   0.229000 0.916070 0.913330 -0.528641
O12   O     O_R   0.558770 0.905070 0.086080 -0.533827
O13   O     O_R   0.729000 0.083900 0.086690 -0.539167
C37   C     C_R   0.389560 0.881693 0.113793 0.748458
O14   O     O_R   0.558720 0.905070 0.913930 -0.542534
O15   O     O_R   0.728960 0.083900 0.913310 -0.551797
C38   C     C_R   0.389660 0.882818 0.885302 0.703831
O16   O     O_R   0.229050 0.916070 0.086710 -0.514942
O17   O     O_3   0.395460 0.058650 0.000020 -0.391774
V3    V     V_3+5 0.670340 0.989120 0.000000 1.470109
O18   O     O_R   0.058670 0.094960 0.913900 -0.549843
C39   C     C_R   0.889828 0.116295 0.884687 0.726480
O19   O     O_R   0.058720 0.094960 0.086050 -0.550447
C40   C     C_R   0.889657 0.117311 0.114573 0.726247
V4    V     V_3+5 0.170330 0.010930 0.999970 1.447226
O20   O     O_3   0.895340 0.941350 0.999980 -0.341004
O21   O     O_3   0.529782 0.255209 0.652653 -0.557655
C41   C     C_3   0.532681 0.188965 0.588685 -0.256365
H19   H     H_    0.654973 0.200682 0.545055 0.116307
H20   H     H_    0.397742 0.195304 0.552373 0.158047
H21   H     H_    0.538354 0.117943 0.614407 0.121408
O22   O     O_3   0.817943 0.699256 0.878990 -0.530473
C42   C     C_3   0.706024 0.632767 0.921594 -0.122454
H22   H     H_    0.644339 0.580220 0.879208 0.113510
H23   H     H_    0.590294 0.666785 0.958250 0.137954
H24   H     H_    0.800047 0.595361 0.965730 0.179473
I1    I     I_    0.058718 0.715406 0.078942 -0.446022
O23   O     O_3   0.799510 0.909206 0.281471 -0.540633
C43   C     C_3   0.679053 0.967219 0.329340 -0.207712
H25   H     H_    0.622069 0.931952 0.385481 0.125279
H26   H     H_    0.559381 0.994493 0.290909 0.128944
H27   H     H_    0.765142 0.026716 0.351028 0.147137
O24   O     O_3   0.081477 0.321610 0.911632 -0.523502
C44   C     C_3   0.211346 0.315433 0.978564 -0.243451
H28   H     H_    0.141950 0.345206 0.034615 0.157683
H29   H     H_    0.345039 0.355278 0.966186 0.118607
H30   H     H_    0.247081 0.242447 0.992177 0.151276
O25   O     O_3   0.057420 0.442912 0.788536 -0.535005
C45   C     C_3   0.188992 0.508077 0.819573 -0.167330
H31   H     H_    0.311030 0.519255 0.776048 0.092974
H32   H     H_    0.244397 0.487081 0.881397 0.153023
H33   H     H_    0.113456 0.574775 0.827307 0.198097

loop_
_geom_bond_atom_site_label_1
_geom_bond_atom_site_label_2
_ccdc_geom_bond_type
C29   C30   A    
C36   H17   S    
O17   V3    S    
C11   O24   S    
C4    C6    S    
C43   H25   S    
C41   H21   S    
C1    O6    A    
V4    O20   S    
C43   H27   S    
O18   C39   A    
C45   H32   S    
C5    C10   A    
C19   C20   S    
C11   H2    S    
C6    C7    A    
C20   H8    S    
O5    C3    A    
C15   H4    S    
C31   C32   A    
V2    O10   S    
O14   C38   A    
C30   C31   A    
O13   V3    S    
C17   C18   A    
C35   H16   S    
O8    V2    S    
O24   C44   S    
C13   C18   A    
C29   C36   S    
C37   O16   A    
C27   H12   S    
C10   C11   S    
O11   C38   A    
C33   C37   S    
C42   H23   S    
C14   C15   A    
O7    V1    S    
C27   O22   S    
C21   C28   S    
C36   H18   S    
C32   C33   A    
O9    C4    A    
C34   C35   S    
C2    C30   S    
C7    O21   S    
O25   C45   S    
C23   C24   A    
C27   C28   S    
C45   H33   S    
C24   C25   A    
C11   C12   S    
C9    C39   S    
V3    O20   S    
O19   V4    S    
O17   V4    S    
C44   H30   S    
C33   C34   A    
C28   H13   S    
C18   C19   S    
C16   C17   A    
O2    C1    A    
C22   C23   A    
C35   C36   S    
O21   C41   S    
O18   V4    S    
C8    H1    S    
C44   H29   S    
C5    C6    A    
O15   V3    S    
C41   H19   S    
C42   H24   S    
O3    C4    A    
O1    V2    S    
C25   C26   A    
C8    C9    A    
O11   V4    S    
O6    V2    S    
C35   O23   S    
C12   H3    S    
C21   C22   A    
O16   V4    S    
C3    C17   S    
O2    V1    S    
C23   H10   S    
O4    C2    A    
C24   H11   S    
C13   C14   A    
O1    C2    A    
C25   C38   S    
C19   H7    S    
C41   H20   S    
O5    V1    S    
O8    C3    A    
C43   H26   S    
C12   O25   S    
C1    C22   S    
O12   V3    S    
C45   H31   S    
C28   H14   S    
C5    C12   S    
C16   H5    S    
C7    C8    A    
O9    V2    S    
O7    V2    S    
O4    V1    S    
O3    V1    S    
V1    O10   S    
C15   C16   A    
C31   H15   S    
O14   V3    S    
C14   C40   S    
C13   C20   S    
C29   C34   A    
C19   H6    S    
C44   H28   S    
C20   H9    S    
O23   C43   S    
C21   C26   A    
O19   C40   A    
O22   C42   S    
O12   C37   A    
C26   C27   S    
O15   C39   A    
C9    C10   A    
O13   C40   A    
C32   I1    S    
C42   H22   S    
