data_mof_unit_36894.cif
_audit_creation_date              2013-03-05T15:59:14-0500
_audit_creation_method            fapswitch 2.2
_symmetry_space_group_name_H-M    P1
_symmetry_Int_Tables_number       1
_space_group_crystal_system       triclinic
_cell_length_a                    15.076093
_cell_length_b                    13.848898
_cell_length_c                    23.553913
_cell_angle_alpha                 89.913553
_cell_angle_beta                  87.990129
_cell_angle_gamma                 90.328894
_cell_volume                      4914.6437184

loop_
_atom_site_label
_atom_site_type_symbol
_atom_site_description
_atom_site_fract_x
_atom_site_fract_y
_atom_site_fract_z
_atom_type_partial_charge
O1    O     O_R   0.370260 0.582280 0.500010 -0.581263
O2    O     O_R   0.629740 0.417720 0.499990 -0.568045
O3    O     O_R   0.629740 0.582280 0.499990 -0.589106
O4    O     O_R   0.370260 0.417720 0.500010 -0.586378
C1    C     C_R   0.329334 0.499661 0.498884 0.821617
C2    C     C_R   0.670628 0.500211 0.500916 0.764623
O5    O     O_R   0.499980 0.582290 0.417880 -0.620468
O6    O     O_R   0.500020 0.417710 0.582120 -0.520668
O7    O     O_R   0.500020 0.582290 0.582120 -0.615896
O8    O     O_R   0.499980 0.417710 0.417880 -0.525169
C3    C     C_R   0.494815 0.500407 0.390930 0.810412
C4    C     C_R   0.505095 0.500360 0.609021 0.780163
Cu1   Cu    Cu3+1 0.500000 0.597420 0.500000 0.964758
Cu2   Cu    Cu3+1 0.500000 0.402580 0.500000 0.970692
C5    C     C_R   0.585653 0.527277 0.881350 0.551172
C6    C     C_R   0.411798 0.526630 0.118154 0.550997
N1    N     N_R   0.509452 0.534292 0.852125 -0.477724
N2    N     N_R   0.487824 0.533256 0.147607 -0.471748
C7    C     C_R   0.429483 0.550903 0.879045 0.559905
C8    C     C_R   0.568139 0.549776 0.120840 0.558758
C9    C     C_R   0.422397 0.554279 0.939044 -0.043360
C10   C     C_R   0.576176 0.549442 0.060842 -0.059858
C11   C     C_R   0.501426 0.549695 0.969844 -0.082233
C12   C     C_R   0.497035 0.548647 0.029907 -0.074191
C13   C     C_R   0.584837 0.544464 0.940460 -0.077476
C14   C     C_R   0.413343 0.545010 0.059154 -0.059261
C15   C     C_R   0.339239 0.562328 0.968732 0.169876
C16   C     C_R   0.659748 0.552525 0.031000 0.170067
C17   C     C_R   0.334575 0.557593 0.028668 -0.079769
C18   C     C_R   0.663936 0.552459 0.971173 -0.048891
O9    O     O_2   0.660911 0.500458 0.853146 -0.493540
O10   O     O_2   0.335827 0.500142 0.146053 -0.503015
O11   O     O_2   0.357409 0.562124 0.847390 -0.514483
O12   O     O_2   0.639041 0.566574 0.152732 -0.554396
C19   C     C_R   0.512885 0.437046 0.233202 0.253465
C20   C     C_R   0.484192 0.437446 0.766730 0.254133
C21   C     C_R   0.509287 0.425795 0.292724 0.177040
C22   C     C_R   0.487664 0.426403 0.707248 0.192864
C23   C     C_R   0.482520 0.503969 0.328073 -0.223939
C24   C     C_R   0.516565 0.504034 0.671855 -0.227852
C25   C     C_R   0.446735 0.588425 0.302587 -0.140965
C26   C     C_R   0.553332 0.588263 0.697139 -0.148429
C27   C     C_R   0.447455 0.597363 0.242625 -0.063474
C28   C     C_R   0.550566 0.598290 0.757017 -0.056985
C29   C     C_R   0.483392 0.522945 0.208524 0.165086
C30   C     C_R   0.513491 0.523929 0.791231 0.162988
C31   C     C_R   0.816278 0.522207 0.451873 -0.076989
C32   C     C_R   0.184642 0.505842 0.550580 -0.090948
C33   C     C_R   0.767093 0.500401 0.501685 -0.145769
C34   C     C_R   0.232553 0.497775 0.499007 -0.119472
C35   C     C_R   0.809756 0.475009 0.551571 0.184449
C36   C     C_R   0.189833 0.489241 0.447356 0.210273
C37   C     C_R   0.903627 0.483810 0.553405 -0.023786
C38   C     C_R   0.095383 0.488038 0.446792 -0.026555
C39   C     C_R   0.952982 0.492886 0.501060 -0.013613
C40   C     C_R   0.046749 0.491171 0.499993 -0.009806
C41   C     C_R   0.908037 0.502763 0.449477 0.032413
C42   C     C_R   0.091670 0.491943 0.552186 0.024302
C43   C     C_R   0.949323 0.477564 0.605128 -0.050617
C44   C     C_R   0.047313 0.478316 0.395811 -0.053186
C45   C     C_R   0.042817 0.478155 0.604396 0.233548
C46   C     C_R   0.954428 0.487298 0.397120 0.246131
C47   C     C_R   0.432843 0.795392 0.527641 0.416373
C48   C     C_R   0.575590 0.205351 0.483399 0.329708
C49   C     C_R   0.567132 0.796522 0.472557 0.416006
C50   C     C_R   0.424477 0.204603 0.516724 0.333698
N3    N     N_R   0.500000 0.743810 0.500000 -0.257193
N4    N     N_R   0.500000 0.256190 0.500000 -0.198261
C51   C     C_R   0.576605 0.897178 0.484266 -0.051315
C52   C     C_R   0.420200 0.101529 0.510317 -0.124257
C53   C     C_R   0.423296 0.896125 0.516115 -0.053948
C54   C     C_R   0.579807 0.102408 0.490200 -0.124818
C55   C     C_R   0.499940 0.948469 0.500195 -0.022975
C56   C     C_R   0.499975 0.050942 0.500255 0.032187
C57   C     C_R   0.658978 0.947010 0.480053 -0.048547
C58   C     C_R   0.339068 0.047427 0.514212 -0.061355
C59   C     C_R   0.340987 0.945113 0.520699 -0.047743
C60   C     C_R   0.660933 0.049227 0.486547 -0.060169
N5    N     N_2   0.260238 0.576483 0.938201 -0.391204
H1    H     H_    0.207317 0.533046 0.950620 0.231927
C61   C     C_3   0.236421 0.676550 0.930190 -0.562941
H2    H     H_    0.179278 0.680699 0.901830 0.229401
H3    H     H_    0.292890 0.717460 0.910099 0.242198
H4    H     H_    0.217296 0.710335 0.971530 0.209320
N6    N     N_2   0.741196 0.552335 0.060075 -0.448240
H5    H     H_    0.750313 0.499394 0.090075 0.281894
C62   C     C_3   0.783205 0.645049 0.069416 -0.578931
H6    H     H_    0.780075 0.662932 0.115360 0.256551
H7    H     H_    0.750865 0.703846 0.045609 0.228917
H8    H     H_    0.853935 0.641321 0.054943 0.215272
N7    N     N_2   0.086521 0.450089 0.654864 -0.407457
H9    H     H_    0.140372 0.404801 0.650382 0.234735
C63   C     C_3   0.086838 0.516416 0.702542 -0.507050
H10   H     H_    0.156090 0.533122 0.713894 0.224943
H11   H     H_    0.053471 0.481923 0.740135 0.243896
H12   H     H_    0.052495 0.585023 0.692828 0.227061
N8    N     N_2   0.907305 0.462381 0.347313 -0.415092
H13   H     H_    0.848847 0.423749 0.352256 0.237244
C64   C     C_3   0.915905 0.525033 0.297996 -0.561913
H14   H     H_    0.849491 0.550809 0.286051 0.235151
H15   H     H_    0.945119 0.483718 0.261675 0.229198
H16   H     H_    0.958763 0.588784 0.306156 0.230188
N9    N     N_2   0.377829 0.752450 0.571619 -0.390144
H17   H     H_    0.376392 0.679277 0.575469 0.314236
C65   C     C_3   0.374910 0.799820 0.626644 -0.611080
H18   H     H_    0.417749 0.865369 0.627392 0.225607
H19   H     H_    0.397728 0.749430 0.659806 0.246898
H20   H     H_    0.305504 0.820615 0.637774 0.236725
N10   N     N_2   0.647852 0.255228 0.455750 -0.376521
H21   H     H_    0.701161 0.270169 0.480439 0.247162
C66   C     C_3   0.673110 0.227577 0.398255 -0.630616
H22   H     H_    0.733350 0.182081 0.397720 0.245302
H23   H     H_    0.689735 0.293702 0.373468 0.215060
H24   H     H_    0.619483 0.186715 0.377935 0.223481
N11   N     N_2   0.622699 0.754426 0.428973 -0.394454
H25   H     H_    0.622103 0.681400 0.424923 0.305296
C67   C     C_3   0.627080 0.802490 0.374054 -0.618542
H26   H     H_    0.583417 0.866820 0.372793 0.229235
H27   H     H_    0.606266 0.751871 0.340381 0.245467
H28   H     H_    0.696527 0.825330 0.364015 0.239412
N12   N     N_2   0.352289 0.254035 0.543951 -0.378404
H29   H     H_    0.299246 0.268895 0.519062 0.245355
C68   C     C_3   0.327727 0.227925 0.601930 -0.635315
H30   H     H_    0.265214 0.185309 0.603438 0.241849
H31   H     H_    0.315588 0.294869 0.626670 0.219600
H32   H     H_    0.380034 0.184722 0.621811 0.223640
C69   C     C_2   0.743388 0.891633 0.477219 0.483514
H33   H     H_    0.798067 0.914755 0.449267 0.128049
O13   O     O_2   0.752618 0.819907 0.506628 -0.508245
C70   C     C_2   0.254724 0.094734 0.499086 0.345605
H34   H     H_    0.254972 0.145054 0.463708 0.079752
O14   O     O_2   0.185332 0.079852 0.525994 -0.547919
C71   C     C_2   0.256532 0.888822 0.524026 0.480631
H35   H     H_    0.202208 0.911325 0.552205 0.125705
O15   O     O_2   0.246838 0.817032 0.494767 -0.508596
C72   C     C_2   0.745237 0.097122 0.502047 0.338426
H36   H     H_    0.744911 0.146444 0.537697 0.070148
O16   O     O_2   0.814758 0.083482 0.475232 -0.546077
C73   C     C_2   0.247650 0.575754 0.058384 0.474742
H37   H     H_    0.188501 0.537375 0.046055 0.042184
O17   O     O_2   0.241033 0.637009 0.095518 -0.487893
C74   C     C_2   0.752483 0.566514 0.942424 0.500723
H38   H     H_    0.809600 0.527511 0.957073 0.071385
O18   O     O_2   0.763210 0.626142 0.904513 -0.489546
N13   N     N_2   0.542658 0.359338 0.197819 -0.434424
H39   H     H_    0.509363 0.349895 0.160702 0.262374
C75   C     C_3   0.637890 0.346960 0.191403 -0.644891
H40   H     H_    0.660542 0.364406 0.147171 0.227157
H41   H     H_    0.654444 0.270564 0.200242 0.227041
H42   H     H_    0.674615 0.393948 0.220939 0.234377
N14   N     N_2   0.456421 0.358506 0.802199 -0.435948
H43   H     H_    0.490843 0.349779 0.838915 0.264860
C76   C     C_3   0.361459 0.343912 0.809866 -0.636097
H44   H     H_    0.339468 0.364260 0.853717 0.243058
H45   H     H_    0.345703 0.266418 0.803462 0.222514
H46   H     H_    0.323556 0.387224 0.779235 0.234927
N15   N     N_2   0.533465 0.335688 0.316718 -0.398621
H47   H     H_    0.594566 0.312331 0.301787 0.256761
C77   C     C_3   0.466878 0.260339 0.312629 -0.599314
H48   H     H_    0.489353 0.193628 0.333639 0.208366
H49   H     H_    0.454466 0.243096 0.267576 0.240043
H50   H     H_    0.404082 0.282249 0.334162 0.223570
N16   N     N_2   0.465917 0.335358 0.683316 -0.406297
H51   H     H_    0.411979 0.301585 0.702771 0.261734
C78   C     C_3   0.540936 0.271185 0.677097 -0.602483
H52   H     H_    0.520657 0.202951 0.656546 0.209226
H53   H     H_    0.567691 0.253898 0.719275 0.233182
H54   H     H_    0.593413 0.305299 0.649862 0.234188
C79   C     C_2   0.406781 0.666292 0.338596 0.513405
H55   H     H_    0.363676 0.647877 0.374875 0.100798
O19   O     O_2   0.424379 0.751192 0.329447 -0.528628
C80   C     C_2   0.597449 0.663850 0.660874 0.528856
H56   H     H_    0.642250 0.642867 0.626025 0.070465
O20   O     O_2   0.581425 0.749376 0.668062 -0.523050
C81   C     C_2   0.409983 0.682989 0.213850 0.550906
H57   H     H_    0.442366 0.711348 0.175413 0.049573
O21   O     O_2   0.340312 0.719170 0.230788 -0.481514
C82   C     C_2   0.587605 0.684587 0.785671 0.542500
H58   H     H_    0.554228 0.713177 0.823554 0.042012
O22   O     O_2   0.657914 0.721052 0.769381 -0.478339
C83   C     C_2   0.771620 0.569446 0.404084 0.405370
H59   H     H_    0.707717 0.543311 0.390591 0.023120
O23   O     O_2   0.804756 0.640654 0.381055 -0.520838
C84   C     C_2   0.232424 0.542873 0.600123 0.372395
H60   H     H_    0.290688 0.505816 0.614707 0.034935
O24   O     O_2   0.209898 0.618787 0.622420 -0.525028
N17   N     N_2   0.758773 0.437198 0.598786 -0.453592
H61   H     H_    0.696497 0.465777 0.606140 0.230027
C85   C     C_3   0.761980 0.333294 0.604900 -0.624499
H62   H     H_    0.749503 0.313873 0.650198 0.246651
H63   H     H_    0.828115 0.304405 0.591505 0.250000
H64   H     H_    0.710326 0.299285 0.579100 0.197139
N18   N     N_2   0.243847 0.494125 0.396659 -0.467419
H65   H     H_    0.227615 0.545397 0.367163 0.242154
C86   C     C_3   0.278114 0.403299 0.375392 -0.686574
H66   H     H_    0.300859 0.411877 0.330305 0.237718
H67   H     H_    0.227207 0.345240 0.378634 0.262684
H68   H     H_    0.334705 0.380496 0.400533 0.246304
C87   C     C_2   0.900539 0.475125 0.661012 0.469496
H69   H     H_    0.852099 0.530569 0.671499 0.089406
O25   O     O_2   0.911681 0.409432 0.694611 -0.511284
C88   C     C_2   0.089020 0.447900 0.340943 0.433266
H70   H     H_    0.119095 0.500888 0.312206 0.073391
O26   O     O_2   0.084199 0.363754 0.325911 -0.511811

loop_
_geom_bond_atom_site_label_1
_geom_bond_atom_site_label_2
_geom_bond_distance
_ccdc_geom_bond_type
C50   N4    1.385750 A    
C39   C40   1.413311 A    
C26   C28   1.416581 A    
C63   H10   1.109997 S    
C15   C17   1.412415 A    
C25   C27   1.417215 A    
C55   C56   1.419138 A    
C66   H22   1.108027 S    
C31   C83   1.484683 S    
O3    C2    1.296597 A    
C33   C35   1.404419 A    
N8    H13   1.031359 S    
C37   C43   1.423219 A    
C68   H30   1.108602 S    
C23   C25   1.430831 A    
C38   C44   1.430255 A    
N6    H5    1.030605 S    
C16   N6    1.426807 S    
O5    C3    1.303672 A    
C65   H19   1.111488 S    
C78   H52   1.108696 S    
C88   O26   1.220931 D    
O1    C1    1.297577 A    
C48   N4    1.387832 A    
C10   C12   1.419658 A    
N16   C78   1.445937 S    
C12   C14   1.416790 A    
C15   N5    1.427033 S    
C67   H27   1.111560 S    
C77   H48   1.107805 S    
C19   N13   1.426952 S    
C68   H31   1.108457 S    
C31   C41   1.410058 A    
N11   H25   1.015975 S    
C84   H60   1.085706 S    
C81   O21   1.220965 D    
C44   C46   1.405844 A    
C79   H55   1.084458 S    
C21   N15   1.423725 S    
C85   H63   1.112031 S    
O7    Cu1   1.945260 S    
C6    O10   1.349031 S    
C54   C60   1.431383 A    
N10   C66   1.446608 S    
C61   H3    1.111346 S    
C27   C81   1.488906 S    
N9    C65   1.452915 S    
N15   H47   1.028535 S    
C75   H40   1.110753 S    
C80   O20   1.221041 D    
N11   C67   1.453130 S    
C52   C56   1.408404 A    
C34   C36   1.401185 A    
N14   H43   1.031362 S    
C77   H49   1.110103 S    
C51   C55   1.400365 A    
C40   C42   1.424238 A    
C76   H45   1.109516 S    
C57   C69   1.489112 S    
O3    Cu1   1.968365 S    
C86   H68   1.102845 S    
C8    O12   1.347206 S    
C42   C45   1.423153 A    
N14   C76   1.449658 S    
C9    C15   1.418983 A    
C87   H69   1.085477 S    
N15   C77   1.449479 S    
C22   C24   1.416717 A    
C10   C16   1.421440 A    
Cu1   Cu2   2.698318 S    
C71   O15   1.221565 D    
C79   O19   1.221022 D    
C78   H53   1.111505 S    
O2    C2    1.295563 A    
C59   C71   1.488779 S    
N8    C64   1.450547 S    
C36   C38   1.424475 A    
N13   H39   1.031389 S    
C47   N3    1.386629 A    
C37   C39   1.422558 A    
C6    C14   1.411786 A    
C63   H11   1.109065 S    
C17   C73   1.486786 S    
C65   H20   1.109506 S    
C38   C40   1.430316 A    
C43   C45   1.409000 A    
N17   C85   1.447184 S    
C88   H70   1.084143 S    
N13   C75   1.449556 S    
N6    C62   1.448940 S    
C82   H58   1.085362 S    
C41   C46   1.413456 A    
C75   H42   1.112760 S    
C35   N17   1.426676 S    
C58   C59   1.425480 A    
C47   N9    1.430651 S    
O8    Cu2   1.945260 S    
C83   O23   1.220651 D    
C28   C82   1.488900 S    
N7    H9    1.031348 S    
C32   C84   1.483316 S    
C72   H36   1.083123 S    
C68   H32   1.108866 S    
C50   N12   1.423115 S    
C28   C30   1.407712 A    
C49   N3    1.385372 A    
C83   H59   1.085351 S    
C25   C79   1.489791 S    
C32   C42   1.412886 A    
C61   H2    1.110195 S    
N5    H1    1.030328 S    
C35   C37   1.421911 A    
C4    C24   1.496973 S    
C85   H64   1.107892 S    
C70   O14   1.220340 D    
C69   O13   1.221526 D    
N7    C63   1.451998 S    
C46   N8    1.434192 S    
C64   H14   1.110259 S    
O5    Cu1   1.945888 S    
O6    C4    1.312274 A    
C64   H16   1.112015 S    
N18   C86   1.446085 S    
C77   H50   1.102577 S    
C66   H23   1.108057 S    
N1    C30   1.440867 S    
C76   H46   1.112827 S    
C3    C23   1.499293 S    
C32   C34   1.396288 A    
C27   C29   1.406849 A    
N12   H29   1.029536 S    
C26   C80   1.489038 S    
C14   C17   1.420569 A    
C54   C56   1.407934 A    
C22   N16   1.423169 S    
C64   H15   1.109582 S    
C47   C53   1.429845 A    
C63   H12   1.111964 S    
O8    C3    1.312602 A    
C9    C11   1.418187 A    
C7    O11   1.348762 S    
C71   H35   1.083427 S    
C74   O18   1.221303 D    
C1    C34   1.459062 S    
C67   H28   1.109394 S    
O1    Cu1   1.965974 S    
C69   H33   1.083431 S    
C19   C29   1.404577 A    
N2    C29   1.440881 S    
C53   C59   1.418545 A    
C61   H4    1.110582 S    
C80   H56   1.085581 S    
C19   C21   1.409493 A    
C72   O16   1.220380 D    
C53   C55   1.400153 A    
Cu1   N3    2.027340 S    
C44   C88   1.480102 S    
C13   C18   1.420169 A    
C5    N1    1.363662 A    
O6    Cu2   1.945888 S    
C7    C9    1.414366 A    
C36   N18   1.422855 S    
C8    C10   1.414170 A    
O4    C1    1.295469 A    
C82   O22   1.220885 D    
C73   H37   1.084069 S    
C20   N14   1.426831 S    
C5    O9    1.348812 S    
C78   H54   1.104457 S    
C31   C33   1.397470 A    
C75   H41   1.109500 S    
C65   H18   1.111570 S    
N5    C61   1.447313 S    
C18   C74   1.487170 S    
C39   C41   1.418577 A    
C70   H34   1.085372 S    
C49   N11   1.429209 S    
C43   C87   1.485383 S    
C16   C18   1.408374 A    
C21   C23   1.418566 A    
C81   H57   1.085332 S    
N10   H21   1.028662 S    
C20   C22   1.408766 A    
C52   C58   1.430844 A    
C20   C30   1.405890 A    
C73   O17   1.221347 D    
C48   N10   1.424195 S    
C50   C52   1.436970 A    
C49   C51   1.428732 A    
C24   C26   1.428434 A    
N1    C7    1.363275 A    
C84   O24   1.220526 D    
C51   C57   1.417620 A    
C66   H24   1.107091 S    
N2    C8    1.363377 A    
C48   C54   1.436407 A    
C2    C33   1.455057 S    
O4    Cu2   1.968368 S    
C85   H62   1.109316 S    
O2    Cu2   1.965971 S    
C57   C60   1.424304 A    
N12   C68   1.447181 S    
N16   H51   1.029004 S    
C5    C13   1.412471 A    
O7    C4    1.302671 A    
C11   C12   1.413994 A    
C86   H66   1.110441 S    
N17   H61   1.030145 S    
C11   C13   1.416245 A    
C62   H6    1.109964 S    
C6    N2    1.363129 A    
N18   H65   1.029174 S    
C62   H8    1.109564 S    
N9    H17   1.017312 S    
C87   O25   1.221096 D    
C62   H7    1.112444 S    
Cu2   N4    2.027340 S    
C74   H38   1.085317 S    
C76   H44   1.110898 S    
C67   H26   1.111719 S    
C60   C72   1.487352 S    
C58   C70   1.487852 S    
C45   N7    1.433444 S    
C86   H67   1.109051 S    
