data_mof_unit_20298.cif
_audit_creation_date              2013-03-05T15:52:54-0500
_audit_creation_method            fapswitch 2.2
_symmetry_space_group_name_H-M    P1
_symmetry_Int_Tables_number       1
_space_group_crystal_system       triclinic
_cell_length_a                    14.920206
_cell_length_b                    10.673214
_cell_length_c                    9.937667
_cell_angle_alpha                 92.221612
_cell_angle_beta                  90.368974
_cell_angle_gamma                 92.467589
_cell_volume                      1579.83126517

loop_
_atom_site_label
_atom_site_type_symbol
_atom_site_description
_atom_site_fract_x
_atom_site_fract_y
_atom_site_fract_z
_atom_type_partial_charge
O1    O     O_R   0.500000 0.316780 0.614690 -0.644695
O2    O     O_R   0.499990 0.316750 0.385360 -0.486476
C1    C     C_R   0.507382 0.260235 0.497744 1.023544
O3    O     O_R   0.367850 0.499980 0.614680 -0.635357
O4    O     O_R   0.367840 0.499960 0.385350 -0.584360
C2    C     C_R   0.327388 0.500579 0.500018 0.850888
Zn1   Zn    Zn3+2 0.500010 0.500020 0.653130 0.975332
Zn2   Zn    Zn3+2 0.499990 0.499980 0.346870 1.103118
O5    O     O_R   0.500010 0.683250 0.614640 -0.637072
O6    O     O_R   0.500000 0.683220 0.385310 -0.558355
O7    O     O_R   0.632160 0.500040 0.614650 -0.591953
O8    O     O_R   0.632150 0.500020 0.385320 -0.544695
C3    C     C_R   0.490565 0.739180 0.503111 0.867455
C4    C     C_R   0.672871 0.499682 0.500341 0.943488
C5    C     C_R   0.816763 0.606413 0.562488 0.400918
C6    C     C_R   0.768869 0.501754 0.502965 -0.280837
C7    C     C_R   0.812233 0.395470 0.453704 0.262043
C8    C     C_R   0.904379 0.386559 0.478083 -0.128121
C9    C     C_R   0.953932 0.495080 0.527287 -0.067916
C10   C     C_R   0.909913 0.604085 0.570391 0.008210
C11   C     C_R   0.948465 0.272818 0.454490 0.242141
C12   C     C_R   0.042249 0.273660 0.457756 0.218283
C13   C     C_R   0.091619 0.386904 0.486331 -0.010821
C14   C     C_R   0.047808 0.496376 0.528617 -0.041134
C15   C     C_R   0.097883 0.608032 0.569325 -0.029920
C16   C     C_R   0.052556 0.711644 0.625163 0.458745
C17   C     C_R   0.959712 0.709704 0.621480 -0.103469
C18   C     C_R   0.184315 0.392075 0.477324 -0.209819
C19   C     C_R   0.232258 0.504594 0.502522 -0.163213
C20   C     C_R   0.190734 0.614331 0.547404 0.406408
H1    H     H_    0.220349 0.309017 0.449552 0.188281
H2    H     H_    0.926855 0.791984 0.660426 0.247590
C21   C     C_R   0.586033 0.126068 0.723868 0.414118
C22   C     C_R   0.578350 0.078221 0.854800 0.381539
C23   C     C_R   0.529522 0.965995 0.871533 -0.190821
H3    H     H_    0.521078 0.929768 0.971177 0.200090
C24   C     C_R   0.491791 0.899077 0.760781 -0.181744
H4    H     H_    0.451789 0.815268 0.781099 0.205522
C25   C     C_R   0.500588 0.944506 0.629403 -0.008777
C26   C     C_R   0.535189 0.066692 0.615519 -0.063336
C27   C     C_R   0.517070 0.125827 0.493773 -0.147424
C28   C     C_R   0.487406 0.056332 0.377356 0.439679
C29   C     C_R   0.460996 0.931083 0.388587 0.332940
C30   C     C_R   0.476558 0.872725 0.510716 -0.243980
C31   C     C_R   0.360993 0.356243 0.123659 0.352534
C32   C     C_R   0.285837 0.313270 0.043766 0.219008
C33   C     C_R   0.294159 0.305332 0.904369 0.404463
C34   C     C_R   0.371141 0.355325 0.847431 -0.227278
H5    H     H_    0.377302 0.335325 0.742749 0.245041
C35   C     C_R   0.435224 0.429283 0.922512 -0.010757
C36   C     C_R   0.433049 0.429802 0.066646 0.011688
N1    N     N_R   0.499150 0.498800 0.142780 -0.092598
C37   C     C_R   0.562306 0.568744 0.075780 0.526560
H6    H     H_    0.611669 0.624314 0.879586 0.166747
C38   C     C_R   0.561729 0.568425 0.931826 -0.221959
N2    N     N_R   0.499120 0.498720 0.857170 -0.103306
O9    O     O_3   0.775457 0.713615 0.609073 -0.736195
H7    H     H_    0.713708 0.715481 0.572696 0.344007
O10   O     O_3   0.646252 0.223792 0.696712 -0.711918
H8    H     H_    0.694437 0.228840 0.765922 0.357023
O11   O     O_3   0.614210 0.140302 0.968396 -0.691976
H9    H     H_    0.620705 0.231057 0.951326 0.346276
O12   O     O_3   0.418977 0.868247 0.279698 -0.749045
H10   H     H_    0.376445 0.803331 0.314186 0.348847
O13   O     O_3   0.625409 0.640022 0.150272 -0.700303
H11   H     H_    0.665717 0.685460 0.087969 0.333731
O14   O     O_3   0.368364 0.310920 0.249518 -0.690211
H12   H     H_    0.328193 0.235394 0.259323 0.356902
O15   O     O_3   0.206661 0.271002 0.100895 -0.711811
H13   H     H_    0.201566 0.313906 0.190598 0.360037
O16   O     O_3   0.229423 0.248238 0.819683 -0.711350
H14   H     H_    0.179020 0.214009 0.873327 0.412643
N3    N     N_R   0.764642 0.304079 0.367102 0.241294
O17   O     O_R   0.789778 0.286586 0.242908 -0.308979
O18   O     O_R   0.697382 0.237079 0.411979 -0.325981
N4    N     N_R   0.898901 0.154703 0.438659 0.259816
O19   O     O_R   0.845693 0.117690 0.533873 -0.306113
O20   O     O_R   0.914612 0.077912 0.337481 -0.255366
N5    N     N_R   0.086728 0.157759 0.439871 0.224263
O21   O     O_R   0.123152 0.128448 0.325044 -0.327271
O22   O     O_R   0.081801 0.075474 0.533028 -0.265612
O23   O     O_3   0.237963 0.728581 0.564459 -0.729335
H15   H     H_    0.298423 0.723941 0.525126 0.309959
O24   O     O_3   0.095998 0.815196 0.686758 -0.638762
H16   H     H_    0.144000 0.784334 0.744691 0.371484
O25   O     O_3   0.483563 0.113606 0.254849 -0.677097
H17   H     H_    0.467671 0.051465 0.181165 0.384863

loop_
_geom_bond_atom_site_label_1
_geom_bond_atom_site_label_2
_geom_bond_distance
_ccdc_geom_bond_type
C38   N2    1.365647 A    
C8    C11   1.417763 A    
N3    O18   1.298483 A    
C27   C28   1.408224 A    
C23   H3    1.083068 S    
C29   O12   1.382955 S    
C31   C32   1.419210 A    
Zn1   O7    2.010854 S    
C11   N4    1.436573 S    
C16   C17   1.384743 A    
C24   H4    1.080150 S    
C18   C19   1.384582 A    
C23   C24   1.390987 A    
N4    O20   1.301298 A    
C12   N5    1.434368 S    
C22   C23   1.391044 A    
O4    C2    1.292850 A    
O7    C4    1.291559 A    
C31   C36   1.436276 A    
C5    C6    1.408161 A    
C8    C9    1.415981 A    
N3    O17   1.301118 A    
O5    C3    1.288855 A    
C32   O15   1.379839 S    
C32   C33   1.391265 A    
O24   H16   0.991264 S    
C9    C10   1.413932 A    
C6    C7    1.403323 A    
C31   O14   1.363878 S    
C13   C14   1.414327 A    
C28   O25   1.385257 S    
C37   O13   1.378012 S    
Zn2   N1    2.027684 S    
C34   C35   1.405041 A    
O10   H8    0.990065 S    
C21   O10   1.382841 S    
C11   C12   1.399070 A    
C7    N3    1.436569 S    
C5    O9    1.388030 S    
O11   H9    0.990616 S    
Zn1   N2    2.028392 S    
O3    Zn1   2.006095 S    
C21   C22   1.419629 A    
C37   C38   1.430401 A    
C5    C10   1.392876 A    
C21   C26   1.425356 A    
O14   H12   0.991858 S    
C14   C15   1.422711 A    
O3    C2    1.286441 A    
C25   C26   1.393971 A    
N5    O22   1.300817 A    
O25   H17   0.989377 S    
C35   C36   1.432737 A    
C15   C16   1.417703 A    
C22   O11   1.379638 S    
C35   N2    1.365363 A    
C36   N1    1.404307 A    
O1    C1    1.296152 A    
C20   O23   1.385892 S    
C29   C30   1.407943 A    
C19   C20   1.407178 A    
C33   C34   1.379540 A    
Zn2   O8    2.006097 S    
C7    C8    1.402393 A    
C13   C18   1.385367 A    
N4    O19   1.301245 A    
C33   O16   1.382603 S    
C26   C27   1.415955 A    
O8    C4    1.291222 A    
O13   H11   0.991557 S    
C4    C6    1.431588 S    
N5    O21   1.300115 A    
C28   C29   1.386213 A    
N1    C37   1.369158 A    
C15   C20   1.402923 A    
Zn1   O5    2.007206 S    
H6    C38   1.082247 S    
C1    C27   1.447054 S    
C16   O24   1.377350 S    
C17   H2    1.083751 S    
O1    Zn1   1.978125 S    
C18   H1    1.084013 S    
O2    Zn2   2.007206 S    
O6    C3    1.304677 A    
O4    Zn2   2.010854 S    
C25   C30   1.416864 A    
C10   C17   1.399742 A    
O2    C1    1.296033 A    
O16   H14   0.989842 S    
C24   C25   1.415171 A    
O9    H7    0.988810 S    
C34   H5    1.059221 S    
C9    C14   1.400096 A    
O15   H13   0.991140 S    
O12   H10   0.991761 S    
C2    C19   1.422198 S    
Zn2   O6    1.978125 S    
O23   H15   0.987859 S    
C12   C13   1.406475 A    
C3    C30   1.448626 S    
