data_mof_unit_58720.cif
_audit_creation_date              2012-12-11T14:01:39-0500
_audit_creation_method            fapswitch 2.2
_symmetry_space_group_name_H-M    P1
_symmetry_Int_Tables_number       1
_space_group_crystal_system       triclinic
_cell_length_a                    19.18067
_cell_length_b                    11.140857
_cell_length_c                    19.015139
_cell_angle_alpha                 90.165384
_cell_angle_beta                  90.355321
_cell_angle_gamma                 90.512622
_cell_volume                      4063.06962359

loop_
_atom_site_label
_atom_site_type_symbol
_atom_type_description
_atom_site_fract_x
_atom_site_fract_y
_atom_site_fract_z
_atom_type_partial_charge
C1    C     C_R   0.292127 0.994640 0.859689 0.580177
C2    C     C_R   0.036005 0.652275 0.967059 0.301369
C3    C     C_3   0.224920 0.886577 0.345469 -0.096034
C4    C     C_3   0.023008 0.845920 0.078777 -0.011413
C5    C     C_3   0.043363 0.781586 0.870832 0.011827
C6    C     C_3   0.516602 0.350203 0.074593 -0.004166
C7    C     C_3   0.542049 0.283257 0.869746 0.004376
C8    C     C_3   0.262265 0.747978 0.106925 -0.089196
C9    C     C_3   0.847087 0.688521 0.965776 -0.032127
C10   C     C_3   0.796901 0.246719 0.046475 -0.088747
C11   C     C_3   0.345287 0.185423 0.964143 -0.026828
C12   C     C_3   0.582271 0.562744 0.457061 -0.065531
C13   C     C_R   0.524131 0.154528 0.038725 0.284470
C14   C     C_3   0.417842 0.607859 0.527810 -0.089818
C15   C     C_3   0.082282 0.062723 0.456969 -0.065638
C16   C     C_3   0.917983 0.107639 0.527934 -0.089874
C17   C     C_3   0.452835 0.013494 0.415161 -0.035471
C18   C     C_3   0.561866 0.018777 0.615711 -0.054405
C19   C     C_3   0.952818 0.513460 0.415121 -0.035593
C20   C     C_3   0.061883 0.518781 0.615699 -0.054806
C21   C     C_R   0.536696 0.153990 0.965936 0.305333
C22   C     C_2   0.236944 0.572899 0.913180 0.435017
C23   C     C_2   0.753759 0.560283 0.090642 0.366872
C24   C     C_2   0.737843 0.073453 0.914118 0.422578
C25   C     C_2   0.258061 0.055667 0.092894 0.333790
C26   C     C_2   0.239516 0.551080 0.069736 0.291833
C27   C     C_2   0.781743 0.523603 0.934649 0.207325
C28   C     C_2   0.745442 0.069258 0.072980 0.273557
C29   C     C_R   0.725665 0.036842 0.144906 0.574035
C30   C     C_2   0.286275 0.011553 0.936145 0.227570
C31   C     C_2   0.254274 0.463959 0.022226 0.363009
C32   C     C_2   0.720085 0.507068 0.967408 0.410593
C33   C     C_2   0.764334 0.980217 0.027434 0.358575
C34   C     C_2   0.228650 0.978710 0.972212 0.434384
C35   C     C_2   0.273127 0.491435 0.948409 0.316740
C36   C     C_2   0.706442 0.554657 0.037944 0.403737
C37   C     C_2   0.777481 0.999675 0.951322 0.309960
C38   C     C_2   0.211414 0.030493 0.041513 0.389152
C39   C     C_2   0.509428 0.835273 0.583421 0.307289
C40   C     C_R   0.790745 0.498066 0.860076 0.581504
C41   C     C_2   0.507716 0.830031 0.424468 0.288432
C42   C     C_2   0.009448 0.335272 0.583429 0.307410
C43   C     C_2   0.007749 0.330036 0.424486 0.288042
C44   C     C_2   0.536841 0.751472 0.469553 0.363990
C45   C     C_2   0.508202 0.739871 0.539493 0.295940
C46   C     C_2   0.036878 0.251457 0.469561 0.363905
C47   C     C_2   0.008263 0.239847 0.539515 0.295929
C48   C     C_2   0.244455 0.562458 0.588848 0.245340
C49   C     C_2   0.758743 0.559065 0.408119 0.271981
C50   C     C_2   0.744427 0.062438 0.588868 0.245151
C51   C     C_R   0.215874 0.512688 0.139408 0.584013
C52   C     C_2   0.258771 0.058890 0.408009 0.273026
C53   C     C_2   0.253830 0.597567 0.412528 0.256449
C54   C     C_2   0.747818 0.594224 0.585542 0.250901
C55   C     C_2   0.753781 0.097415 0.412616 0.257757
C56   C     C_2   0.247833 0.094126 0.585498 0.251133
C57   C     C_R   0.470672 0.821715 0.853780 0.593771
C58   C     C_R   0.528866 0.821847 0.146591 0.598695
C59   C     C_R   0.970623 0.321590 0.853779 0.592892
C60   C     C_R   0.028927 0.321414 0.146530 0.598179
C61   C     C_2   0.215360 0.567293 0.467643 0.405964
C62   C     C_R   0.497359 0.052755 0.071187 0.441226
C63   C     C_2   0.785452 0.559774 0.530663 0.394020
C64   C     C_2   0.715228 0.067267 0.467690 0.406711
C65   C     C_2   0.285398 0.059494 0.530602 0.393731
C66   C     C_2   0.226130 0.627499 0.533130 0.273905
C67   C     C_2   0.778009 0.621616 0.465228 0.301524
C68   C     C_2   0.726026 0.127467 0.533171 0.273709
C69   C     C_2   0.278006 0.121367 0.465165 0.300965
C70   C     C_R   0.259070 0.633860 0.849023 0.573080
C71   C     C_R   0.739351 0.633756 0.151133 0.640791
C72   C     C_R   0.759131 0.133871 0.849227 0.565326
C73   C     C_R   0.527288 0.045033 0.928130 0.392360
C74   C     C_R   0.239631 0.133834 0.150834 0.642128
C75   C     C_R   0.271322 0.046904 0.651010 0.569256
C76   C     C_R   0.729162 0.047994 0.348072 0.560021
C77   C     C_R   0.771309 0.546944 0.651036 0.569322
C78   C     C_R   0.229188 0.548069 0.348018 0.564390
C79   C     C_R   0.470724 0.824155 0.649016 0.562466
C80   C     C_R   0.531494 0.823508 0.352310 0.551263
C81   C     C_R   0.970731 0.324155 0.649019 0.562520
C82   C     C_R   0.031508 0.323508 0.352319 0.554014
C83   C     C_R   0.258686 0.630802 0.651517 0.552492
C84   C     C_R   0.995282 0.550222 0.071489 0.433964
C85   C     C_R   0.741625 0.630682 0.347944 0.576772
C86   C     C_R   0.758682 0.130797 0.651524 0.553724
C87   C     C_R   0.241646 0.130609 0.347883 0.577622
C88   C     C_R   0.497184 0.830460 0.075090 0.003703
C89   C     C_R   0.499358 0.827673 0.926529 0.023134
C90   C     C_R   0.997289 0.328049 0.074909 -0.005805
C91   C     C_R   0.999568 0.327135 0.926396 0.022272
C92   C     C_R   0.498341 0.940508 0.037023 -0.089246
C93   C     C_R   0.506405 0.938408 0.962955 -0.092472
C94   C     C_R   0.996799 0.438356 0.037094 -0.092299
C95   C     C_R   0.026417 0.543999 0.928796 0.387214
C96   C     C_R   0.005399 0.437215 0.963182 -0.094809
C97   C     C_R   0.498686 0.719669 0.965244 0.296138
C98   C     C_R   0.490113 0.721611 0.037727 0.296682
C99   C     C_R   0.001109 0.218705 0.964508 0.285538
C100  C     C_R   0.992515 0.218507 0.037117 0.279496
C101  C     C_3   0.448749 0.541852 0.929141 0.007684
C102  C     C_3   0.417012 0.604200 0.101543 -0.145320
C103  C     C_3   0.955470 0.038209 0.927954 0.010194
C104  C     C_3   0.931892 0.088446 0.109086 -0.130802
C105  C     C_3   0.164495 0.800023 0.520924 -0.046758
C106  C     C_R   0.023593 0.651596 0.039910 0.272397
C107  C     C_3   0.844017 0.792359 0.474027 -0.069535
C108  C     C_3   0.664427 0.300043 0.521008 -0.046970
C109  C     C_3   0.344010 0.292117 0.474032 -0.069363
C110  C     C_3   0.351666 0.678707 0.356920 -0.104408
C111  C     C_3   0.656130 0.691948 0.641386 -0.065413
C112  C     C_3   0.851748 0.178307 0.357131 -0.105512
C113  C     C_3   0.156189 0.192017 0.641317 -0.066039
C114  C     C_3   0.289908 0.389285 0.640822 -0.084943
C115  C     C_3   0.724961 0.386603 0.345710 -0.091403
C116  C     C_3   0.789860 0.889274 0.640865 -0.085129
Cr1   Cr    Cr6+3 0.230530 0.836340 0.748870 1.060316
Cr2   Cr    Cr6+3 0.614360 0.677860 0.250770 1.062993
Cr3   Cr    Cr6+3 0.885640 0.177860 0.749230 1.022070
Cr4   Cr    Cr6+3 0.114360 0.177860 0.250770 1.050423
Cr5   Cr    Cr6+3 0.769470 0.836340 0.251130 1.064208
Cr6   Cr    Cr6+3 0.730530 0.336340 0.748870 1.060569
Cr7   Cr    Cr6+3 0.269470 0.336340 0.251130 1.056798
Cr8   Cr    Cr6+3 0.387420 0.989430 0.750820 1.051461
Cr9   Cr    Cr6+3 0.612580 0.989430 0.249180 1.115339
Cr10  Cr    Cr6+3 0.887420 0.489430 0.750820 1.049987
Cr11  Cr    Cr6+3 0.112580 0.489430 0.249180 1.103173
Cr12  Cr    Cr6+3 0.385640 0.677860 0.749230 1.023681
F1    F     F_    0.164688 0.480539 0.463589 -0.580755
F2    F     F_    0.663278 0.466311 0.931153 -0.559430
F3    F     F_    0.773238 0.867301 0.052196 -0.667750
F4    F     F_    0.175282 0.921715 0.938322 -0.548138
F5    F     F_    0.322315 0.426828 0.914913 -0.747017
F6    F     F_    0.642816 0.605898 0.046325 -0.585089
F7    F     F_    0.825990 0.933538 0.917798 -0.741097
F8    F     F_    0.144107 0.065574 0.049175 -0.582583
F9    F     F_    0.175809 0.609675 0.940701 -0.566194
F10   F     F_    0.815697 0.502433 0.089803 -0.655008
F11   F     F_    0.675557 0.105380 0.940873 -0.573909
F12   F     F_    0.832942 0.469585 0.535659 -0.583542
F13   F     F_    0.324683 0.015690 0.092223 -0.647029
F14   F     F_    0.664473 0.980665 0.463604 -0.581070
F15   F     F_    0.332833 0.969226 0.535613 -0.583572
F16   F     F_    0.470687 0.065466 0.136808 -0.571117
F17   F     F_    0.552068 0.037258 0.861557 -0.624771
F18   F     F_    0.968282 0.562192 0.137022 -0.576015
F19   F     F_    0.051870 0.536355 0.862485 -0.627939
F20   F     F_    0.250329 0.347008 0.041833 -0.679565
H1    H     H_    0.400796 0.596870 0.933845 0.134224
H2    H     H_    0.892764 0.042867 0.075297 0.112544
H3    H     H_    0.910332 0.170820 0.133330 0.091436
H4    H     H_    0.943312 0.027150 0.153383 0.134198
H5    H     H_    0.125374 0.768953 0.559794 0.081301
H6    H     H_    0.146438 0.780055 0.466430 0.105233
H7    H     H_    0.168809 0.898172 0.527092 0.152328
H8    H     H_    0.877605 0.765707 0.429318 0.081239
H9    H     H_    0.867929 0.764681 0.524815 0.090286
H10   H     H_    0.841498 0.891517 0.473232 0.156032
H11   H     H_    0.625332 0.269013 0.559915 0.081538
H12   H     H_    0.448485 0.472418 0.970281 0.140507
H13   H     H_    0.646316 0.280081 0.466531 0.105155
H14   H     H_    0.668777 0.398191 0.527172 0.152537
H15   H     H_    0.377593 0.265572 0.429299 0.081918
H16   H     H_    0.367931 0.264345 0.524798 0.090134
H17   H     H_    0.341480 0.391275 0.473303 0.156089
H18   H     H_    0.391278 0.750237 0.362072 0.179012
H19   H     H_    0.321694 0.699846 0.308384 0.081718
H20   H     H_    0.379009 0.591734 0.350992 0.096243
H21   H     H_    0.689713 0.708360 0.688338 0.088493
H22   H     H_    0.620883 0.613630 0.649703 0.132930
H23   H     H_    0.446056 0.495114 0.877636 0.167927
H24   H     H_    0.624751 0.773450 0.636769 0.159645
H25   H     H_    0.891465 0.249633 0.362375 0.179372
H26   H     H_    0.821831 0.199715 0.308606 0.084956
H27   H     H_    0.878966 0.091225 0.351148 0.093871
H28   H     H_    0.124850 0.273561 0.636679 0.159822
H29   H     H_    0.189769 0.208402 0.688274 0.087792
H30   H     H_    0.120906 0.113749 0.649637 0.132238
H31   H     H_    0.261325 0.401357 0.691032 0.114070
H32   H     H_    0.343968 0.424922 0.643996 0.113793
H33   H     H_    0.296821 0.292934 0.632377 0.164843
H34   H     H_    0.376459 0.612572 0.060155 0.109619
H35   H     H_    0.671267 0.416608 0.333900 0.098789
H36   H     H_    0.718879 0.289525 0.350142 0.165604
H37   H     H_    0.761265 0.405588 0.301621 0.109176
H38   H     H_    0.761241 0.901350 0.691054 0.114116
H39   H     H_    0.843918 0.924904 0.644077 0.113577
H40   H     H_    0.796782 0.792928 0.632429 0.164614
H41   H     H_    0.171228 0.916640 0.333704 0.095787
H42   H     H_    0.218799 0.789494 0.349819 0.165417
H43   H     H_    0.261202 0.905614 0.301364 0.099325
H44   H     H_    0.965191 0.838634 0.073943 0.088403
H45   H     H_    0.409500 0.672382 0.143515 0.119390
H46   H     H_    0.045997 0.897197 0.034743 0.262120
H47   H     H_    0.035173 0.896776 0.127565 0.170113
H48   H     H_    0.986547 0.763816 0.864291 0.047475
H49   H     H_    0.073735 0.734652 0.829872 0.206114
H50   H     H_    0.052651 0.878547 0.861792 0.164811
H51   H     H_    0.459566 0.337208 0.065618 0.073886
H52   H     H_    0.540944 0.403978 0.032233 0.252370
H53   H     H_    0.523071 0.401919 0.124152 0.176260
H54   H     H_    0.485456 0.262867 0.863836 0.051808
H55   H     H_    0.572475 0.238058 0.828128 0.202074
H56   H     H_    0.410429 0.514797 0.126104 0.136771
H57   H     H_    0.549336 0.380843 0.861168 0.173318
H58   H     H_    0.301789 0.811530 0.087193 0.187906
H59   H     H_    0.287123 0.703144 0.152716 0.064655
H60   H     H_    0.215751 0.798172 0.124499 0.182110
H61   H     H_    0.796426 0.733744 0.956215 0.221469
H62   H     H_    0.883937 0.712082 0.923323 0.153235
H63   H     H_    0.869512 0.723334 0.015737 0.200731
H64   H     H_    0.837441 0.196118 0.017898 0.018788
H65   H     H_    0.814807 0.273952 0.099815 0.161656
H66   H     H_    0.789150 0.327654 0.014988 0.199876
H67   H     H_    0.906580 0.089640 0.934866 0.138304
H68   H     H_    0.294331 0.223786 0.947704 0.222641
H69   H     H_    0.385686 0.212211 0.925838 0.147733
H70   H     H_    0.360283 0.224899 0.015674 0.205923
H71   H     H_    0.532417 0.535870 0.431058 0.085190
H72   H     H_    0.584007 0.533954 0.512726 0.153083
H73   H     H_    0.623270 0.513193 0.429729 0.136880
H74   H     H_    0.394469 0.526724 0.551448 0.131879
H75   H     H_    0.381588 0.683729 0.537143 0.229238
H76   H     H_    0.423784 0.589991 0.470913 0.108056
H77   H     H_    0.032432 0.035918 0.430934 0.084308
H78   H     H_    0.958183 0.966615 0.967797 0.143447
H79   H     H_    0.084002 0.033823 0.512613 0.153074
H80   H     H_    0.123282 0.013196 0.429621 0.137073
H81   H     H_    0.894685 0.026475 0.551615 0.131869
H82   H     H_    0.881683 0.183442 0.537274 0.229077
H83   H     H_    0.923890 0.089735 0.471039 0.107998
H84   H     H_    0.417064 0.071247 0.444873 0.155081
H85   H     H_    0.434453 0.010619 0.359633 0.116740
H86   H     H_    0.505451 0.056032 0.419943 0.153092
H87   H     H_    0.584023 0.969099 0.661238 0.099972
H88   H     H_    0.519144 0.079079 0.632083 0.139518
H89   H     H_    0.952156 0.994426 0.875612 0.161461
H90   H     H_    0.603547 0.077459 0.595730 0.144754
H91   H     H_    0.917022 0.571230 0.444794 0.155225
H92   H     H_    0.934431 0.510462 0.359597 0.117245
H93   H     H_    0.005416 0.556069 0.419874 0.152701
H94   H     H_    0.103569 0.577440 0.595699 0.144829
H95   H     H_    0.084049 0.469090 0.661216 0.099051
H96   H     H_    0.019178 0.579099 0.632095 0.139356
O1    O     O_R   0.215090 0.709860 0.828130 -0.451496
O2    O     O_R   0.543740 0.718170 0.330000 -0.540354
O3    O     O_R   0.956260 0.218170 0.670000 -0.487714
O4    O     O_R   0.043740 0.218170 0.330000 -0.540648
O5    O     O_R   0.320940 0.626760 0.674370 -0.518864
O6    O     O_R   0.679060 0.626760 0.325630 -0.504311
O7    O     O_R   0.820940 0.126760 0.674370 -0.518672
O8    O     O_R   0.179060 0.126760 0.325630 -0.504165
O9    O     O_3   0.334530 0.834540 0.749640 -0.295609
O10   O     O_3   0.665470 0.834540 0.250360 -0.270965
O11   O     O_3   0.834530 0.334540 0.749640 -0.294424
O12   O     O_R   0.784910 0.709860 0.171870 -0.446023
O13   O     O_3   0.165470 0.334540 0.250360 -0.275045
O14   O     O_R   0.236990 0.958390 0.823710 -0.462401
O15   O     O_R   0.763010 0.958390 0.176290 -0.510305
O16   O     O_R   0.736990 0.458390 0.823710 -0.458899
O17   O     O_R   0.263010 0.458390 0.176290 -0.534982
O18   O     O_R   0.332380 0.074750 0.830850 -0.525817
O19   O     O_R   0.667620 0.074750 0.169150 -0.462537
O20   O     O_R   0.832380 0.574750 0.830850 -0.524600
O21   O     O_R   0.167620 0.574750 0.169150 -0.489216
O22   O     O_R   0.445800 0.917770 0.825070 -0.471199
O23   O     O_R   0.715090 0.209860 0.828130 -0.459227
O24   O     O_R   0.554200 0.917770 0.174930 -0.446370
O25   O     O_R   0.945800 0.417770 0.825070 -0.469832
O26   O     O_R   0.054200 0.417770 0.174930 -0.449260
O27   O     O_R   0.456410 0.716580 0.829970 -0.513207
O28   O     O_R   0.543590 0.716580 0.170030 -0.458194
O29   O     O_R   0.956410 0.216580 0.829970 -0.515959
O30   O     O_R   0.043590 0.216580 0.170030 -0.465308
O31   O     O_R   0.321080 0.625290 0.822650 -0.537594
O32   O     O_R   0.678920 0.625290 0.177350 -0.499142
O33   O     O_R   0.821080 0.125290 0.822650 -0.533202
O34   O     O_R   0.284910 0.209860 0.171870 -0.452107
O35   O     O_R   0.178920 0.125290 0.177350 -0.498950
O36   O     O_R   0.214930 0.711450 0.668160 -0.522599
O37   O     O_R   0.785070 0.711450 0.331840 -0.520944
O38   O     O_R   0.714930 0.211450 0.668160 -0.521211
O39   O     O_R   0.285070 0.211450 0.331840 -0.519490
O40   O     O_R   0.236850 0.959870 0.675420 -0.499772
O41   O     O_R   0.763150 0.959870 0.324580 -0.508178
O42   O     O_R   0.736850 0.459870 0.675420 -0.498772
O43   O     O_R   0.263150 0.459870 0.324580 -0.503132
O44   O     O_R   0.332230 0.076350 0.670880 -0.526369
O45   O     O_R   0.445660 0.919250 0.676780 -0.485277
O46   O     O_R   0.667770 0.076350 0.329120 -0.530730
O47   O     O_R   0.832230 0.576350 0.670880 -0.526521
O48   O     O_R   0.167770 0.576350 0.329120 -0.530122
O49   O     O_3   0.510828 0.610769 0.932030 -0.486862
O50   O     O_3   0.484028 0.612611 0.071935 -0.534057
O51   O     O_3   0.015774 0.111594 0.930411 -0.494135
O52   O     O_3   0.993680 0.107829 0.070386 -0.515607
O53   O     O_3   0.230846 0.752050 0.534442 -0.497545
O54   O     O_3   0.775689 0.746522 0.466029 -0.474013
O55   O     O_3   0.730775 0.252018 0.534466 -0.497808
O56   O     O_R   0.554340 0.919250 0.323220 -0.492823
O57   O     O_3   0.275686 0.246276 0.466007 -0.473807
O58   O     O_3   0.309704 0.678639 0.417952 -0.572292
O59   O     O_3   0.694264 0.677764 0.578568 -0.533091
O60   O     O_3   0.809743 0.178289 0.418125 -0.572709
O61   O     O_3   0.194330 0.177759 0.578510 -0.532620
O62   O     O_3   0.252730 0.437965 0.583272 -0.538044
O63   O     O_3   0.750632 0.434071 0.410152 -0.543924
O64   O     O_3   0.752722 0.937950 0.583288 -0.538007
O65   O     O_3   0.250634 0.933891 0.409946 -0.541577
O66   O     O_3   0.055270 0.734233 0.084321 -0.508763
O67   O     O_R   0.945660 0.419250 0.676780 -0.485086
O68   O     O_3   0.068476 0.753156 0.938672 -0.434600
O69   O     O_3   0.552405 0.241970 0.082358 -0.494677
O70   O     O_3   0.568753 0.254850 0.936990 -0.442548
O71   O     O_3   0.243810 0.671518 0.050376 -0.563289
O72   O     O_3   0.840603 0.562918 0.970919 -0.602218
O73   O     O_3   0.732870 0.185056 0.050659 -0.520082
O74   O     O_3   0.344066 0.059509 0.970519 -0.595014
O75   O     O_3   0.595992 0.686973 0.451444 -0.488123
O76   O     O_3   0.483143 0.628062 0.559755 -0.628340
O77   O     O_3   0.096025 0.186958 0.451435 -0.487537
O78   O     O_R   0.054340 0.419250 0.323220 -0.490900
O79   O     O_3   0.983299 0.127999 0.559817 -0.628416
O80   O     O_3   0.450665 0.898080 0.445102 -0.552450
O81   O     O_3   0.539421 0.943069 0.560270 -0.544327
O82   O     O_3   0.950706 0.398098 0.445136 -0.552288
O83   O     O_3   0.039397 0.443092 0.560265 -0.544143
O84   O     O_R   0.456260 0.718170 0.670000 -0.487430

loop_
_geom_bond_atom_site_label_1
_geom_bond_atom_site_label_2
_ccdc_geom_bond_type
C113  H29   S    
C103  H67   S    
C81   O3    A    
C73   C93   A    
C39   O81   S    
C4    H46   S    
C105  O53   S    
C53   O58   S    
C3    H41   S    
C18   H88   S    
C54   C63   D    
C58   O28   A    
C59   O25   A    
C111  H24   S    
Cr11  O78   S    
C104  H2    S    
C17   O80   S    
C7    H55   S    
C91   C96   A    
Cr11  O26   S    
C75   O44   A    
C37   F7    S    
C38   F8    S    
C7    H57   S    
C11   H68   S    
C9    O72   S    
C21   O70   S    
C85   O37   A    
C83   O5    A    
C42   O83   S    
C107  H9    S    
C102  H34   S    
Cr2   O6    S    
Cr6   O11   S    
C15   H79   S    
C114  O62   S    
C5    O68   S    
C13   C21   A    
C59   C91   S    
C94   C96   A    
C11   H70   S    
C10   H64   S    
C28   C33   D    
C17   H85   S    
C67   O54   S    
C82   O78   A    
C15   O77   S    
C1    O14   A    
C86   O7    A    
Cr11  O21   S    
Cr4   O8    S    
C62   F16   S    
Cr8   O9    S    
C107  O54   S    
C58   C88   S    
Cr3   O33   S    
Cr2   O2    S    
C10   H65   S    
Cr4   O30   S    
C60   C90   S    
C114  H33   S    
Cr12  O5    S    
C82   O4    A    
C111  H22   S    
C104  H4    S    
C53   C78   S    
C101  O49   S    
C6    O69   S    
C115  H37   S    
C51   O21   A    
C112  O60   S    
C41   O80   S    
C19   H93   S    
C70   O1    A    
C23   C36   D    
C12   H72   S    
C20   H95   S    
C112  H26   S    
Cr2   O32   S    
C97   C98   A    
C40   O16   A    
C17   H86   S    
Cr7   O13   S    
C22   F9    S    
C29   O15   A    
C69   O57   S    
C15   H77   S    
C64   C68   S    
C25   C74   S    
C43   O82   S    
Cr3   O7    S    
C56   O61   S    
C30   O74   S    
C6    H51   S    
C55   O60   S    
C57   O27   A    
C21   C73   A    
C16   H81   S    
Cr3   O3    S    
C1    C30   S    
C53   C61   D    
C101  H12   S    
C27   C40   S    
C76   O46   A    
C61   F1    S    
C39   C45   D    
C54   C77   S    
C56   C75   S    
C42   C81   S    
Cr5   O37   S    
C17   H84   S    
Cr2   O28   S    
C116  H39   S    
C30   C34   D    
C14   H75   S    
C95   F19   S    
C6    H53   S    
Cr9   O56   S    
C19   O82   S    
C5    H49   S    
C75   O40   A    
C2    C106  A    
C73   F17   S    
C8    H59   S    
Cr12  O31   S    
C19   H91   S    
C25   C38   D    
C110  H19   S    
C9    H62   S    
C11   O74   S    
C24   C37   D    
C86   O38   A    
C5    H48   S    
C105  H7    S    
C57   O22   A    
C80   O2    A    
C115  H36   S    
C24   C72   S    
C108  O55   S    
C74   O34   A    
C115  O63   S    
C36   F6    S    
C54   O59   S    
C50   O64   S    
C103  O51   S    
Cr11  O48   S    
C84   F18   S    
C108  H13   S    
C7    O70   S    
C48   C83   S    
C28   O73   S    
Cr1   O40   S    
C26   C51   S    
Cr1   O14   S    
C47   O79   S    
C89   C93   A    
Cr9   O10   S    
C1    O18   A    
C12   O75   S    
Cr4   O4    S    
C91   C99   A    
C22   C70   S    
C88   C98   A    
C18   H90   S    
C4    H44   S    
C23   F10   S    
C105  H5    S    
C100  O52   S    
C35   F5    S    
C41   C80   S    
C102  O50   S    
C108  H11   S    
C20   H94   S    
C51   O17   A    
C57   C89   S    
C97   O49   S    
C10   H66   S    
C28   C29   S    
Cr1   O36   S    
C99   O51   S    
C65   F15   S    
C10   O73   S    
Cr4   O13   S    
C102  H56   S    
C52   C69   D    
C4    O66   S    
C13   C62   A    
C84   C106  A    
Cr11  O13   S    
C49   C67   D    
C11   H69   S    
C113  H30   S    
C90   C94   A    
C116  O64   S    
C24   F11   S    
C109  O57   S    
C23   C71   S    
C83   O36   A    
C3    H42   S    
C18   H87   S    
C106  O66   S    
Cr4   O35   S    
C116  H38   S    
C33   C37   S    
C111  H21   S    
C39   C79   S    
Cr9   O19   S    
C71   O32   A    
Cr10  O20   S    
Cr5   O41   S    
C8    H58   S    
Cr6   O38   S    
Cr7   O43   S    
Cr5   O15   S    
C113  H28   S    
C31   F20   S    
Cr8   O44   S    
Cr6   O16   S    
Cr8   O45   S    
C8    O71   S    
C109  H15   S    
C41   C44   D    
C31   C35   S    
C102  H45   S    
C32   C36   S    
C107  H10   S    
C44   C45   S    
C26   O71   S    
C20   H96   S    
C46   C47   S    
C16   H83   S    
C27   C32   D    
C25   F13   S    
C49   O63   S    
C109  H16   S    
Cr3   O11   S    
C115  H35   S    
C20   O83   S    
Cr1   O1    S    
C104  O52   S    
C15   H80   S    
C18   O81   S    
C48   O62   S    
C6    H52   S    
C64   F14   S    
C65   C69   S    
C16   H82   S    
C92   C93   A    
C101  H23   S    
C87   O39   A    
C81   O67   A    
C46   O77   S    
C114  H31   S    
C58   O24   A    
C60   O26   A    
C50   C68   D    
C4    H47   S    
C40   O20   A    
C63   F12   S    
Cr10  O25   S    
C95   C96   A    
C77   O42   A    
C14   O76   S    
C32   F2    S    
Cr7   O34   S    
Cr5   O10   S    
C16   O79   S    
C103  H78   S    
C22   C35   D    
C116  H40   S    
C104  H3    S    
C14   H76   S    
C2    C95   A    
C9    H63   S    
C7    H54   S    
C56   C65   D    
C52   O65   S    
C72   O33   A    
C101  H1    S    
C8    H60   S    
Cr2   O10   S    
C110  H20   S    
C61   C66   S    
C88   C92   A    
C9    H61   S    
C62   C92   A    
C113  O61   S    
Cr12  O84   S    
Cr10  O11   S    
C45   O76   S    
C107  H8    S    
C33   F3    S    
C112  H25   S    
C34   F4    S    
C26   C31   D    
C2    O68   S    
C3    O65   S    
C98   O50   S    
Cr1   O9    S    
C90   C100  A    
Cr6   O23   S    
C87   O8    A    
C12   H73   S    
C68   O55   S    
C63   C67   S    
C74   O35   A    
C49   C85   S    
C80   O56   A    
C84   C94   A    
C108  H14   S    
C72   O23   A    
C89   C97   A    
C3    H43   S    
Cr3   O29   S    
C99   C100  A    
Cr8   O18   S    
C103  H89   S    
C55   C64   D    
Cr12  O9    S    
Cr10  O67   S    
C109  H17   S    
C79   O45   A    
C55   C76   S    
C27   O72   S    
C110  O58   S    
Cr9   O24   S    
Cr12  O27   S    
C76   O41   A    
C13   O69   S    
C78   O43   A    
Cr5   O12   S    
C70   O31   A    
C12   H71   S    
C34   C38   S    
C14   H74   S    
C52   C87   S    
Cr9   O46   S    
C77   O47   A    
C78   O48   A    
C5    H50   S    
C60   O30   A    
C66   O53   S    
C114  H32   S    
C48   C66   D    
Cr6   O42   S    
Cr7   O39   S    
C19   H92   S    
C110  H18   S    
Cr7   O17   S    
C111  O59   S    
C59   O29   A    
Cr8   O22   S    
C29   O19   A    
C105  H6    S    
C42   C47   D    
C44   O75   S    
C43   C46   D    
C71   O12   A    
C50   C86   S    
Cr10  O47   S    
C85   O6    A    
C112  H27   S    
C43   C82   S    
C79   O84   A    
