data_mof_unit_14008.cif
_audit_creation_date              2012-12-11T17:12:41-0500
_audit_creation_method            fapswitch 2.2
_symmetry_space_group_name_H-M    P1
_symmetry_Int_Tables_number       1
_space_group_crystal_system       triclinic
_cell_length_a                    17.174642
_cell_length_b                    6.878604
_cell_length_c                    14.411899
_cell_angle_alpha                 90.221113
_cell_angle_beta                  110.022733
_cell_angle_gamma                 89.731505
_cell_volume                      1599.65472357

loop_
_atom_site_label
_atom_site_type_symbol
_atom_type_description
_atom_site_fract_x
_atom_site_fract_y
_atom_site_fract_z
_atom_type_partial_charge
O1    O     O_R   0.314130 0.635770 0.168990 -0.539034
O2    O     O_R   0.685870 0.364230 0.831010 -0.539034
O3    O     O_R   0.185870 0.135770 0.331010 -0.541979
O4    O     O_R   0.814130 0.864230 0.668990 -0.541979
O5    O     O_R   0.146800 0.302460 0.139760 -0.536119
O6    O     O_R   0.853200 0.697540 0.860240 -0.536119
O7    O     O_R   0.353200 0.802460 0.360240 -0.536945
O8    O     O_R   0.646800 0.197540 0.639760 -0.536945
C1    C     C_R   0.113994 0.475949 0.112778 0.724383
C2    C     C_R   0.886006 0.524051 0.887222 0.724383
C3    C     C_R   0.386011 0.975777 0.387217 0.723967
C4    C     C_R   0.613989 0.024223 0.612783 0.723967
O9    O     O_R   0.311100 0.305780 0.157130 -0.542801
O10   O     O_R   0.688900 0.694220 0.842870 -0.542801
O11   O     O_R   0.188900 0.805780 0.342870 -0.544470
O12   O     O_R   0.811100 0.194220 0.657130 -0.544470
O13   O     O_R   0.351340 0.139640 0.348510 -0.536200
O14   O     O_R   0.648660 0.860360 0.651490 -0.536200
O15   O     O_R   0.148660 0.639640 0.151490 -0.535923
O16   O     O_R   0.851340 0.360360 0.848510 -0.535923
C5    C     C_R   0.333303 0.475325 0.136246 0.713198
C6    C     C_R   0.666696 0.524675 0.863754 0.713198
C7    C     C_R   0.167203 0.976741 0.364348 0.711792
C8    C     C_R   0.832797 0.023259 0.635652 0.711792
C9    C     C_1   0.533570 0.008983 0.533047 -0.189599
C10   C     C_1   0.466430 0.991017 0.466953 -0.189598
C11   C     C_1   0.966420 0.508774 0.966943 -0.188112
C12   C     C_1   0.033580 0.491225 0.033057 -0.188112
O17   O     O_3   0.263010 0.470920 0.312770 -0.369377
O18   O     O_3   0.736990 0.529080 0.687230 -0.369377
O19   O     O_3   0.236990 0.970920 0.187230 -0.366214
O20   O     O_3   0.763010 0.029080 0.812770 -0.366213
V1    V     V_3+5 0.247590 0.194450 0.238360 1.421294
V2    V     V_3+5 0.752410 0.805550 0.761640 1.421294
V3    V     V_3+5 0.252410 0.694450 0.261640 1.418196
V4    V     V_3+5 0.747590 0.305550 0.738360 1.418196
C13   C     C_R   0.116739 0.999129 0.428791 -0.096163
C14   C     C_R   0.883261 0.000870 0.571209 -0.096163
C15   C     C_R   0.383034 0.492150 0.070936 -0.090298
C16   C     C_R   0.616966 0.507850 0.929063 -0.090297
C17   C     C_R   0.925769 0.791017 0.459458 0.137459
C18   C     C_R   0.074231 0.208983 0.540542 0.137459
C19   C     C_R   0.590184 0.334782 0.062780 0.150895
C20   C     C_R   0.409815 0.665218 0.937220 0.150896
C21   C     C_R   0.871948 0.835766 0.510865 -0.197332
C22   C     C_R   0.128052 0.164233 0.489135 -0.197332
C23   C     C_R   0.640451 0.372896 0.006065 -0.199588
C24   C     C_R   0.359549 0.627103 0.993934 -0.199588
C25   C     C_R   0.948778 0.126494 0.579076 -0.255255
C26   C     C_R   0.051222 0.873506 0.420924 -0.255255
C27   C     C_R   0.541815 0.607454 0.907724 -0.256151
C28   C     C_R   0.458185 0.392546 0.092276 -0.256150
C29   C     C_R   0.005689 0.085227 0.530174 0.098293
C30   C     C_R   0.994311 0.914773 0.469826 0.098293
C31   C     C_R   0.487856 0.569436 0.960806 0.097675
C32   C     C_R   0.512144 0.430564 0.039193 0.097676
H1    H     H_    0.043500 0.749075 0.372687 0.137433
H2    H     H_    0.956500 0.250925 0.627313 0.137433
H3    H     H_    0.474744 0.290743 0.152899 0.132045
H4    H     H_    0.525256 0.709257 0.847101 0.132045
H5    H     H_    0.179316 0.260851 0.495352 0.125417
H6    H     H_    0.820684 0.739148 0.504648 0.125417
H7    H     H_    0.301369 0.704667 0.978447 0.118030
H8    H     H_    0.698631 0.295332 0.021553 0.118030
C33   C     C_3   0.907974 0.609008 0.395750 -0.374747
C34   C     C_3   0.864698 0.658744 0.286935 -0.750566
H9    H     H_    0.804620 0.732550 0.276559 0.228673
H10   H     H_    0.903715 0.755295 0.259648 0.224067
H11   H     H_    0.852402 0.523078 0.242308 0.213528
H12   H     H_    0.965515 0.524644 0.405992 0.175747
H13   H     H_    0.867004 0.509142 0.418411 0.181046
C35   C     C_3   0.092026 0.390991 0.604250 -0.374747
C36   C     C_3   0.135302 0.341255 0.713065 -0.750565
H14   H     H_    0.096284 0.244705 0.740353 0.224066
H15   H     H_    0.195379 0.267447 0.723441 0.228673
H16   H     H_    0.147598 0.476920 0.757692 0.213528
H17   H     H_    0.132996 0.490857 0.581589 0.181046
H18   H     H_    0.034485 0.475356 0.594008 0.175747
C37   C     C_3   0.622871 0.192511 0.147755 -0.379499
C38   C     C_3   0.586290 0.989891 0.119410 -0.739951
H19   H     H_    0.517934 0.992456 0.099395 0.232759
H20   H     H_    0.602423 0.932955 0.056060 0.235828
H21   H     H_    0.612410 0.889647 0.182812 0.214441
H22   H     H_    0.691430 0.179530 0.170209 0.178760
H23   H     H_    0.611041 0.246583 0.214380 0.171394
C39   C     C_3   0.377128 0.807488 0.852244 -0.379498
C40   C     C_3   0.413710 0.010109 0.880590 -0.739953
H24   H     H_    0.397576 0.067045 0.943939 0.235828
H25   H     H_    0.482066 0.007544 0.900605 0.232759
H26   H     H_    0.387589 0.110352 0.817187 0.214441
H27   H     H_    0.388959 0.753416 0.785619 0.171394
H28   H     H_    0.308570 0.820468 0.829790 0.178759

loop_
_geom_bond_atom_site_label_1
_geom_bond_atom_site_label_2
_ccdc_geom_bond_type
C2    C11   S    
C16   C23   A    
C34   H10   S    
C31   C32   A    
O1    C5    A    
C36   H14   S    
O3    C7    A    
C40   H24   S    
C14   C25   A    
C29   C30   A    
O7    C3    A    
C26   C30   A    
O20   V4    S    
C39   H27   S    
C18   C29   A    
O8    V4    S    
C37   H22   S    
O4    C8    A    
C34   H11   S    
O3    V1    S    
C19   C37   S    
C33   H12   S    
O17   V1    S    
C21   H6    S    
C18   C22   A    
C14   C21   A    
C35   H18   S    
C1    O15   A    
C33   H13   S    
O5    V1    S    
O2    C6    A    
C8    C14   S    
O19   V1    S    
O11   C7    A    
C34   H9    S    
O12   C8    A    
O9    V1    S    
C36   H15   S    
O13   V1    S    
C38   H21   S    
C20   C39   S    
O11   V3    S    
O4    V2    S    
O18   V2    S    
C22   H5    S    
C38   H20   S    
C2    O16   A    
C23   H8    S    
C39   C40   S    
C38   H19   S    
C24   H7    S    
C17   C33   S    
C3    C10   S    
C9    C10   T    
C7    C13   S    
C25   H2    S    
O6    V2    S    
O20   V2    S    
O5    C1    A    
C35   H17   S    
C28   H3    S    
C5    C15   S    
O8    C4    A    
C6    C16   S    
C18   C35   S    
O9    C5    A    
O14   V2    S    
C40   H25   S    
C36   H16   S    
O19   V3    S    
C37   H23   S    
O1    V3    S    
O2    V4    S    
C3    O13   A    
C26   H1    S    
O7    V3    S    
C35   C36   S    
O10   V2    S    
C16   C27   A    
O17   V3    S    
O18   V4    S    
C4    C9    S    
O10   C6    A    
C39   H28   S    
O12   V4    S    
C13   C26   A    
C20   C31   A    
C25   C29   A    
C15   C28   A    
C27   C31   A    
C17   C30   A    
O6    C2    A    
C37   C38   S    
O16   V4    S    
C28   C32   A    
C19   C32   A    
C33   C34   S    
C40   H26   S    
C4    O14   A    
C11   C12   T    
C17   C21   A    
O15   V3    S    
C27   H4    S    
C13   C22   A    
C19   C23   A    
C20   C24   A    
C1    C12   S    
C15   C24   A    
