data_mof_unit_26550.cif
_audit_creation_date              2012-12-10T17:05:52-0500
_audit_creation_method            fapswitch 2.2
_symmetry_space_group_name_H-M    P1
_symmetry_Int_Tables_number       1
_space_group_crystal_system       triclinic
_cell_length_a                    25.908609
_cell_length_b                    25.892761
_cell_length_c                    18.370302
_cell_angle_alpha                 89.893101
_cell_angle_beta                  135.011251
_cell_angle_gamma                 90.159781
_cell_volume                      8712.37913317

loop_
_atom_site_label
_atom_site_type_symbol
_atom_type_description
_atom_site_fract_x
_atom_site_fract_y
_atom_site_fract_z
_atom_type_partial_charge
C1    C     C_R   0.890942 0.750089 0.780823 0.933573
C2    C     C_R   0.889014 0.250898 0.780010 0.920456
C3    C     C_R   0.391075 0.250385 0.780372 0.894946
C4    C     C_R   0.388498 0.750944 0.779918 0.960525
C5    C     C_R   0.531854 0.692352 0.668009 0.341247
C6    C     C_R   0.419295 0.154037 0.451500 0.348282
C7    C     C_R   0.868434 0.311653 0.341401 0.334879
C8    C     C_R   0.901238 0.661745 0.408581 0.334857
C9    C     C_R   0.517039 0.719642 0.587050 -0.128411
C10   C     C_R   0.458916 0.200234 0.475612 -0.133758
C11   C     C_R   0.934308 0.284976 0.423310 -0.162907
C12   C     C_R   0.953033 0.702832 0.462457 -0.136076
C13   C     C_R   0.571670 0.719783 0.585714 -0.122720
C14   C     C_R   0.516109 0.198540 0.480521 -0.128248
C15   C     C_R   0.995819 0.293129 0.439165 -0.132720
C16   C     C_R   0.017735 0.698562 0.485426 -0.142561
C17   C     C_R   0.555962 0.746003 0.503405 -0.124876
C18   C     C_R   0.549307 0.246256 0.491345 -0.093466
C19   C     C_R   0.052063 0.254817 0.496411 -0.116313
C20   C     C_R   0.053988 0.745627 0.500905 -0.086638
C21   C     C_R   0.486610 0.767346 0.420551 0.124127
C22   C     C_R   0.527230 0.293637 0.499860 0.101479
C23   C     C_R   0.054630 0.217463 0.555032 0.099116
C24   C     C_R   0.035192 0.792816 0.515213 0.113842
C25   C     C_R   0.434843 0.768642 0.423972 0.352305
C26   C     C_R   0.475609 0.294089 0.503950 0.313772
C27   C     C_R   0.001249 0.217473 0.555852 0.359443
C28   C     C_R   0.983071 0.793284 0.518564 0.308794
C29   C     C_R   0.449445 0.745928 0.506233 -0.167097
C30   C     C_R   0.441823 0.247955 0.492146 -0.112951
C31   C     C_R   0.941638 0.251075 0.491074 -0.135585
C32   C     C_R   0.942076 0.748621 0.492275 -0.103287
C33   C     C_R   0.475205 0.817248 0.105773 0.323885
C34   C     C_R   0.473211 0.316643 0.090257 0.433788
C35   C     C_R   0.952793 0.272817 0.106167 0.408652
C36   C     C_R   0.970468 0.814497 0.091811 0.444835
C37   C     C_R   0.406548 0.839014 0.051838 0.165010
C38   C     C_R   0.446014 0.366228 0.048134 0.172912
C39   C     C_R   0.878640 0.272942 0.051155 0.209208
C40   C     C_R   0.942621 0.863916 0.049261 0.160460
C41   C     C_R   0.348428 0.829375 0.947019 -0.261278
C42   C     C_R   0.432193 0.380337 0.962129 -0.262682
C43   C     C_R   0.826242 0.273271 0.944595 -0.312770
C44   C     C_R   0.929441 0.878257 0.963888 -0.255319
C45   C     C_R   0.609100 0.751106 0.219828 1.035538
C46   C     C_R   0.607008 0.247447 0.219894 1.003902
C47   C     C_R   0.108704 0.251120 0.219957 1.046000
C48   C     C_R   0.106162 0.746664 0.220314 0.967971
C49   C     C_R   0.357455 0.800736 0.892599 0.203244
C50   C     C_R   0.438047 0.343797 0.911996 0.284423
C51   C     C_R   0.845724 0.272183 0.890802 0.230023
C52   C     C_R   0.936735 0.842077 0.914932 0.281953
C53   C     C_R   0.427094 0.779094 0.944731 -0.019329
C54   C     C_R   0.459177 0.292459 0.950349 -0.042623
C55   C     C_R   0.920165 0.262896 0.944299 -0.014737
C56   C     C_R   0.956727 0.790550 0.951860 -0.056536
C57   C     C_R   0.485170 0.783717 0.054500 -0.105218
C58   C     C_R   0.492217 0.283474 0.050869 -0.105083
C59   C     C_R   0.975050 0.263133 0.054570 -0.108079
C60   C     C_R   0.989323 0.781437 0.052101 -0.096980
C61   C     C_R   0.550779 0.755065 0.107601 -0.217217
C62   C     C_R   0.544602 0.243120 0.107325 -0.205525
C63   C     C_R   0.049429 0.254240 0.107910 -0.212750
C64   C     C_R   0.041377 0.741077 0.108388 -0.202103
C65   C     C_R   0.560703 0.727286 0.052860 0.349567
C66   C     C_R   0.541735 0.202582 0.052993 0.356175
C67   C     C_R   0.068522 0.245587 0.053861 0.342860
C68   C     C_R   0.035467 0.699132 0.054195 0.343015
C69   C     C_R   0.505012 0.724126 0.946558 0.303127
C70   C     C_R   0.489030 0.203708 0.945724 0.320769
C71   C     C_R   0.015277 0.245535 0.947038 0.319286
C72   C     C_R   0.985119 0.701349 0.946687 0.348382
C73   C     C_R   0.440698 0.752080 0.891988 -0.195104
C74   C     C_R   0.448753 0.249608 0.893295 -0.237500
C75   C     C_R   0.941841 0.253970 0.892073 -0.207622
C76   C     C_R   0.947253 0.748158 0.894501 -0.227255
C77   C     C_R   0.612845 0.950564 0.411396 0.325099
C78   C     C_R   0.606492 0.050161 0.345343 0.328403
C79   C     C_R   0.110889 0.450581 0.310771 0.306299
C80   C     C_R   0.107082 0.556483 0.339757 0.297603
C81   C     C_R   0.546095 0.977112 0.341322 0.323764
C82   C     C_R   0.542240 0.025063 0.303022 0.326740
C83   C     C_R   0.045950 0.478738 0.238265 0.345221
C84   C     C_R   0.043486 0.530674 0.254536 0.341472
C85   C     C_R   0.675527 0.026921 0.427437 -0.141298
C86   C     C_R   0.677677 0.973590 0.446772 -0.152300
C87   C     C_R   0.175256 0.529174 0.413000 -0.113235
C88   C     C_R   0.175737 0.474391 0.403914 -0.120651
C89   C     C_R   0.749569 0.610098 0.494586 0.986490
C90   C     C_R   0.750325 0.390029 0.500898 0.946626
C91   C     C_R   0.249551 0.110170 0.493638 0.975633
C92   C     C_R   0.250423 0.890057 0.500725 0.940836
C93   C     C_R   0.743095 0.946244 0.494298 -0.049012
C94   C     C_R   0.742818 0.053926 0.488660 -0.036100
C95   C     C_R   0.241354 0.446486 0.487296 -0.072439
C96   C     C_R   0.242898 0.554438 0.494949 -0.073086
C97   C     C_R   0.805167 0.973145 0.530450 0.129043
C98   C     C_R   0.807468 0.027090 0.538153 0.100533
C99   C     C_R   0.307263 0.472949 0.567282 0.161530
C100  C     C_R   0.307143 0.526601 0.573095 0.124665
C101  C     C_R   0.677103 0.549752 0.297968 0.283540
C102  C     C_R   0.697917 0.442772 0.315675 0.263914
C103  C     C_R   0.175465 0.049397 0.296021 0.311812
C104  C     C_R   0.197882 0.942283 0.315163 0.277834
C105  C     C_R   0.644631 0.519618 0.210807 0.295135
C106  C     C_R   0.656135 0.466680 0.220183 0.251049
C107  C     C_R   0.142217 0.018766 0.208989 0.290408
C108  C     C_R   0.154560 0.965840 0.218995 0.277699
C109  C     C_R   0.721324 0.470919 0.401830 -0.150709
C110  C     C_R   0.715069 0.525959 0.395770 -0.173732
C111  C     C_R   0.221314 0.970740 0.401139 -0.166931
C112  C     C_R   0.214589 0.025846 0.394539 -0.152594
C113  C     C_R   0.748234 0.553846 0.488260 -0.205016
C114  C     C_R   0.752059 0.445902 0.494398 -0.153830
C115  C     C_R   0.248371 0.053911 0.487234 -0.196397
C116  C     C_R   0.252671 0.945931 0.494146 -0.156514
C117  C     C_R   0.781547 0.527627 0.579666 0.333889
C118  C     C_R   0.783381 0.474200 0.582559 0.292832
C119  C     C_R   0.283264 0.027852 0.579416 0.313126
C120  C     C_R   0.285711 0.974478 0.582871 0.300988
C121  C     C_R   0.745927 0.889943 0.496138 0.907757
C122  C     C_R   0.746857 0.110088 0.496296 0.935014
C123  C     C_R   0.244004 0.389925 0.493279 0.895865
C124  C     C_R   0.249359 0.610160 0.499690 0.890344
C125  C     C_R   0.890019 0.750385 0.500053 0.940397
C126  C     C_R   0.888729 0.250794 0.497507 0.958464
C127  C     C_R   0.390194 0.250507 0.500493 0.933573
C128  C     C_R   0.390902 0.749236 0.501593 0.990557
C129  C     C_R   0.609593 0.750132 0.499036 0.920961
C130  C     C_R   0.608816 0.248811 0.497752 0.920815
C131  C     C_R   0.108330 0.252231 0.496480 0.904697
C132  C     C_R   0.108570 0.747592 0.497250 0.901679
C133  C     C_R   0.638540 0.691930 0.664504 0.293068
C134  C     C_R   0.535696 0.149081 0.471796 0.343171
C135  C     C_R   0.997355 0.339107 0.397167 0.373809
C136  C     C_R   0.039883 0.647734 0.486593 0.357559
C137  C     C_R   0.653707 0.670606 0.748034 0.292327
C138  C     C_R   0.509795 0.103735 0.479030 0.300557
C139  C     C_R   0.934849 0.370436 0.329345 0.312549
C140  C     C_R   0.988816 0.607225 0.434542 0.311459
C141  C     C_R   0.601438 0.671952 0.751116 0.033277
C142  C     C_R   0.449127 0.105871 0.464434 0.073742
C143  C     C_R   0.869480 0.355314 0.297459 0.039421
C144  C     C_R   0.918473 0.614805 0.391917 0.059229
H1    H     H_    0.295129 0.845378 0.905299 0.172335
H2    H     H_    0.415484 0.419483 0.932997 0.168598
H3    H     H_    0.769281 0.277554 0.902570 0.156551
H4    H     H_    0.913545 0.917576 0.935596 0.173618
O1    O     O_3   0.750020 0.750020 0.500000 -0.533526
O2    O     O_3   0.750020 0.249980 0.500000 -0.535348
O3    O     O_3   0.250020 0.250020 0.500000 -0.533476
O4    O     O_3   0.250020 0.749980 0.500000 -0.529671
O5    O     O_R   0.689310 0.634210 0.439280 -0.590210
O6    O     O_R   0.689310 0.365790 0.439280 -0.645192
O7    O     O_R   0.189310 0.134210 0.439280 -0.616240
O8    O     O_R   0.189310 0.865790 0.439280 -0.648731
O9    O     O_R   0.750010 0.865830 0.560720 -0.614869
O10   O     O_R   0.750010 0.134170 0.560720 -0.617399
O11   O     O_R   0.250010 0.365830 0.560720 -0.621808
O12   O     O_R   0.250010 0.634170 0.560720 -0.580140
O13   O     O_R   0.896180 0.719660 0.731600 -0.596669
O14   O     O_R   0.896180 0.280340 0.731600 -0.595895
O15   O     O_R   0.396180 0.219660 0.731600 -0.593844
O16   O     O_R   0.396180 0.780340 0.731600 -0.616682
O17   O     O_R   0.664580 0.780370 0.268400 -0.583608
O18   O     O_R   0.664580 0.219630 0.268400 -0.548962
O19   O     O_R   0.164580 0.280370 0.268400 -0.561770
O20   O     O_R   0.164580 0.719630 0.268400 -0.579773
O21   O     O_R   0.835450 0.780390 0.731600 -0.620818
O22   O     O_R   0.835450 0.219610 0.731600 -0.636519
O23   O     O_R   0.335450 0.280390 0.731600 -0.646071
O24   O     O_R   0.335450 0.719610 0.731600 -0.612012
O25   O     O_R   0.603870 0.719650 0.268400 -0.604312
O26   O     O_R   0.603870 0.280350 0.268400 -0.607325
O27   O     O_R   0.103870 0.219650 0.268400 -0.591224
O28   O     O_R   0.103870 0.780350 0.268400 -0.606553
O29   O     O_R   0.810750 0.634210 0.560720 -0.589465
O30   O     O_R   0.810750 0.365790 0.560720 -0.589466
O31   O     O_R   0.310750 0.134210 0.560720 -0.592403
O32   O     O_R   0.310750 0.865790 0.560720 -0.593191
O33   O     O_R   0.750010 0.865820 0.439280 -0.603997
O34   O     O_R   0.750010 0.134180 0.439280 -0.589026
O35   O     O_R   0.250010 0.365820 0.439280 -0.587129
O36   O     O_R   0.250010 0.634180 0.439280 -0.606615
O37   O     O_R   0.896180 0.719650 0.560720 -0.643855
O38   O     O_R   0.896180 0.280350 0.560720 -0.608892
O39   O     O_R   0.396180 0.219650 0.560720 -0.645375
O40   O     O_R   0.396180 0.780350 0.560720 -0.596221
O41   O     O_R   0.664570 0.780390 0.560720 -0.567766
O42   O     O_R   0.664570 0.219610 0.560720 -0.626138
O43   O     O_R   0.164570 0.280390 0.560720 -0.601363
O44   O     O_R   0.164570 0.719610 0.560720 -0.592373
O45   O     O_R   0.835460 0.780370 0.439280 -0.576441
O46   O     O_R   0.835460 0.219630 0.439280 -0.585365
O47   O     O_R   0.335460 0.280370 0.439280 -0.568142
O48   O     O_R   0.335460 0.719630 0.439280 -0.602850
O49   O     O_R   0.603860 0.719660 0.439280 -0.635869
O50   O     O_R   0.603860 0.280340 0.439280 -0.606658
O51   O     O_R   0.103860 0.219660 0.439280 -0.636241
O52   O     O_R   0.103860 0.780340 0.439280 -0.617410
Zn1   Zn    Zn3+2 0.663270 0.706640 0.413250 1.112006
Zn2   Zn    Zn3+2 0.663270 0.293360 0.413250 1.066908
Zn3   Zn    Zn3+2 0.163270 0.206640 0.413250 1.094458
Zn4   Zn    Zn3+2 0.163270 0.793360 0.413250 1.051789
Zn5   Zn    Zn3+2 0.836780 0.706640 0.586750 1.109567
Zn6   Zn    Zn3+2 0.836780 0.293360 0.586750 1.099187
Zn7   Zn    Zn3+2 0.336780 0.206640 0.586750 1.074392
Zn8   Zn    Zn3+2 0.336780 0.793360 0.586750 1.097614
Zn9   Zn    Zn3+2 0.750020 0.793390 0.413240 1.122713
Zn10  Zn    Zn3+2 0.750020 0.206610 0.413240 1.160056
Zn11  Zn    Zn3+2 0.250020 0.293390 0.413240 1.159107
Zn12  Zn    Zn3+2 0.250020 0.706610 0.413240 1.138315
Zn13  Zn    Zn3+2 0.750010 0.793400 0.586760 1.084639
Zn14  Zn    Zn3+2 0.750010 0.206600 0.586760 1.038957
Zn15  Zn    Zn3+2 0.250010 0.293400 0.586760 1.040387
Zn16  Zn    Zn3+2 0.250010 0.706600 0.586760 1.087029
N1    N     N_2   0.467788 0.787688 0.331987 -0.237423
H5    H     H_    0.508946 0.807151 0.346389 0.288708
C145  C     C_3   0.429649 0.751406 0.247564 -0.635670
H6    H     H_    0.464848 0.717697 0.270283 0.236925
H7    H     H_    0.414783 0.770403 0.180801 0.243775
H8    H     H_    0.378688 0.737723 0.223298 0.262829
N2    N     N_2   0.561938 0.340625 0.512672 -0.322246
H9    H     H_    0.582989 0.361983 0.576125 0.261909
C146  C     C_3   0.520681 0.371620 0.420348 -0.575290
H10   H     H_    0.555785 0.403327 0.434365 0.215650
H11   H     H_    0.472199 0.388786 0.398846 0.269789
H12   H     H_    0.502242 0.347944 0.355062 0.279570
N3    N     N_2   0.111827 0.180194 0.615656 -0.279334
H13   H     H_    0.125687 0.163789 0.580314 0.225080
C147  C     C_3   0.174866 0.196221 0.720331 -0.580032
H14   H     H_    0.202770 0.229196 0.721138 0.213722
H15   H     H_    0.213895 0.163602 0.763519 0.256069
H16   H     H_    0.158485 0.207697 0.759877 0.288215
N4    N     N_2   0.073591 0.838952 0.534725 -0.323023
H17   H     H_    0.096657 0.857702 0.601573 0.262039
C148  C     C_3   0.034363 0.873620 0.447643 -0.611120
H18   H     H_    0.071881 0.904498 0.465846 0.221892
H19   H     H_    0.987959 0.891803 0.430448 0.268501
H20   H     H_    0.013085 0.852674 0.378141 0.274548
N5    N     N_2   0.293732 0.790335 0.787238 -0.315481
H21   H     H_    0.251439 0.775332 0.775655 0.239259
C149  C     C_3   0.269920 0.832790 0.718295 -0.706931
H22   H     H_    0.252767 0.866079 0.735179 0.255766
H23   H     H_    0.314659 0.844563 0.726003 0.273625
H24   H     H_    0.223128 0.820394 0.637615 0.206215
N6    N     N_2   0.429183 0.360120 0.829647 -0.302680
H25   H     H_    0.400532 0.394116 0.795581 0.233283
C150  C     C_3   0.495363 0.359407 0.852390 -0.722732
H26   H     H_    0.481521 0.363466 0.780143 0.224474
H27   H     H_    0.525248 0.322426 0.888732 0.245725
H28   H     H_    0.531516 0.391912 0.904337 0.294499
N7    N     N_2   0.789508 0.282969 0.783520 -0.320158
H29   H     H_    0.738882 0.268678 0.747458 0.226905
C151  C     C_3   0.786035 0.336416 0.757873 -0.662933
H30   H     H_    0.769060 0.361008 0.787464 0.261484
H31   H     H_    0.840186 0.349442 0.791762 0.285507
H32   H     H_    0.745603 0.340648 0.672869 0.210980
N8    N     N_2   0.934199 0.859532 0.839029 -0.313078
H33   H     H_    0.908003 0.894335 0.805197 0.231106
C152  C     C_3   0.001724 0.854398 0.865470 -0.703777
H34   H     H_    0.990607 0.833437 0.802925 0.221592
H35   H     H_    0.044379 0.832785 0.938457 0.271591
H36   H     H_    0.024216 0.893196 0.874877 0.275078
Cl1   Cl    Cl    0.512795 0.679751 0.882098 -0.519786
Cl2   Cl    Cl    0.475181 0.146335 0.880705 -0.394856
Cl3   Cl    Cl    0.041128 0.231020 0.881893 -0.439871
Cl4   Cl    Cl    0.970954 0.644427 0.880890 -0.361705
N9    N     N_2   0.864414 0.945823 0.557371 -0.278948
H37   H     H_    0.886855 0.962788 0.534169 0.261353
C153  C     C_3   0.917591 0.926312 0.661195 -0.722605
H38   H     H_    0.934125 0.956660 0.717085 0.241339
H39   H     H_    0.966952 0.913150 0.680900 0.284828
H40   H     H_    0.893983 0.892751 0.666558 0.232517
N10   N     N_2   0.873869 0.054997 0.592615 -0.320610
H41   H     H_    0.908485 0.042203 0.586941 0.259118
C154  C     C_3   0.910728 0.073903 0.693895 -0.631444
H42   H     H_    0.962165 0.052113 0.753937 0.258185
H43   H     H_    0.876298 0.069932 0.709140 0.232775
H44   H     H_    0.924296 0.115358 0.699790 0.265062
N11   N     N_2   0.375205 0.445889 0.641457 -0.323578
H45   H     H_    0.372964 0.406826 0.648637 0.206772
C155  C     C_3   0.433152 0.460273 0.649215 -0.614513
H46   H     H_    0.414221 0.488036 0.588132 0.254831
H47   H     H_    0.454116 0.425525 0.641928 0.259248
H48   H     H_    0.478859 0.477774 0.725883 0.260095
N12   N     N_2   0.373210 0.552335 0.659318 -0.308395
H49   H     H_    0.382614 0.587666 0.644594 0.256975
C156  C     C_3   0.388471 0.551969 0.751804 -0.560979
H50   H     H_    0.443008 0.569348 0.816176 0.290271
H51   H     H_    0.389035 0.511786 0.773682 0.235945
H52   H     H_    0.346712 0.574785 0.739827 0.247276
Cl5   Cl    Cl    0.612372 0.893242 0.462876 -0.499603
Cl6   Cl    Cl    0.596845 0.105982 0.281150 -0.439202
Cl7   Cl    Cl    0.108301 0.388492 0.269477 -0.457318
Cl8   Cl    Cl    0.094650 0.622208 0.352099 -0.512483
Cl9   Cl    Cl    0.466429 0.950706 0.301902 -0.433597
Cl10  Cl    Cl    0.456360 0.054822 0.204375 -0.359088
Cl11  Cl    Cl    0.966059 0.448952 0.123386 -0.332778
Cl12  Cl    Cl    0.959350 0.564131 0.164122 -0.315469
Cl13  Cl    Cl    0.816945 0.561719 0.691176 -0.349143
Cl14  Cl    Cl    0.824494 0.442709 0.698666 -0.517066
Cl15  Cl    Cl    0.319920 0.062039 0.691607 -0.445480
Cl16  Cl    Cl    0.330514 0.943659 0.701028 -0.539502
Cl17  Cl    Cl    0.668348 0.616585 0.275558 -0.459323
Cl18  Cl    Cl    0.728064 0.379671 0.325023 -0.533465
Cl19  Cl    Cl    0.165774 0.116430 0.272078 -0.464880
Cl20  Cl    Cl    0.230106 0.879488 0.325538 -0.503432
Cl21  Cl    Cl    0.591846 0.548581 0.088150 -0.419381
Cl22  Cl    Cl    0.619095 0.429975 0.110906 -0.543558
Cl23  Cl    Cl    0.087244 0.047138 0.085415 -0.421363
Cl24  Cl    Cl    0.116740 0.928736 0.109611 -0.494595
Cl25  Cl    Cl    0.703877 0.677393 0.661106 -0.507407
Cl26  Cl    Cl    0.578156 0.140345 0.429566 -0.513125
Cl27  Cl    Cl    0.078000 0.364826 0.438982 -0.469620
Cl28  Cl    Cl    0.131924 0.627417 0.581088 -0.463759
Cl29  Cl    Cl    0.738357 0.639390 0.848771 -0.426386
Cl30  Cl    Cl    0.551738 0.043893 0.501980 -0.520920
Cl31  Cl    Cl    0.937087 0.428267 0.280238 -0.454034
Cl32  Cl    Cl    0.014347 0.545536 0.427482 -0.460012
N13   N     N_2   0.805071 0.385659 0.225573 -0.207937
H53   H     H_    0.813374 0.424754 0.240735 0.274059
C157  C     C_3   0.761487 0.374036 0.118547 -0.549334
H54   H     H_    0.792552 0.382805 0.099051 0.240212
H55   H     H_    0.711274 0.397962 0.068972 0.259336
H56   H     H_    0.744829 0.332798 0.102111 0.243037
N14   N     N_2   0.864914 0.574867 0.333981 -0.223367
H57   H     H_    0.866257 0.553898 0.287671 0.296239
C158  C     C_3   0.859719 0.542396 0.392821 -0.586594
H58   H     H_    0.814113 0.514505 0.340491 0.224395
H59   H     H_    0.848691 0.566011 0.431012 0.252061
H60   H     H_    0.911191 0.520454 0.452043 0.251008
N15   N     N_2   0.617366 0.650230 0.836449 -0.230067
H61   H     H_    0.638530 0.613392 0.855324 0.279474
C159  C     C_3   0.659080 0.684010 0.925101 -0.443321
H62   H     H_    0.667346 0.664929 0.986820 0.289600
H63   H     H_    0.629439 0.720904 0.904093 0.252047
H64   H     H_    0.713542 0.692487 0.955672 0.235764
N16   N     N_2   0.413004 0.059856 0.451803 -0.240419
H65   H     H_    0.418574 0.028297 0.423722 0.310643
C160  C     C_3   0.422639 0.047415 0.537609 -0.593382
H66   H     H_    0.388373 0.013428 0.517686 0.242309
H67   H     H_    0.405568 0.080236 0.555452 0.259922
H68   H     H_    0.480758 0.038038 0.606684 0.248841
Cl33  Cl    Cl    0.464043 0.675537 0.664759 -0.605201
Cl34  Cl    Cl    0.326058 0.154395 0.383016 -0.495128
Cl35  Cl    Cl    0.781673 0.285875 0.276419 -0.538857
Cl36  Cl    Cl    0.809636 0.670308 0.343368 -0.496937
Cl37  Cl    Cl    0.351192 0.801209 0.324163 -0.501408
Cl38  Cl    Cl    0.455650 0.353165 0.528362 -0.672723
Cl39  Cl    Cl    0.007072 0.172443 0.634196 -0.553694
Cl40  Cl    Cl    0.968722 0.850551 0.554719 -0.674844
Cl41  Cl    Cl    0.644862 0.697464 0.116670 -0.421104
Cl42  Cl    Cl    0.600711 0.148349 0.115273 -0.386435
Cl43  Cl    Cl    0.159922 0.230927 0.120087 -0.372585
Cl44  Cl    Cl    0.085150 0.641353 0.118713 -0.426611
Cl45  Cl    Cl    0.547067 0.837530 0.235313 -0.655812
Cl46  Cl    Cl    0.460901 0.291578 0.166988 -0.520684
Cl47  Cl    Cl    0.011777 0.293633 0.235069 -0.540589
Cl48  Cl    Cl    0.961369 0.789757 0.172300 -0.530280
N17   N     N_2   0.397627 0.871986 0.104462 -0.257769
H69   H     H_    0.419411 0.908357 0.118824 0.298616
C161  C     C_3   0.328565 0.871112 0.074029 -0.578352
H70   H     H_    0.336061 0.887681 0.136645 0.308767
H71   H     H_    0.308396 0.830854 0.060273 0.226321
H72   H     H_    0.287484 0.894732 0.003614 0.223074
N18   N     N_2   0.432117 0.401752 0.091659 -0.265948
H73   H     H_    0.394485 0.429932 0.041272 0.244542
C162  C     C_3   0.497078 0.423015 0.189939 -0.659410
H74   H     H_    0.527094 0.447482 0.180134 0.232161
H75   H     H_    0.533579 0.391824 0.246230 0.269803
H76   H     H_    0.481334 0.447226 0.221491 0.234200
N19   N     N_2   0.856397 0.277612 0.103049 -0.273347
H77   H     H_    0.805462 0.293787 0.058868 0.223848
C163  C     C_3   0.864655 0.230989 0.154041 -0.679962
H78   H     H_    0.849358 0.238890 0.196148 0.257143
H79   H     H_    0.922097 0.217398 0.210582 0.267642
H80   H     H_    0.828451 0.200089 0.096406 0.237304
N20   N     N_2   0.929071 0.899464 0.093168 -0.267015
H81   H     H_    0.890764 0.927264 0.042460 0.242925
C164  C     C_3   0.994290 0.921505 0.190205 -0.667331
H82   H     H_    0.023443 0.945696 0.178541 0.228223
H83   H     H_    0.031456 0.890744 0.247265 0.271925
H84   H     H_    0.979002 0.946140 0.221926 0.234044

loop_
_geom_bond_atom_site_label_1
_geom_bond_atom_site_label_2
_ccdc_geom_bond_type
C151  H31   S    
C37   N17   S    
C55   C59   A    
N4    C148  S    
N2    H9    S    
C136  C140  A    
N15   H61   S    
C133  C137  A    
C100  N12   S    
C46   C62   S    
C93   C121  S    
C69   Cl1   S    
C95   C99   A    
C153  H38   S    
C146  H12   S    
C118  Cl14  S    
O25   Zn1   S    
C3    C74   S    
C9    C13   A    
C123  O35   A    
C92   O32   A    
C79   Cl7   S    
C54   C74   A    
C11   C15   A    
C80   Cl8   S    
C12   C16   A    
C70   C74   A    
C127  O39   A    
N12   C156  S    
C134  Cl26  S    
C162  H76   S    
C66   Cl42  S    
C88   C95   A    
O3    Zn15  S    
C19   C131  S    
O13   Zn5   S    
C20   C132  S    
C41   C49   A    
O5    Zn1   S    
C23   C27   A    
C25   C29   A    
C140  Cl32  S    
O31   Zn7   S    
C27   C31   A    
C157  H54   S    
C28   C32   A    
C159  H63   S    
C62   C66   A    
C101  C110  A    
C17   C21   A    
C103  C112  A    
C135  C139  A    
N3    H13   S    
C127  O47   A    
C10   C30   A    
C125  O45   A    
C16   C20   A    
C122  O10   A    
C92   C116  S    
C144  N14   S    
C142  N16   S    
C99   N11   S    
C135  Cl27  S    
N9    C153  S    
C10   C14   A    
C164  H82   S    
C18   C130  S    
N7    C151  S    
C30   C127  S    
C13   C133  A    
N8    C152  S    
C49   N5    S    
C163  H78   S    
C82   Cl10  S    
C57   C61   A    
O21   Zn13  S    
C59   C63   A    
C60   C64   A    
O18   Zn10  S    
C66   C70   A    
C123  O11   A    
C49   C53   A    
C124  O12   A    
C147  H16   S    
C51   C55   A    
C90   C114  S    
O1    Zn13  S    
C159  H62   S    
O48   Zn12  S    
C61   C65   A    
N13   H53   S    
O39   Zn7   S    
C34   C58   A    
C108  Cl24  S    
C102  C109  A    
C103  C107  A    
O3    Zn7   S    
O24   Zn16  S    
C129  O49   A    
C2    C75   S    
C130  O42   A    
C111  C112  A    
C7    Cl35  S    
C2    O14   A    
C7    C143  A    
C97   C98   A    
C85   C86   A    
C5    C9    A    
O4    Zn16  S    
C150  H26   S    
O2    Zn10  S    
C124  O36   A    
C152  H34   S    
C101  Cl17  S    
O30   Zn6   S    
O34   Zn10  S    
C125  O37   A    
N5    H21   S    
C45   C61   S    
C105  Cl21  S    
C139  C143  A    
C107  Cl23  S    
C129  O41   A    
O50   Zn2   S    
C164  H84   S    
C107  C108  A    
C132  O44   A    
C8    C12   A    
C36   Cl48  S    
C55   C75   A    
C44   C52   A    
C21   N1    S    
C154  H42   S    
C155  H48   S    
C158  H59   S    
O7    Zn3   S    
O45   Zn9   S    
C70   Cl2   S    
C160  H67   S    
O11   Zn15  S    
O38   Zn6   S    
O2    Zn6   S    
C8    C144  A    
O16   Zn8   S    
N14   C158  S    
N1    H5    S    
C116  C120  A    
C157  H55   S    
C25   Cl37  S    
C86   C93   A    
O46   Zn10  S    
C27   Cl39  S    
C83   C84   A    
C161  H70   S    
C149  H24   S    
C46   O26   A    
C156  H50   S    
C138  Cl30  S    
C4    C73   S    
C23   N3    S    
O41   Zn13  S    
C109  C114  A    
C42   C50   A    
C113  C117  A    
C78   C85   A    
C26   C30   A    
C115  C119  A    
C161  H72   S    
C90   O6    A    
C16   C136  A    
C93   C97   A    
C163  H80   S    
C95   C123  S    
C21   C25   A    
C150  H28   S    
C4    O24   A    
C18   C22   A    
C1    C76   S    
O4    Zn8   S    
C24   C28   A    
C152  H36   S    
N2    C146  S    
C8    Cl36  S    
O10   Zn14  S    
C103  Cl19  S    
C13   C17   A    
C148  H19   S    
C39   N19   S    
C117  C118  A    
C145  H8    S    
C97   N9    S    
C96   C100  A    
C146  H11   S    
C37   C41   A    
C1    O13   A    
C40   C44   A    
C154  H44   S    
C155  H46   S    
C47   O27   A    
N8    H33   S    
C162  H75   S    
C83   Cl11  S    
C58   C62   A    
C153  H40   S    
C87   C88   A    
C90   O30   A    
N16   H65   S    
O28   Zn4   S    
N10   H41   S    
C133  Cl25  S    
C80   C84   A    
N20   H81   S    
C15   C19   A    
N17   C161  S    
C50   C54   A    
O1    Zn9   S    
O32   Zn8   S    
N19   C163  S    
C47   C63   S    
C48   C64   S    
C94   C98   A    
C149  H22   S    
O12   Zn16  S    
O26   Zn2   S    
C156  H52   S    
C35   C59   A    
C40   N20   S    
C14   C18   A    
O43   Zn15  S    
N4    H17   S    
C69   C73   A    
C111  C116  A    
C6    C142  A    
C139  Cl31  S    
C3    O15   A    
C28   Cl40  S    
O23   Zn15  S    
N15   C159  S    
O4    Zn12  S    
C151  H32   S    
C65   Cl41  S    
N9    H37   S    
O14   Zn6   S    
O51   Zn3   S    
C79   C88   A    
O6    Zn2   S    
C89   C113  S    
N6    C150  S    
C72   Cl4   S    
C102  Cl18  S    
C143  N13   S    
C126  O38   A    
C138  C142  A    
O1    Zn5   S    
C145  H6    S    
C53   C57   A    
C106  Cl22  S    
C38   N18   S    
C33   C37   A    
C56   C60   A    
C68   C72   A    
C35   C39   A    
C126  O46   A    
N12   H49   S    
O29   Zn5   S    
C77   C81   A    
C147  H15   S    
C2    O22   A    
C141  N15   S    
C137  Cl29  S    
N11   C155  S    
O2    Zn2   S    
C50   N6    S    
C51   N7    S    
C64   C68   A    
C104  C108  A    
C121  O33   A    
C22   N2    S    
C137  C141  A    
O40   Zn8   S    
C71   Cl3   S    
C46   O18   A    
C128  O40   A    
C140  C144  A    
C6    C10   A    
C159  H64   S    
C119  C120  A    
O22   Zn14  S    
C105  C106  A    
O27   Zn3   S    
N14   H57   S    
N3    C147  S    
C109  C110  A    
C79   C83   A    
O17   Zn9   S    
N7    H29   S    
C43   C51   A    
C65   C69   A    
O15   Zn7   S    
C91   C115  S    
C67   C71   A    
C78   Cl6   S    
C98   N10   S    
C41   H1    S    
C22   C26   A    
C117  Cl13  S    
C164  H83   S    
O4    Zn4   S    
C119  Cl15  S    
C45   O17   A    
C120  Cl16  S    
C68   Cl44  S    
C56   C76   A    
C155  H47   S    
C158  H58   S    
O20   Zn12  S    
C19   C23   A    
N18   H73   S    
C132  O52   A    
C72   C76   A    
C81   C82   A    
C160  H66   S    
C136  Cl28  S    
C7    C11   A    
C104  Cl20  S    
O3    Zn11  S    
N10   C154  S    
C38   C42   A    
C80   C87   A    
C45   O25   A    
N20   C164  S    
C15   C135  A    
O35   Zn11  S    
O33   Zn9   S    
C78   C82   A    
C156  H51   S    
C20   C24   A    
C149  H23   S    
C91   O31   A    
C94   C122  S    
C4    O16   A    
O49   Zn1   S    
C89   O29   A    
C9    C29   A    
C11   C31   A    
C121  O9    A    
C12   C32   A    
C161  H71   S    
O36   Zn12  S    
C163  H79   S    
C101  C105  A    
C63   C67   A    
C150  H27   S    
C96   C124  S    
C17   C129  S    
O37   Zn5   S    
C36   C40   A    
N18   C162  S    
C152  H35   S    
C39   C43   A    
C14   C134  A    
N13   C157  S    
N11   H45   S    
C52   N8    S    
C77   Cl5   S    
C5    Cl33  S    
N5    C149  S    
C32   C125  S    
C26   Cl38  S    
C131  O51   A    
O47   Zn11  S    
C81   Cl9   S    
O52   Zn4   S    
C145  H7    S    
C47   O19   A    
C85   C94   A    
C89   O5    A    
C99   C100  A    
C48   O20   A    
C87   C96   A    
C146  H10   S    
C92   O8    A    
O42   Zn14  S    
C110  C113  A    
C114  C118  A    
C33   Cl45  S    
N16   C160  S    
C77   C86   A    
C35   Cl47  S    
C154  H43   S    
C158  H60   S    
C148  H20   S    
C91   O7    A    
C151  H30   S    
O8    Zn4   S    
O1    Zn1   S    
C34   Cl46  S    
C162  H74   S    
C54   C58   A    
C160  H68   S    
C153  H39   S    
C33   C57   A    
C34   C38   A    
C53   C73   A    
C5    C141  A    
C128  O48   A    
O3    Zn3   S    
C36   C60   A    
C134  C138  A    
C104  C111  A    
N6    H25   S    
C131  O43   A    
N1    C145  S    
N17   H69   S    
O9    Zn13  S    
C67   Cl43  S    
C157  H56   S    
O19   Zn11  S    
C24   N4    S    
C130  O50   A    
N19   H77   S    
C71   C75   A    
C3    O23   A    
C1    O21   A    
C44   H4    S    
C102  C106  A    
O2    Zn14  S    
C148  H18   S    
C43   H3    S    
C122  O34   A    
C29   C128  S    
C147  H14   S    
C31   C126  S    
C48   O28   A    
C6    Cl34  S    
O44   Zn16  S    
C112  C115  A    
C52   C56   A    
C84   Cl12  S    
C42   H2    S    
