data_mof_unit_56003.cif
_audit_creation_date              2012-12-10T17:42:36-0500
_audit_creation_method            fapswitch 2.2
_symmetry_space_group_name_H-M    P1
_symmetry_Int_Tables_number       1
_space_group_crystal_system       triclinic
_cell_length_a                    9.895905
_cell_length_b                    10.721047
_cell_length_c                    13.054495
_cell_angle_alpha                 91.046596
_cell_angle_beta                  71.146512
_cell_angle_gamma                 89.307721
_cell_volume                      1310.24567998

loop_
_atom_site_label
_atom_site_type_symbol
_atom_type_description
_atom_site_fract_x
_atom_site_fract_y
_atom_site_fract_z
_atom_type_partial_charge
C1    C     C_R   0.501240 0.740007 0.492584 0.879550
C2    C     C_R   0.376859 0.460398 0.818691 -0.112876
C3    C     C_R   0.248277 0.891579 0.477037 -0.181158
C4    C     C_R   0.422581 0.488330 0.703187 0.846961
C5    C     C_R   0.116370 0.954142 0.512306 -0.145066
C6    C     C_R   0.102235 0.066796 0.569298 -0.162277
C7    C     C_R   0.222912 0.122506 0.581152 -0.163792
C8    C     C_R   0.359882 0.065257 0.535733 0.095599
C9    C     C_R   0.368823 0.941400 0.498869 0.098019
C10   C     C_R   0.498084 0.873888 0.486536 -0.124027
C11   C     C_R   0.621669 0.935659 0.486397 -0.226239
C12   C     C_R   0.438730 0.422493 0.981997 0.095045
C13   C     C_R   0.618423 0.062472 0.500214 -0.224210
C14   C     C_R   0.489263 0.128097 0.522249 -0.130021
C15   C     C_R   0.798506 0.663829 0.642144 -0.151384
C16   C     C_R   0.495847 0.260846 0.510127 0.847888
C17   C     C_R   0.838325 0.741999 0.713237 -0.201106
C18   C     C_R   0.977671 0.739706 0.714263 -0.185301
C19   C     C_R   0.078264 0.659889 0.643614 -0.170972
C20   C     C_R   0.041753 0.579439 0.570520 0.141895
C21   C     C_R   0.897202 0.580282 0.570122 0.166217
C22   C     C_R   0.957682 0.422869 0.433493 -0.146999
C23   C     C_R   0.475820 0.414875 0.868166 0.079738
C24   C     C_R   0.100678 0.422956 0.433617 -0.105112
C25   C     C_R   0.578367 0.490309 0.296421 0.900992
C26   C     C_R   0.802428 0.426786 0.005514 -0.199480
C27   C     C_R   0.624047 0.455043 0.181883 -0.182205
C28   C     C_R   0.236798 0.492403 0.882417 -0.208536
C29   C     C_R   0.197580 0.490664 0.994366 -0.186744
C30   C     C_R   0.297910 0.460246 0.044088 -0.146573
C31   C     C_3   0.434032 0.229702 0.232691 0.104604
C32   C     C_3   0.429146 0.132893 0.146186 -0.373727
C33   C     C_3   0.445781 0.000564 0.182197 -0.949797
C34   C     C_R   0.548949 0.408177 0.028271 -0.030831
C35   C     C_R   0.693366 0.402633 0.961210 0.110028
C36   C     C_R   0.724599 0.372741 0.851875 -0.221662
C37   C     C_R   0.614441 0.369372 0.807601 -0.205200
C38   C     C_R   0.521696 0.406515 0.139502 0.419042
C39   C     C_R   0.766450 0.461981 0.114856 -0.278124
H1    H     H_    0.848874 0.490892 0.147568 0.172199
H2    H     H_    0.008511 0.800947 0.769421 0.154208
H3    H     H_    0.183542 0.664495 0.648073 0.211755
H4    H     H_    0.833547 0.353903 0.800547 0.144730
H5    H     H_    0.177634 0.359606 0.379857 0.183381
H6    H     H_    0.913250 0.425684 0.954676 0.150487
H7    H     H_    0.159513 0.525605 0.845908 0.154997
H8    H     H_    0.264777 0.474779 0.130685 0.190265
H9    H     H_    0.091432 0.521305 0.043007 0.140699
H10   H     H_    0.641608 0.337037 0.724454 0.181678
H11   H     H_    0.721923 0.886245 0.474749 0.170619
H12   H     H_    0.254303 0.807069 0.429449 0.173456
H13   H     H_    0.352785 0.205298 0.310417 0.174725
H14   H     H_    0.539128 0.224271 0.247090 0.121903
H15   H     H_    0.325537 0.141878 0.130561 0.234264
H16   H     H_    0.516677 0.149687 0.069545 0.220369
H17   H     H_    0.547946 0.989828 0.199656 0.267367
H18   H     H_    0.445818 0.932726 0.116897 0.265708
H19   H     H_    0.355583 0.979383 0.255926 0.268420
H20   H     H_    0.024522 0.913734 0.497387 0.143828
H21   H     H_    0.998728 0.112946 0.601343 0.135280
H22   H     H_    0.207696 0.209929 0.626490 0.159646
H23   H     H_    0.717842 0.109002 0.492148 0.168480
H24   H     H_    0.927744 0.359815 0.379188 0.148381
H25   H     H_    0.689709 0.672414 0.646466 0.210724
H26   H     H_    0.760389 0.804989 0.767751 0.152104
N1    N     N_R   0.856860 0.501200 0.500990 -0.120443
N2    N     N_R   0.142450 0.501280 0.501020 -0.125390
O1    O     O_R   0.385310 0.683220 0.500000 -0.646238
O2    O     O_R   0.614640 0.683250 0.500010 -0.634068
O3    O     O_R   0.328400 0.499950 0.653610 -0.638870
O4    O     O_R   0.557730 0.499970 0.653620 -0.634942
O5    O     O_R   0.385360 0.316750 0.499990 -0.631039
O6    O     O_R   0.614690 0.316780 0.500000 -0.626927
O7    O     O_R   0.442270 0.500030 0.346380 -0.568010
O8    O     O_R   0.671600 0.500050 0.346390 -0.616772
O9    O     O_3   0.399457 0.350751 0.205403 -0.673494
Zn1   Zn    Zn3+2 0.346880 0.499980 0.499990 0.926889
Zn2   Zn    Zn3+2 0.653120 0.500020 0.500010 0.917470

loop_
_geom_bond_atom_site_label_1
_geom_bond_atom_site_label_2
_ccdc_geom_bond_type
C33   H19   S    
C21   N1    A    
C20   N2    A    
C19   C20   A    
C16   O5    A    
C31   H13   S    
C4    O3    A    
C7    C8    A    
C38   O9    S    
C12   C23   A    
C28   H7    S    
C29   C30   A    
C36   C37   A    
C34   C35   A    
C5    C6    A    
C26   C39   A    
C27   C38   A    
C1    O1    A    
C25   O7    A    
C7    H22   S    
C24   N2    A    
C22   H24   S    
C22   N1    A    
C13   H23   S    
C35   C36   A    
C27   C39   A    
C8    C9    A    
O7    Zn1   S    
N2    Zn1   S    
C33   H18   S    
O6    Zn2   S    
C9    C10   A    
C32   H16   S    
C26   H6    S    
C19   H3    S    
C33   H17   S    
C13   C14   A    
O3    Zn1   S    
O2    Zn2   S    
C32   H15   S    
N1    Zn2   S    
C5    H20   S    
C29   H9    S    
C16   O6    A    
C6    H21   S    
C30   H8    S    
C18   H2    S    
C39   H1    S    
C3    H12   S    
C18   C19   A    
C23   C37   A    
C1    O2    A    
C25   O8    A    
C2    C4    S    
O5    Zn1   S    
C3    C9    A    
C37   H10   S    
C31   C32   S    
C15   H25   S    
C17   C18   A    
C31   H14   S    
C24   H5    S    
C14   C16   S    
C12   C34   A    
O1    Zn1   S    
C15   C17   A    
C28   C29   A    
C8    C14   A    
C12   C30   A    
C34   C38   A    
C1    C10   S    
C3    C5    A    
C6    C7    A    
C25   C27   S    
C17   H26   S    
C32   C33   S    
C11   H11   S    
C11   C13   A    
C31   O9    S    
C22   C24   A    
O4    Zn2   S    
O8    Zn2   S    
C10   C11   A    
C26   C35   A    
C15   C21   A    
C20   C21   A    
C2    C23   A    
C36   H4    S    
C2    C28   A    
C4    O4    A    
