data_mof_unit_51932.cif
_audit_creation_date              2012-12-10T18:50:01-0500
_audit_creation_method            fapswitch 2.2
_symmetry_space_group_name_H-M    P1
_symmetry_Int_Tables_number       1
_space_group_crystal_system       triclinic
_cell_length_a                    10.709658
_cell_length_b                    9.835267
_cell_length_c                    10.640297
_cell_angle_alpha                 89.988627
_cell_angle_beta                  90.112242
_cell_angle_gamma                 89.98896
_cell_volume                      1120.76525065

loop_
_atom_site_label
_atom_site_type_symbol
_atom_type_description
_atom_site_fract_x
_atom_site_fract_y
_atom_site_fract_z
_atom_type_partial_charge
C1    C     C_R   0.259853 0.500024 0.499259 0.893336
C2    C     C_R   0.573823 0.927989 0.581820 -0.074648
C3    C     C_R   0.426099 0.928063 0.418151 -0.072412
C4    C     C_R   0.426109 0.072012 0.418141 -0.073157
C5    C     C_R   0.500090 0.499740 0.257600 0.850125
C6    C     C_R   0.740091 0.500001 0.499457 0.893882
C7    C     C_R   0.500103 0.499708 0.742390 0.916305
C8    C     C_3   0.618028 0.573451 0.073021 -0.415969
C9    C     C_3   0.381385 0.571761 0.072583 -0.425871
C10   C     C_3   0.617947 0.575038 0.928484 -0.043782
C11   C     C_3   0.381309 0.573109 0.928046 -0.036385
C12   C     C_3   0.501251 0.349909 0.929044 -0.362851
C13   C     C_3   0.501108 0.350305 0.071648 -0.386223
C14   C     C_3   0.500159 0.498920 0.121337 0.102273
C15   C     C_3   0.500157 0.498587 0.878763 0.051084
C16   C     C_R   0.063895 0.379594 0.471437 -0.169719
C17   C     C_R   0.063942 0.620652 0.525750 -0.156377
C18   C     C_R   0.935987 0.379561 0.471591 -0.171984
C19   C     C_R   0.936076 0.620619 0.525904 -0.153848
C20   C     C_R   0.872530 0.500068 0.498853 -0.006087
C21   C     C_R   0.127416 0.500124 0.498603 -0.007125
C22   C     C_R   0.573802 0.071944 0.581837 -0.072215
H1    H     H_    0.614517 0.682846 0.896583 0.140081
H2    H     H_    0.417361 0.294252 0.105800 0.184371
H3    H     H_    0.585060 0.294143 0.895066 0.199409
H4    H     H_    0.418345 0.292661 0.894669 0.206107
H5    H     H_    0.112665 0.286028 0.449483 0.152987
H6    H     H_    0.112716 0.714166 0.547984 0.162341
H7    H     H_    0.887170 0.285966 0.449754 0.156393
H8    H     H_    0.887362 0.714107 0.548262 0.158275
H9    H     H_    0.632797 0.126531 0.647260 0.137214
H10   H     H_    0.632861 0.873347 0.647208 0.132039
H11   H     H_    0.383127 0.680896 0.896001 0.145198
H12   H     H_    0.703077 0.521942 0.109786 0.196256
H13   H     H_    0.296998 0.519135 0.109161 0.194733
H14   H     H_    0.367052 0.873489 0.352776 0.124781
H15   H     H_    0.367075 0.126646 0.352753 0.121507
H16   H     H_    0.620053 0.680023 0.108314 0.172011
H17   H     H_    0.378109 0.678345 0.107784 0.166409
H18   H     H_    0.585457 0.295433 0.106303 0.190812
I1    I     I_    0.792573 0.496498 0.856808 -0.392530
I2    I     I_    0.207766 0.491400 0.856067 -0.374453
N1    N     N_R   0.499970 0.857200 0.499970 -0.080460
N2    N     N_R   0.499970 0.142800 0.499970 -0.080907
O1    O     O_R   0.316750 0.614620 0.499990 -0.626085
O2    O     O_R   0.316750 0.385380 0.499990 -0.619148
O3    O     O_R   0.499970 0.614670 0.314790 -0.629271
O4    O     O_R   0.499970 0.385330 0.314790 -0.634922
O5    O     O_R   0.683220 0.614710 0.500010 -0.625876
O6    O     O_R   0.683220 0.385290 0.500010 -0.622058
O7    O     O_R   0.500010 0.614660 0.685200 -0.629804
O8    O     O_R   0.500010 0.385340 0.685200 -0.611829
Zn1   Zn    Zn3+2 0.499980 0.653120 0.500000 0.951348
Zn2   Zn    Zn3+2 0.499980 0.346880 0.500000 0.956721

loop_
_geom_bond_atom_site_label_1
_geom_bond_atom_site_label_2
_ccdc_geom_bond_type
C2    C22   A    
C9    C14   S    
C1    C21   S    
C16   C21   A    
C10   H1    S    
C9    C11   S    
C2    N1    A    
C19   C20   A    
C12   C15   S    
C11   H11   S    
C12   H3    S    
O3    Zn1   S    
C1    O1    A    
O2    Zn2   S    
C16   H5    S    
C7    C15   S    
O1    Zn1   S    
C19   H8    S    
C18   H7    S    
C8    H12   S    
C13   C14   S    
C12   C13   S    
C10   I1    S    
O4    Zn2   S    
C5    O3    A    
C3    N1    A    
C5    C14   S    
O6    Zn2   S    
C8    H16   S    
C3    H14   S    
O5    Zn1   S    
C8    C10   S    
C17   C19   A    
O8    Zn2   S    
C7    O8    A    
C18   C20   A    
C10   C15   S    
C6    O5    A    
C5    O4    A    
C22   N2    A    
C1    O2    A    
C22   H9    S    
C7    O7    A    
C3    C4    A    
C6    O6    A    
N2    Zn2   S    
C9    H17   S    
C6    C20   S    
C4    H15   S    
C11   I2    S    
C2    H10   S    
C9    H13   S    
C13   H18   S    
C8    C14   S    
C4    N2    A    
C17   H6    S    
C11   C15   S    
N1    Zn1   S    
C16   C18   A    
C17   C21   A    
C13   H2    S    
C12   H4    S    
O7    Zn1   S    
