data_mof_unit_24539.cif
_audit_creation_date              2012-12-10T17:33:48-0500
_audit_creation_method            fapswitch 2.2
_symmetry_space_group_name_H-M    P1
_symmetry_Int_Tables_number       1
_space_group_crystal_system       triclinic
_cell_length_a                    11.67696
_cell_length_b                    12.428428
_cell_length_c                    13.387424
_cell_angle_alpha                 117.507101
_cell_angle_beta                  73.826239
_cell_angle_gamma                 101.201078
_cell_volume                      1650.11442208

loop_
_atom_site_label
_atom_site_type_symbol
_atom_type_description
_atom_site_fract_x
_atom_site_fract_y
_atom_site_fract_z
_atom_type_partial_charge
C1    C     C_R   0.506296 0.855110 0.287086 0.884106
C2    C     C_R   0.486993 0.227775 0.836289 -0.254543
C3    C     C_R   0.557215 0.818100 0.081105 -0.086705
C4    C     C_R   0.568204 0.741261 0.964168 -0.104623
C5    C     C_R   0.536906 0.617062 0.927850 -0.037404
C6    C     C_R   0.492231 0.567704 0.008678 0.082953
C7    C     C_R   0.454217 0.650360 0.125720 -0.045556
C8    C     C_R   0.477074 0.440014 0.977506 -0.097457
C9    C     C_R   0.412340 0.399000 0.062292 -0.249887
C10   C     C_R   0.343354 0.481443 0.164854 0.442779
C11   C     C_R   0.363390 0.606864 0.196065 0.327771
C12   C     C_R   0.715296 0.002232 0.502293 0.863495
C13   C     C_R   0.526620 0.351104 0.867085 0.333596
C14   C     C_R   0.443590 0.188550 0.924539 0.292940
C15   C     C_R   0.502101 0.774081 0.164108 -0.063637
C16   C     C_R   0.733668 0.379958 0.401236 0.292540
C17   C     C_R   0.311583 0.727125 0.593009 0.394734
C18   C     C_R   0.264670 0.604746 0.543760 0.293769
C19   C     C_R   0.343908 0.515081 0.489584 -0.074946
C20   C     C_R   0.462206 0.543180 0.500850 -0.018530
C21   C     C_R   0.510995 0.660452 0.511180 0.107296
C22   C     C_R   0.535789 0.453259 0.482459 -0.124197
C23   C     C_R   0.491533 0.144719 0.713070 0.912220
C24   C     C_R   0.660345 0.478072 0.457112 -0.111595
C25   C     C_R   0.706523 0.597313 0.473869 -0.175455
C26   C     C_R   0.636609 0.670455 0.464151 0.385830
C27   C     C_R   0.492012 0.342307 0.493522 0.492387
C28   C     C_R   0.681247 0.262262 0.382313 0.443564
C29   C     C_R   0.284057 0.000348 0.501455 0.856732
C30   C     C_1   0.837266 0.003533 0.502825 -0.049993
C31   C     C_1   0.939678 0.002874 0.503092 0.088060
C32   C     C_1   0.059273 0.001255 0.503085 0.116886
C33   C     C_1   0.161820 0.000210 0.502636 0.002566
C34   C     C_R   0.416214 0.275885 0.039515 0.390764
Cu1   Cu    Cu3+1 0.526510 0.098270 0.475420 1.128076
Cu2   Cu    Cu3+1 0.473490 0.901730 0.524580 1.110376
H1    H     H_    0.802509 0.617544 0.456909 0.238720
H2    H     H_    0.311717 0.422259 0.444578 0.270354
H3    H     H_    0.591352 0.912337 0.106367 0.215433
H4    H     H_    0.543809 0.561975 0.836560 0.197597
H5    H     H_    0.604915 0.777405 0.901100 0.181372
N1    N     N_R   0.566700 0.246290 0.438210 -0.290783
N2    N     N_R   0.434010 0.754320 0.561170 -0.278708
O1    O     O_R   0.533340 0.972510 0.318140 -0.561141
O2    O     O_R   0.488570 0.806530 0.359650 -0.505310
O3    O     O_R   0.685190 0.083000 0.479260 -0.533122
O4    O     O_R   0.640410 0.917020 0.520770 -0.585599
O5    O     O_R   0.511430 0.193470 0.640350 -0.507369
O6    O     O_R   0.466660 0.027490 0.681860 -0.518648
O7    O     O_R   0.359590 0.082980 0.479230 -0.518792
O8    O     O_R   0.314810 0.917000 0.520740 -0.533983
Cl1   Cl    Cl    0.432090 0.032577 0.894755 -0.463853
Cl2   Cl    Cl    0.887430 0.399486 0.342329 -0.330687
S1    S     S_3+6 0.346623 0.341072 0.590976 0.045529
O9    O     O_2   0.317189 0.469754 0.672775 -0.304997
O10   O     O_2   0.253107 0.280735 0.519924 -0.263219
O11   O     O_3   0.327219 0.273565 0.678030 -0.516365
H6    H     H_    0.241450 0.277990 0.716952 0.375910
S2    S     S_3+6 0.210522 0.836486 0.704064 0.133305
O12   O     O_2   0.260069 0.965947 0.747896 -0.236105
O13   O     O_2   0.101611 0.829857 0.662118 -0.207244
O14   O     O_3   0.166943 0.800813 0.816575 -0.409904
H7    H     H_    0.242156 0.799819 0.836560 0.367996
S3    S     S_3+6 0.109670 0.557307 0.550039 0.159782
O15   O     O_2   0.060568 0.611995 0.492714 -0.177133
O16   O     O_2   0.091533 0.421037 0.488697 -0.169400
O17   O     O_3   0.033785 0.601926 0.687662 -0.421434
H8    H     H_    0.948571 0.579780 0.683115 0.387897
S4    S     S_3+6 0.686505 0.654294 0.318556 0.041338
O18   O     O_2   0.721951 0.772554 0.309733 -0.277955
O19   O     O_2   0.793571 0.579795 0.256992 -0.228593
O20   O     O_3   0.576945 0.579328 0.248021 -0.555012
H9    H     H_    0.618212 0.534023 0.166715 0.374883
Cl3   Cl    Cl    0.216918 0.427801 0.242722 -0.334688
S5    S     S_3+6 0.417525 0.236746 0.151566 0.094034
O21   O     O_2   0.294376 0.191657 0.196283 -0.133025
O22   O     O_2   0.501325 0.139548 0.110190 -0.253133
O23   O     O_3   0.465599 0.360102 0.258074 -0.552029
H10   H     H_    0.553874 0.359500 0.236833 0.372247
Cl4   Cl    Cl    0.660531 0.383098 0.779041 -0.584929
Cl5   Cl    Cl    0.256351 0.704106 0.306525 -0.524518
Cl6   Cl    Cl    0.764297 0.135361 0.286533 -0.427628

loop_
_geom_bond_atom_site_label_1
_geom_bond_atom_site_label_2
_ccdc_geom_bond_type
C16   C28   A    
C21   C26   A    
C8    C13   A    
Cu1   Cu2   S    
C1    O2    A    
C27   S1    S    
C11   Cl5   S    
C7    C11   A    
C2    C13   A    
C5    C6    A    
C23   O6    A    
C4    H5    S    
C29   C33   S    
Cu2   O4    S    
C18   C19   A    
S4    O19   D    
Cu1   N1    S    
C16   Cl2   S    
C25   H1    S    
C21   N2    A    
C14   Cl1   S    
C19   C20   A    
C8    C9    A    
C1    C15   S    
C9    C10   A    
C34   S5    S    
C7    C15   A    
C13   Cl4   S    
C3    H3    S    
S2    O12   D    
C16   C24   A    
C12   O4    A    
Cu1   O5    S    
C29   O7    A    
S1    O10   D    
S2    O13   D    
C28   Cl6   S    
O17   H8    S    
S3    O17   S    
C24   C25   A    
C12   O3    A    
O23   H10   S    
O20   H9    S    
C6    C8    A    
C25   C26   A    
S3    O16   D    
S4    O20   S    
S5    O21   D    
C17   N2    A    
O14   H7    S    
C19   H2    S    
C1    O1    A    
C31   C32   S    
Cu1   O7    S    
C17   C18   A    
Cu2   O2    S    
Cu1   O1    S    
S5    O22   D    
Cu2   O8    S    
C17   S2    S    
C20   C22   A    
C22   C27   A    
C9    C34   A    
C22   C24   A    
C3    C4    A    
C3    C15   A    
C29   O8    A    
S1    O9    D    
S2    O14   S    
C23   O5    A    
C12   C30   S    
C4    C5    A    
C14   C34   A    
C6    C7    A    
S3    O15   D    
C32   C33   T    
C10   Cl3   S    
C27   N1    A    
C18   S3    S    
O11   H6    S    
C30   C31   T    
C28   N1    A    
S4    O18   D    
C2    C14   A    
S5    O23   S    
C10   C11   A    
C20   C21   A    
C5    H4    S    
C2    C23   S    
C26   S4    S    
Cu2   N2    S    
Cu1   O3    S    
Cu2   O6    S    
S1    O11   S    
