data_mof_unit_51804.cif
_audit_creation_date              2012-12-10T20:32:47-0500
_audit_creation_method            fapswitch 2.2
_symmetry_space_group_name_H-M    P1
_symmetry_Int_Tables_number       1
_space_group_crystal_system       triclinic
_cell_length_a                    11.53823
_cell_length_b                    10.669262
_cell_length_c                    9.907158
_cell_angle_alpha                 89.559264
_cell_angle_beta                  89.972546
_cell_angle_gamma                 89.224009
_cell_volume                      1219.46671017

loop_
_atom_site_label
_atom_site_type_symbol
_atom_type_description
_atom_site_fract_x
_atom_site_fract_y
_atom_site_fract_z
_atom_type_partial_charge
C1    C     C_R   0.493738 0.260612 0.500577 0.867189
C2    C     C_R   0.601020 0.495395 0.071702 -0.102690
C3    C     C_R   0.601017 0.495290 0.928210 -0.146508
C4    C     C_R   0.282015 0.500383 0.500023 0.869204
C5    C     C_R   0.398642 0.491909 0.929026 0.169915
C6    C     C_3   0.293729 0.576468 0.920963 -0.094780
C7    C     C_3   0.293132 0.575620 0.076308 -0.103636
C8    C     C_R   0.498801 0.739787 0.499835 0.882280
C9    C     C_R   0.717985 0.500219 0.499984 0.918670
C10   C     C_1   0.161553 0.501068 0.500065 -0.198579
C11   C     C_1   0.059351 0.501468 0.500062 0.003344
C12   C     C_R   0.476498 0.129236 0.504359 -0.176911
C13   C     C_1   0.940662 0.501441 0.500024 0.006599
C14   C     C_1   0.838460 0.500981 0.499977 -0.191422
C15   C     C_R   0.520890 0.063403 0.614944 0.077634
C16   C     C_2   0.344285 0.131152 0.298038 0.421148
C17   C     C_3   0.312112 0.702159 0.144999 -0.734678
C18   C     C_3   0.630571 0.873118 0.829429 -0.959712
C19   C     C_2   0.739279 0.877281 0.606016 0.412705
C20   C     C_3   0.314049 0.703884 0.851569 -0.741095
C21   C     C_R   0.415907 0.065339 0.402046 -0.023796
C22   C     C_R   0.424273 0.934854 0.400931 -0.186645
C23   C     C_R   0.486816 0.871699 0.502130 -0.127754
C24   C     C_R   0.525604 0.935899 0.614448 0.114999
C25   C     C_3   0.639912 0.931590 0.687759 0.144765
C26   C     C_3   0.633985 0.074977 0.687622 -0.442355
C27   C     C_R   0.398570 0.491411 0.070794 0.156135
H1    H     H_    0.217860 0.527126 0.878452 0.155817
H2    H     H_    0.398068 0.741558 0.119331 0.248628
H3    H     H_    0.242774 0.769818 0.115063 0.240130
H4    H     H_    0.554535 0.911899 0.884888 0.263416
H5    H     H_    0.621292 0.769946 0.822399 0.257250
H6    H     H_    0.710058 0.893069 0.888226 0.250290
H7    H     H_    0.793792 0.803308 0.648648 0.070504
H8    H     H_    0.309181 0.694526 0.740807 0.256119
H9    H     H_    0.244479 0.771390 0.880099 0.227378
H10   H     H_    0.399550 0.742856 0.878670 0.247010
H11   H     H_    0.216998 0.525631 0.118222 0.157427
H12   H     H_    0.383501 0.883123 0.321242 0.188229
H13   H     H_    0.622049 0.117213 0.789071 0.204483
H14   H     H_    0.700904 0.121692 0.624707 0.201394
H15   H     H_    0.682747 0.495168 0.124929 0.158982
H16   H     H_    0.682740 0.495029 0.874883 0.156155
H17   H     H_    0.317445 0.228034 0.311368 0.080078
H18   H     H_    0.305462 0.690904 0.255534 0.247442
N1    N     N_R   0.499240 0.499140 0.142800 -0.099922
N2    N     N_R   0.499240 0.499180 0.857150 -0.100349
O1    O     O_R   0.500010 0.316790 0.614690 -0.601708
O2    O     O_2   0.758951 0.914709 0.491529 -0.575978
O3    O     O_R   0.500000 0.316760 0.385350 -0.622703
O4    O     O_R   0.334450 0.500030 0.614670 -0.617464
O5    O     O_R   0.334440 0.500000 0.385330 -0.630624
O6    O     O_R   0.500000 0.683240 0.614650 -0.632486
O7    O     O_R   0.499990 0.683210 0.385310 -0.610720
O8    O     O_R   0.665560 0.500000 0.614670 -0.628358
O9    O     O_R   0.665550 0.499970 0.385330 -0.606667
O10   O     O_2   0.312248 0.076889 0.196847 -0.586115
Zn1   Zn    Zn3+2 0.500010 0.500020 0.653130 0.935714
Zn2   Zn    Zn3+2 0.499990 0.499980 0.346870 0.952624

loop_
_geom_bond_atom_site_label_1
_geom_bond_atom_site_label_2
_ccdc_geom_bond_type
C8    O6    A    
C9    C14   S    
O9    Zn2   S    
C1    O1    A    
O1    Zn1   S    
C6    C7    S    
C17   H3    S    
O6    Zn1   S    
N1    Zn2   S    
C11   C13   S    
C1    O3    A    
C16   H17   S    
C12   C15   A    
C23   C24   A    
C16   O10   D    
C26   H13   S    
C2    C3    A    
O4    Zn1   S    
C5    C27   A    
C13   C14   T    
C2    N1    A    
N2    Zn1   S    
C20   H10   S    
C5    N2    A    
C3    H16   S    
C16   C21   S    
C18   C25   S    
C6    C20   S    
C4    O5    A    
C9    O8    A    
O3    Zn2   S    
C27   N1    A    
C3    N2    A    
C15   C24   A    
O5    Zn2   S    
C7    H11   S    
C2    H15   S    
O7    Zn2   S    
C5    C6    S    
C19   C25   S    
C18   H6    S    
C6    H1    S    
C18   H5    S    
C10   C11   T    
C22   H12   S    
C4    O4    A    
C4    C10   S    
C20   H9    S    
C17   H2    S    
C8    C23   S    
C7    C27   S    
C24   C25   S    
O8    Zn1   S    
C8    O7    A    
C9    O9    A    
C19   O2    D    
C22   C23   A    
C15   C26   S    
C18   H4    S    
C25   C26   S    
C21   C22   A    
C20   H8    S    
C12   C21   A    
C1    C12   S    
C26   H14   S    
C17   H18   S    
C7    C17   S    
C19   H7    S    
