data_mof_unit_58651.cif
_audit_creation_date              2012-12-10T17:52:38-0500
_audit_creation_method            fapswitch 2.2
_symmetry_space_group_name_H-M    P1
_symmetry_Int_Tables_number       1
_space_group_crystal_system       triclinic
_cell_length_a                    14.678352
_cell_length_b                    14.548334
_cell_length_c                    23.512949
_cell_angle_alpha                 77.0948
_cell_angle_beta                  102.325685
_cell_angle_gamma                 114.575765
_cell_volume                      4409.52511835

loop_
_atom_site_label
_atom_site_type_symbol
_atom_type_description
_atom_site_fract_x
_atom_site_fract_y
_atom_site_fract_z
_atom_type_partial_charge
C1    C     C_R   0.880535 0.311799 0.509643 0.796008
C2    C     C_R   0.119477 0.688206 0.489897 0.787550
C3    C     C_R   0.076399 0.481094 0.773426 -0.122452
C4    C     C_R   0.915387 0.457114 0.233502 -0.089823
C5    C     C_R   0.073451 0.479685 0.714127 -0.296085
C6    C     C_R   0.913693 0.457711 0.292499 -0.295606
C7    C     C_R   0.000177 0.503823 0.671535 -0.132294
C8    C     C_R   0.004075 0.502329 0.329157 -0.132180
C9    C     C_R   0.930277 0.531837 0.689548 0.410163
C10   C     C_R   0.096424 0.549513 0.305747 0.413775
C11   C     C_R   0.932108 0.529531 0.749832 -0.201386
C12   C     C_R   0.097587 0.546731 0.246867 -0.214904
C13   C     C_R   0.005500 0.505339 0.791589 0.292597
C14   C     C_R   0.007408 0.501285 0.210665 0.280244
C15   C     C_R   0.813090 0.203592 0.519671 -0.083277
C16   C     C_R   0.186109 0.796908 0.485426 -0.081660
C17   C     C_R   0.777143 0.032049 0.571136 -0.174105
C18   C     C_R   0.212868 0.975842 0.465615 -0.175969
C19   C     C_R   0.846615 0.130649 0.556023 -0.181169
C20   C     C_R   0.147165 0.873455 0.470040 -0.195715
C21   C     C_R   0.710986 0.175700 0.496743 -0.186119
C22   C     C_R   0.290640 0.824033 0.497969 -0.198773
C23   C     C_R   0.999781 0.501105 0.608983 0.827605
C24   C     C_R   0.001206 0.500702 0.391236 0.827731
C25   C     C_R   0.637339 0.081285 0.517049 0.088853
C26   C     C_R   0.357591 0.926108 0.499366 0.084598
C27   C     C_R   0.673148 0.007519 0.553028 0.079613
C28   C     C_R   0.317768 0.002330 0.478783 0.103921
C29   C     C_R   0.530520 0.057639 0.503173 -0.078958
C30   C     C_R   0.462901 0.954212 0.519192 -0.123648
C31   C     C_R   0.502151 0.883702 0.557232 0.414938
C32   C     C_R   0.487822 0.132847 0.476885 0.444400
C33   C     C_R   0.605575 0.910641 0.572273 -0.314272
C34   C     C_R   0.382626 0.104046 0.470246 -0.369235
C35   C     C_R   0.723140 0.680001 0.409263 -0.279057
C36   C     C_R   0.283320 0.330035 0.598311 -0.283283
C37   C     C_R   0.800562 0.644331 0.420770 0.031095
C38   C     C_R   0.201773 0.359957 0.582184 0.047166
C39   C     C_R   0.714643 0.508829 0.491736 0.072957
C40   C     C_R   0.286841 0.492285 0.509680 0.074426
C41   C     C_R   0.632172 0.540231 0.481580 -0.063435
C42   C     C_R   0.373721 0.467123 0.524797 -0.054635
C43   C     C_R   0.638758 0.628960 0.439696 0.055030
C44   C     C_R   0.369585 0.382565 0.569541 0.055783
C45   C     C_R   0.029103 0.592863 0.112302 0.584416
C46   C     C_R   0.992673 0.416648 0.891356 0.579333
C47   C     C_R   0.544893 0.487892 0.511730 -0.006497
C48   C     C_R   0.463266 0.522090 0.496981 0.004780
C49   C     C_R   0.474952 0.612132 0.456302 -0.274564
C50   C     C_R   0.537028 0.403322 0.556512 -0.252226
C51   C     C_R   0.562395 0.667130 0.429666 0.435007
C52   C     C_R   0.450907 0.350789 0.584778 0.427600
C53   C     C_R   0.995588 0.414490 0.131408 0.568028
C54   C     C_R   0.029392 0.595671 0.871764 0.574522
C55   C     C_R   0.006963 0.415713 0.073169 -0.167341
C56   C     C_R   0.031592 0.598008 0.931660 -0.134083
C57   C     C_R   0.020963 0.506960 0.032730 -0.136761
C58   C     C_R   0.020073 0.507387 0.972392 -0.136496
C59   C     C_R   0.033897 0.597238 0.052467 -0.137188
C60   C     C_R   0.004210 0.416284 0.952492 -0.165993
C61   C     C_R   0.003915 0.328525 0.054150 0.386993
C62   C     C_R   0.044461 0.687937 0.951711 0.337312
C63   C     C_R   0.000343 0.327916 0.994053 0.373248
C64   C     C_R   0.050533 0.688773 0.012036 0.332063
Cu1   Cu    Cu3+1 0.081740 0.475680 0.515360 0.949789
Cu2   Cu    Cu3+1 0.918260 0.524320 0.484640 0.943785
H1    H     H_    0.804322 0.976024 0.599122 0.129450
H2    H     H_    0.181779 0.034319 0.451293 0.135783
H3    H     H_    0.281292 0.551975 0.474460 0.145082
H4    H     H_    0.717453 0.444178 0.523690 0.158967
H5    H     H_    0.135277 0.319059 0.604219 0.127584
H6    H     H_    0.866531 0.685124 0.398276 0.135824
H7    H     H_    0.730180 0.747940 0.377136 0.187953
H8    H     H_    0.278169 0.265545 0.632877 0.182670
H9    H     H_    0.418430 0.644223 0.445216 0.149181
H10   H     H_    0.597543 0.376634 0.571868 0.166585
H11   H     H_    0.133761 0.462862 0.805486 0.142375
H12   H     H_    0.845358 0.422512 0.205493 0.153021
H13   H     H_    0.876262 0.546290 0.764406 0.143466
H14   H     H_    0.168570 0.581796 0.228912 0.147921
H15   H     H_    0.319008 0.764613 0.504262 0.202552
H16   H     H_    0.692824 0.229288 0.462127 0.213104
H17   H     H_    0.066441 0.854419 0.460109 0.152133
H18   H     H_    0.925723 0.150243 0.573636 0.146166
N1    N     N_R   0.009776 0.502599 0.149856 -0.463338
N2    N     N_R   0.008587 0.505800 0.852991 -0.463079
N3    N     N_R   0.795430 0.560810 0.461550 -0.195176
N4    N     N_R   0.204570 0.439190 0.538450 -0.180850
O1    O     O_R   0.977900 0.338110 0.520250 -0.588402
O2    O     O_R   0.022100 0.661890 0.479750 -0.592826
O3    O     O_R   0.839850 0.379180 0.494310 -0.586077
O4    O     O_R   0.160150 0.620820 0.505690 -0.587506
O5    O     O_R   0.069020 0.479430 0.595090 -0.598050
O6    O     O_R   0.930980 0.520570 0.404910 -0.593878
O7    O     O_R   0.930970 0.520500 0.569150 -0.527678
O8    O     O_R   0.069030 0.479500 0.430850 -0.542272
O9    O     O_2   0.041459 0.677258 0.132983 -0.508019
O10   O     O_2   0.964204 0.328705 0.869909 -0.502421
O11   O     O_2   0.968723 0.326026 0.169245 -0.507353
O12   O     O_2   0.048569 0.682300 0.832365 -0.515231
O13   O     O_3   0.001393 0.241129 0.093338 -0.505943
C65   C     C_3   0.100401 0.255358 0.122406 0.111293
H19   H     H_    0.117937 0.295201 0.160886 0.177416
H20   H     H_    0.160264 0.301257 0.093540 0.069245
C66   C     C_3   0.106866 0.151408 0.144639 -0.751821
H21   H     H_    0.090429 0.109528 0.107143 0.246901
H22   H     H_    0.184022 0.161451 0.167675 0.186342
H23   H     H_    0.051296 0.105648 0.175872 0.262579
O14   O     O_3   0.055139 0.777564 0.912938 -0.535699
C67   C     C_3   0.960138 0.785907 0.897549 0.140613
H24   H     H_    0.930643 0.787638 0.937024 0.161887
H25   H     H_    0.904104 0.721027 0.874932 0.134794
C68   C     C_3   0.971604 0.885051 0.855679 -0.756680
H26   H     H_    0.999421 0.885290 0.815243 0.260316
H27   H     H_    0.897373 0.892535 0.843166 0.193047
H28   H     H_    0.026197 0.951289 0.877395 0.246839
O15   O     O_3   0.441068 0.787968 0.582353 -0.597583
C69   C     C_3   0.411306 0.797078 0.633405 0.066883
H29   H     H_    0.373046 0.851905 0.623466 0.144232
H30   H     H_    0.477986 0.822484 0.667709 0.150143
C70   C     C_3   0.336602 0.693218 0.657732 -0.763294
H31   H     H_    0.372255 0.636297 0.668705 0.251121
H32   H     H_    0.312894 0.698907 0.698186 0.201191
H33   H     H_    0.268598 0.666919 0.624561 0.257218
O16   O     O_3   0.548060 0.236409 0.466179 -0.614313
C71   C     C_3   0.517655 0.283835 0.409839 0.042280
H34   H     H_    0.484804 0.336640 0.416182 0.173031
H35   H     H_    0.460758 0.229485 0.380525 0.142215
C72   C     C_3   0.608648 0.345330 0.376968 -0.812786
H36   H     H_    0.634997 0.292907 0.363646 0.224930
H37   H     H_    0.587216 0.392810 0.336731 0.213424
H38   H     H_    0.671433 0.396105 0.405066 0.274309
O17   O     O_3   0.570993 0.756849 0.391306 -0.588128
C73   C     C_3   0.592180 0.835085 0.424501 0.050667
H39   H     H_    0.661981 0.844669 0.456865 0.149347
H40   H     H_    0.527855 0.818565 0.448317 0.155460
C74   C     C_3   0.608911 0.935656 0.383234 -0.768251
H41   H     H_    0.539880 0.929238 0.351056 0.246907
H42   H     H_    0.625860 0.997599 0.408965 0.205763
H43   H     H_    0.673518 0.955488 0.359108 0.251413
O18   O     O_3   0.448855 0.271232 0.630311 -0.579673
C75   C     C_3   0.430967 0.183764 0.606146 0.061853
H44   H     H_    0.496413 0.195381 0.584770 0.176726
H45   H     H_    0.360841 0.164862 0.573589 0.144063
C76   C     C_3   0.417201 0.092938 0.655073 -0.766686
H46   H     H_    0.351543 0.078136 0.677082 0.247681
H47   H     H_    0.403402 0.024099 0.636237 0.187868
H48   H     H_    0.486325 0.108462 0.688049 0.257694
O19   O     O_3   0.984774 0.237127 0.976401 -0.502916
C77   C     C_3   0.078281 0.238182 0.968826 0.129258
H49   H     H_    0.125293 0.231306 0.011886 0.120861
H50   H     H_    0.121920 0.309057 0.940550 0.124876
C78   C     C_3   0.058600 0.146840 0.939825 -0.734124
H51   H     H_    0.012965 0.151513 0.895853 0.273023
H52   H     H_    0.131523 0.146000 0.934323 0.180039
H53   H     H_    0.017053 0.074673 0.967680 0.248175
O20   O     O_3   0.064254 0.778458 0.030091 -0.534373
C79   C     C_3   0.168755 0.839367 0.038018 0.145624
H54   H     H_    0.201330 0.860140 0.996077 0.158749
H55   H     H_    0.210225 0.798828 0.072201 0.135418
C80   C     C_3   0.184349 0.937705 0.058348 -0.762144
H56   H     H_    0.153864 0.919834 0.100628 0.265496
H57   H     H_    0.266299 0.986359 0.064875 0.190108
H58   H     H_    0.144889 0.980526 0.024704 0.241072
H59   H     H_    0.128990 0.459585 0.701724 0.182750
H60   H     H_    0.842041 0.422339 0.309753 0.168898
O21   O     O_3   0.856707 0.555160 0.648670 -0.566351
C81   C     C_3   0.873355 0.658833 0.646305 0.085738
H61   H     H_    0.953909 0.710069 0.642379 0.136621
H62   H     H_    0.851789 0.669707 0.686145 0.145240
C82   C     C_3   0.808123 0.690690 0.592665 -0.774962
H63   H     H_    0.727288 0.639677 0.594154 0.254894
H64   H     H_    0.817129 0.770602 0.591929 0.184849
H65   H     H_    0.831714 0.686413 0.551838 0.256084
O22   O     O_3   0.185787 0.599086 0.339972 -0.578181
C83   C     C_3   0.202962 0.704025 0.331037 0.060648
H66   H     H_    0.145487 0.715435 0.349779 0.132790
H67   H     H_    0.200848 0.736991 0.283378 0.155325
C84   C     C_3   0.306962 0.762515 0.362005 -0.779996
H68   H     H_    0.366143 0.754462 0.343280 0.274259
H69   H     H_    0.320482 0.844812 0.356401 0.204093
H70   H     H_    0.311555 0.731907 0.409558 0.230593
H71   H     H_    0.632990 0.855034 0.600671 0.164335
H72   H     H_    0.351123 0.162271 0.456129 0.142595

loop_
_geom_bond_atom_site_label_1
_geom_bond_atom_site_label_2
_ccdc_geom_bond_type
Cu1   O4    S    
C82   H63   S    
C6    H60   S    
C71   H34   S    
C1    O1    A    
C83   H67   S    
C11   C13   A    
C45   N1    A    
C39   N3    A    
C82   H65   S    
C43   C51   A    
C80   H58   S    
C73   C74   S    
C76   H46   S    
C39   C41   A    
C27   C33   A    
Cu1   O1    S    
C74   H42   S    
C59   C64   A    
O13   C65   S    
C60   C63   A    
C35   C37   A    
C15   C19   A    
C29   C32   A    
C24   O6    A    
C24   O8    A    
C30   C31   A    
C65   H20   S    
C57   C59   A    
C18   H2    S    
C12   H14   S    
C65   C66   S    
C61   C63   A    
C2    O2    A    
C69   H29   S    
C63   O19   S    
C70   H33   S    
C62   C64   A    
C79   C80   S    
C76   H47   S    
C67   H24   S    
O18   C75   S    
C83   C84   S    
C35   H7    S    
C47   C48   A    
C23   O7    A    
C49   C51   A    
C77   C78   S    
C13   N2    S    
C33   H71   S    
C50   C52   A    
C49   H9    S    
C34   H72   S    
C1    C15   S    
C5    H59   S    
C78   H52   S    
C2    C16   S    
C18   C20   A    
C3    C13   A    
Cu2   O6    S    
C72   H38   S    
C44   C52   A    
C40   C42   A    
C46   O10   S    
C28   C34   A    
C1    O3    A    
C84   H69   S    
C79   H55   S    
C41   C43   A    
C75   C76   S    
C54   O12   S    
C37   H6    S    
C11   H13   S    
C42   C44   A    
C80   H57   S    
C80   H56   S    
C47   C50   A    
C67   H25   S    
C53   C55   A    
C25   C29   A    
C74   H43   S    
C54   C56   A    
C17   H1    S    
C40   H3    S    
C17   C27   A    
C22   H15   S    
C81   H61   S    
C9    O21   S    
C18   C28   A    
C4    C6    A    
O21   C81   S    
C5    C7    A    
C17   C19   A    
C73   H40   S    
C71   C72   S    
C53   O11   S    
C23   O5    A    
O20   C79   S    
C38   N4    A    
C69   C70   S    
C32   C34   A    
C32   O16   S    
C64   O20   S    
C61   O13   S    
C4    H12   S    
C29   C30   A    
C50   H10   S    
C66   H22   S    
O22   C83   S    
C16   C20   A    
C31   C33   A    
C41   C47   A    
C42   C48   A    
C66   H23   S    
C72   H37   S    
C78   H53   S    
C2    O4    A    
C9    C11   A    
C67   C68   S    
C70   H31   S    
C73   H39   S    
C10   C12   A    
C31   O15   S    
C48   C49   A    
Cu2   O2    S    
C12   C14   A    
C26   C30   A    
C55   C57   A    
C79   H54   S    
O17   C73   S    
C77   H50   S    
C36   C44   A    
C25   C27   A    
C19   H18   S    
C3    H11   S    
Cu2   N3    S    
C76   H48   S    
C35   C43   A    
C71   H35   S    
Cu1   O8    S    
Cu1   N4    S    
C54   N2    A    
C68   H26   S    
C74   H41   S    
C10   O22   S    
C7    C9    A    
C21   C25   A    
C38   H5    S    
C45   C59   A    
C16   C22   A    
C46   C60   A    
C77   H49   S    
C37   N3    A    
C14   N1    S    
C3    C5    A    
C6    C8    A    
C68   H28   S    
Cu2   O3    S    
C82   H64   S    
C66   H21   S    
C26   C28   A    
C52   O18   S    
C84   H70   S    
C36   C38   A    
C72   H36   S    
C45   O9    S    
O15   C69   S    
C51   O17   S    
C40   N4    A    
C57   C58   A    
O16   C71   S    
C62   O14   S    
C7    C23   S    
C55   C61   A    
C81   H62   S    
Cu1   O5    S    
C8    C24   S    
C39   H4    S    
C56   C58   A    
C56   C62   A    
C4    C14   A    
C65   H19   S    
C69   H30   S    
C70   H32   S    
C83   H66   S    
C84   H68   S    
C15   C21   A    
C21   H16   S    
C8    C10   A    
Cu1   Cu2   S    
C22   C26   A    
C20   H17   S    
O14   C67   S    
C75   H44   S    
C53   N1    A    
C81   C82   S    
C68   H27   S    
C78   H51   S    
O19   C77   S    
C58   C60   A    
C36   H8    S    
C75   H45   S    
Cu2   O7    S    
C46   N2    A    
