data_mof_unit_8769.cif
_audit_creation_date              2012-10-26T19:04:40-0400
_audit_creation_method            fapswitch 2.2
_symmetry_space_group_name_H-M    P1
_symmetry_Int_Tables_number       1
_space_group_crystal_system       triclinic
_cell_length_a                    9.5897
_cell_length_b                    10.880753
_cell_length_c                    13.543644
_cell_angle_alpha                 93.136015
_cell_angle_beta                  73.499683
_cell_angle_gamma                 90.995929
_cell_volume                      1352.9573231

loop_
_atom_site_label
_atom_site_type_symbol
_atom_type_description
_atom_site_fract_x
_atom_site_fract_y
_atom_site_fract_z
_atom_type_partial_charge
C1    C     C_R   0.503590 0.736700 0.493044 0.546152
C2    C     C_R   0.383454 0.538321 0.813171 -0.001343
C3    C     C_R   0.305711 0.871559 0.404961 -0.090189
C4    C     C_R   0.423873 0.512222 0.699588 0.545608
C5    C     C_R   0.177302 0.925866 0.401012 -0.132987
C6    C     C_R   0.137534 0.040089 0.450785 -0.121464
C7    C     C_R   0.233444 0.105746 0.494471 -0.094510
C8    C     C_R   0.372252 0.057596 0.489041 0.008309
C9    C     C_R   0.396377 0.932054 0.458776 0.023022
C10   C     C_R   0.506794 0.870161 0.486549 -0.020468
C11   C     C_R   0.607627 0.936678 0.524925 -0.166138
C12   C     C_R   0.442635 0.542399 0.978804 0.033282
C13   C     C_R   0.601100 0.063909 0.536466 -0.043988
C14   C     C_R   0.486306 0.127247 0.514636 -0.023509
C15   C     C_R   0.908248 0.337096 0.361381 -0.086609
C16   C     C_R   0.495206 0.262407 0.506870 0.542067
C17   C     C_R   0.007091 0.260192 0.291484 -0.184163
C18   C     C_R   0.150974 0.260786 0.291066 -0.174564
C19   C     C_R   0.196615 0.337512 0.361151 -0.101963
C20   C     C_R   0.100299 0.419144 0.432488 0.147902
C21   C     C_R   0.950553 0.418886 0.432713 0.169758
C22   C     C_R   0.904283 0.582122 0.559285 -0.007446
C23   C     C_R   0.488898 0.545926 0.869755 0.030243
C24   C     C_R   0.051366 0.580527 0.560885 -0.004583
C25   C     C_R   0.577042 0.497530 0.300865 0.530271
C26   C     C_R   0.802367 0.484581 0.024497 -0.134575
C27   C     C_R   0.619432 0.496530 0.188593 0.000056
C28   C     C_R   0.236113 0.554233 0.867105 -0.134775
C29   C     C_R   0.193297 0.570952 0.973957 -0.143875
C30   C     C_R   0.293220 0.559853 0.029695 -0.117772
C31   C     C_1   0.708219 0.125296 0.578639 0.216538
C32   C     C_R   0.548740 0.524133 0.032029 0.028511
C33   C     C_R   0.697674 0.513257 0.975723 0.054041
C34   C     C_R   0.741736 0.537021 0.872076 -0.134509
C35   C     C_R   0.639048 0.560281 0.821945 -0.108789
C36   C     C_R   0.512239 0.514615 0.138992 -0.138278
C37   C     C_R   0.764188 0.478150 0.130845 -0.141724
Cu1   Cu    Cu3+1 0.359340 0.500010 0.500010 0.911550
Cu2   Cu    Cu3+1 0.640660 0.499990 0.499990 0.939235
H1    H     H_    0.847622 0.459603 0.167691 0.127842
H2    H     H_    0.087993 0.646734 0.610703 0.118715
H3    H     H_    0.913660 0.467790 0.979784 0.107836
H4    H     H_    0.401200 0.522268 0.185685 0.124212
H5    H     H_    0.153694 0.555729 0.826620 0.123888
H6    H     H_    0.690881 0.889056 0.548041 0.133239
H7    H     H_    0.033208 0.079010 0.453964 0.147864
H8    H     H_    0.800759 0.329479 0.354873 0.181002
H9    H     H_    0.250005 0.569017 0.112308 0.102682
H10   H     H_    0.081307 0.590864 0.014862 0.115160
H11   H     H_    0.680596 0.596103 0.747504 0.141128
H12   H     H_    0.332802 0.782105 0.365843 0.142637
H13   H     H_    0.106084 0.877249 0.362819 0.114461
H14   H     H_    0.192380 0.190426 0.536839 0.166169
H15   H     H_    0.833061 0.652687 0.604728 0.094851
H16   H     H_    0.971397 0.199356 0.237429 0.122860
H17   H     H_    0.227653 0.199771 0.237206 0.132426
H18   H     H_    0.308207 0.327829 0.356587 0.188942
H19   H     H_    0.856236 0.541636 0.830265 0.102045
N1    N     N_R   0.852480 0.498790 0.499000 -0.238344
N2    N     N_R   0.148360 0.498710 0.498970 -0.249233
N3    N     N_1   0.793672 0.174301 0.612631 -0.302685
O1    O     O_R   0.381190 0.680360 0.500010 -0.508969
O2    O     O_R   0.618760 0.680340 0.500000 -0.510841
O3    O     O_R   0.323240 0.499990 0.650990 -0.499877
O4    O     O_R   0.560820 0.499960 0.650980 -0.500712
O5    O     O_R   0.381240 0.319660 0.500000 -0.535908
O6    O     O_R   0.618810 0.319640 0.499990 -0.499707
O7    O     O_R   0.439180 0.500040 0.349020 -0.535261
O8    O     O_R   0.676760 0.500010 0.349010 -0.524746

loop_
_geom_bond_atom_site_label_1
_geom_bond_atom_site_label_2
_ccdc_geom_bond_type
C36   H4    S    
C2    C4    S    
C26   C37   A    
C6    C7    A    
C3    C9    A    
C18   H17   S    
C27   C36   A    
C20   N2    A    
Cu2   O4    S    
C9    C10   A    
C31   N3    T    
C26   C33   A    
C23   C35   A    
C19   C20   A    
C15   H8    S    
C24   N2    A    
Cu2   N1    S    
C1    O1    A    
C2    C23   A    
C35   H11   S    
C17   C18   A    
Cu2   O8    S    
C7    C8    A    
C22   H15   S    
C16   O6    A    
C29   H10   S    
C13   C14   A    
C12   C32   A    
C2    C28   A    
C24   H2    S    
C11   C13   A    
C12   C23   A    
C4    O3    A    
C29   C30   A    
C25   O7    A    
C27   C37   A    
Cu1   N2    S    
C32   C36   A    
C22   C24   A    
C30   H9    S    
C28   C29   A    
C33   C34   A    
C21   N1    A    
C37   H1    S    
Cu1   O3    S    
C5    C6    A    
C34   C35   A    
C14   C16   S    
C11   H6    S    
C25   C27   S    
C10   C11   A    
C7    H14   S    
C1    O2    A    
C15   C21   A    
Cu2   O2    S    
C20   C21   A    
C26   H3    S    
C28   H5    S    
C34   H19   S    
C18   C19   A    
C25   O8    A    
C22   N1    A    
C15   C17   A    
C3    H12   S    
C17   H16   S    
C4    O4    A    
C16   O5    A    
C8    C14   A    
C6    H7    S    
C5    H13   S    
C12   C30   A    
Cu1   O1    S    
Cu2   O6    S    
C13   C31   S    
C19   H18   S    
C1    C10   S    
Cu1   O5    S    
C32   C33   A    
Cu1   O7    S    
C8    C9    A    
C3    C5    A    
Cu1   Cu2   S    
