data_mof_unit_15471.cif
_audit_creation_date              2012-12-10T17:46:32-0500
_audit_creation_method            fapswitch 2.2
_symmetry_space_group_name_H-M    P1
_symmetry_Int_Tables_number       1
_space_group_crystal_system       triclinic
_cell_length_a                    20.717725
_cell_length_b                    21.192177
_cell_length_c                    14.719168
_cell_angle_alpha                 90.117649
_cell_angle_beta                  127.780611
_cell_angle_gamma                 89.74372
_cell_volume                      5107.66786252

loop_
_atom_site_label
_atom_site_type_symbol
_atom_type_description
_atom_site_fract_x
_atom_site_fract_y
_atom_site_fract_z
_atom_type_partial_charge
C1    C     C_R   0.603029 0.913693 0.631489 0.832207
C2    C     C_R   0.396971 0.086307 0.368511 0.832208
C3    C     C_R   0.396943 0.913886 0.368286 0.832621
C4    C     C_R   0.603057 0.086114 0.631714 0.832619
C5    C     C_R   0.103029 0.413693 0.631489 0.832207
C6    C     C_R   0.896971 0.586307 0.368511 0.832207
C7    C     C_R   0.896943 0.413886 0.368286 0.832620
C8    C     C_R   0.103057 0.586114 0.631714 0.832620
C9    C     C_R   0.307128 0.792157 0.899835 0.322019
C10   C     C_R   0.692872 0.207843 0.100164 0.322019
C11   C     C_R   0.667714 0.776068 0.071857 0.314053
C12   C     C_R   0.332285 0.223932 0.928143 0.314052
C13   C     C_R   0.807129 0.292156 0.899836 0.322019
C14   C     C_R   0.192871 0.707844 0.100163 0.322019
C15   C     C_R   0.167715 0.276068 0.071857 0.314053
C16   C     C_R   0.832286 0.723933 0.928143 0.314052
C17   C     C_R   0.320641 0.009210 0.663481 0.236655
C18   C     C_R   0.679359 0.990790 0.336518 0.236655
C19   C     C_R   0.820641 0.509210 0.663481 0.236655
C20   C     C_R   0.179359 0.490790 0.336519 0.236655
C21   C     C_R   0.351976 0.003683 0.602601 0.047944
C22   C     C_R   0.648024 0.996316 0.397399 0.047944
C23   C     C_R   0.851976 0.503683 0.602601 0.047944
C24   C     C_R   0.148024 0.496317 0.397399 0.047944
C25   C     C_R   0.486902 0.997700 0.774943 0.036863
C26   C     C_R   0.513098 0.002300 0.225057 0.036863
C27   C     C_R   0.986902 0.497700 0.774943 0.036863
C28   C     C_R   0.013098 0.502300 0.225057 0.036863
C29   C     C_R   0.459776 0.001229 0.843699 -0.050737
C30   C     C_R   0.540224 0.998771 0.156301 -0.050737
C31   C     C_R   0.959776 0.501229 0.843699 -0.050737
C32   C     C_R   0.040224 0.498771 0.156301 -0.050737
C33   C     C_R   0.374946 0.012559 0.786002 0.033999
C34   C     C_R   0.625054 0.987441 0.213998 0.033998
C35   C     C_R   0.874946 0.512559 0.786002 0.033998
C36   C     C_R   0.125054 0.487441 0.213998 0.033999
C37   C     C_R   0.514428 0.995057 0.967247 0.087172
C38   C     C_R   0.485572 0.004942 0.032753 0.087173
C39   C     C_R   0.014428 0.495057 0.967247 0.087173
C40   C     C_R   0.985572 0.504943 0.032753 0.087172
C41   C     C_R   0.403671 0.023520 0.973228 -0.214344
C42   C     C_R   0.596329 0.976480 0.026772 -0.214344
C43   C     C_R   0.903671 0.523520 0.973228 -0.214343
C44   C     C_R   0.096329 0.476480 0.026772 -0.214344
C45   C     C_R   0.349215 0.027506 0.853536 0.349767
C46   C     C_R   0.650785 0.972494 0.146464 0.349767
C47   C     C_R   0.849215 0.527506 0.853536 0.349767
C48   C     C_R   0.150785 0.472494 0.146464 0.349767
C49   C     C_R   0.661886 0.135570 0.705353 -0.114784
C50   C     C_R   0.338114 0.864430 0.294647 -0.114783
C51   C     C_R   0.339329 0.137043 0.296639 -0.115796
C52   C     C_R   0.660671 0.862956 0.703361 -0.115796
C53   C     C_R   0.161886 0.635570 0.705353 -0.114784
C54   C     C_R   0.838114 0.364430 0.294647 -0.114784
C55   C     C_R   0.839329 0.637043 0.296639 -0.115796
C56   C     C_R   0.160671 0.362956 0.703361 -0.115796
C57   C     C_R   0.769042 0.208387 0.754978 0.327433
C58   C     C_R   0.230958 0.791613 0.245022 0.327432
C59   C     C_R   0.244590 0.219544 0.260474 0.332729
C60   C     C_R   0.755410 0.780456 0.739527 0.332729
C61   C     C_R   0.269042 0.708387 0.754978 0.327433
C62   C     C_R   0.730958 0.291613 0.245022 0.327433
C63   C     C_R   0.744590 0.719543 0.260474 0.332729
C64   C     C_R   0.255410 0.280456 0.739526 0.332728
C65   C     C_R   0.716161 0.159148 0.687651 -0.194099
C66   C     C_R   0.283839 0.840852 0.312349 -0.194099
C67   C     C_R   0.298503 0.170774 0.329205 -0.194843
C68   C     C_R   0.701498 0.829226 0.670795 -0.194843
C69   C     C_R   0.216161 0.659148 0.687651 -0.194099
C70   C     C_R   0.783839 0.340852 0.312349 -0.194099
C71   C     C_R   0.798502 0.670774 0.329205 -0.194843
C72   C     C_R   0.201497 0.329226 0.670795 -0.194843
C73   C     C_R   0.664426 0.158295 0.795962 -0.202541
C74   C     C_R   0.335574 0.841705 0.204038 -0.202541
C75   C     C_R   0.329192 0.154022 0.197625 -0.195645
C76   C     C_R   0.670808 0.845978 0.802375 -0.195645
C77   C     C_R   0.164425 0.658296 0.795961 -0.202541
C78   C     C_R   0.835574 0.341704 0.204038 -0.202542
C79   C     C_R   0.829193 0.654022 0.197625 -0.195645
C80   C     C_R   0.170808 0.345978 0.802375 -0.195645
C81   C     C_R   0.720121 0.204870 0.870190 0.034047
C82   C     C_R   0.279878 0.795130 0.129809 0.034048
C83   C     C_R   0.280364 0.205578 0.130653 0.039869
C84   C     C_R   0.719636 0.794422 0.869347 0.039869
C85   C     C_R   0.220121 0.704871 0.870189 0.034047
C86   C     C_R   0.779879 0.295129 0.129810 0.034047
C87   C     C_R   0.780364 0.705578 0.130653 0.039869
C88   C     C_R   0.219636 0.294422 0.869347 0.039869
C89   C     C_R   0.767278 0.235338 0.842240 -0.001877
C90   C     C_R   0.232721 0.764662 0.157759 -0.001878
C91   C     C_R   0.230409 0.234852 0.155289 0.003777
C92   C     C_R   0.769591 0.765148 0.844711 0.003777
C93   C     C_R   0.267278 0.735339 0.842240 -0.001877
C94   C     C_R   0.732722 0.264662 0.157760 -0.001877
C95   C     C_R   0.730409 0.734852 0.155289 0.003777
C96   C     C_R   0.269591 0.265148 0.844711 0.003777
C97   C     C_R   0.726972 0.223164 0.968761 0.039081
C98   C     C_R   0.273027 0.776836 0.031238 0.039081
C99   C     C_R   0.279037 0.227180 0.038095 0.046336
C100  C     C_R   0.720963 0.772820 0.961905 0.046336
C101  C     C_R   0.226971 0.723164 0.968760 0.039081
C102  C     C_R   0.773028 0.276836 0.031239 0.039081
C103  C     C_R   0.779037 0.727180 0.038095 0.046336
C104  C     C_R   0.220963 0.272820 0.961905 0.046336
C105  C     C_R   0.308075 0.812462 0.990575 -0.207768
C106  C     C_R   0.691924 0.187538 0.009425 -0.207767
C107  C     C_R   0.663104 0.793404 0.976920 -0.202980
C108  C     C_R   0.336896 0.206596 0.023080 -0.202979
C109  C     C_R   0.808076 0.312462 0.990576 -0.207767
C110  C     C_R   0.191922 0.687539 0.009423 -0.207767
C111  C     C_R   0.163104 0.293404 0.976920 -0.202979
C112  C     C_R   0.836896 0.706596 0.023080 -0.202980
Cu1   Cu    Cu3+1 0.526640 1.000000 0.436960 0.976370
Cu2   Cu    Cu3+1 0.473360 0.000000 0.563040 0.976371
Cu3   Cu    Cu3+1 0.026640 0.500000 0.436960 0.976371
Cu4   Cu    Cu3+1 0.973360 0.500000 0.563040 0.976370
H1    H     H_    0.380480 0.037928 0.018591 0.146073
H2    H     H_    0.619520 0.962072 0.981409 0.146073
H3    H     H_    0.880480 0.537928 0.018591 0.146073
H4    H     H_    0.119520 0.462072 0.981409 0.146073
H5    H     H_    0.380258 0.859343 0.195392 0.171037
H6    H     H_    0.619742 0.140656 0.804608 0.171037
H7    H     H_    0.641505 0.875057 0.827761 0.155705
H8    H     H_    0.358495 0.124942 0.172239 0.155705
H9    H     H_    0.880258 0.359343 0.195393 0.171038
H10   H     H_    0.119741 0.640657 0.804606 0.171037
H11   H     H_    0.141505 0.375058 0.827761 0.155705
H12   H     H_    0.858495 0.624942 0.172239 0.155705
H13   H     H_    0.282358 0.860783 0.378903 0.198166
H14   H     H_    0.717642 0.139216 0.621097 0.198166
H15   H     H_    0.690384 0.840041 0.590349 0.202578
H16   H     H_    0.309617 0.159959 0.409651 0.202578
H17   H     H_    0.782357 0.360784 0.378902 0.198166
H18   H     H_    0.217643 0.639216 0.621099 0.198166
H19   H     H_    0.190383 0.340041 0.590349 0.202578
H20   H     H_    0.809616 0.659959 0.409651 0.202578
H21   H     H_    0.334068 0.858408 0.025000 0.167908
H22   H     H_    0.665931 0.141593 0.974999 0.167908
H23   H     H_    0.610701 0.821412 0.912841 0.177704
H24   H     H_    0.389299 0.178588 0.087158 0.177704
H25   H     H_    0.834070 0.358407 0.025002 0.167908
H26   H     H_    0.165929 0.641594 0.974997 0.167908
H27   H     H_    0.110701 0.321412 0.912841 0.177704
H28   H     H_    0.889300 0.678588 0.087159 0.177704
H29   H     H_    0.449248 0.004693 0.187123 0.126199
H30   H     H_    0.550752 0.995306 0.812877 0.126199
H31   H     H_    0.949248 0.504693 0.187123 0.126199
H32   H     H_    0.050752 0.495306 0.812877 0.126199
H33   H     H_    0.689111 0.997631 0.490385 0.156895
H34   H     H_    0.310889 0.002369 0.509615 0.156896
H35   H     H_    0.189111 0.497631 0.490385 0.156895
H36   H     H_    0.810889 0.502369 0.509615 0.156895
N1    N     N_R   0.433280 0.000000 0.657760 -0.204087
N2    N     N_R   0.566720 1.000000 0.342240 -0.204087
N3    N     N_R   0.933280 0.500000 0.657760 -0.204087
N4    N     N_R   0.066720 0.500000 0.342240 -0.204087
O1    O     O_R   0.600040 0.935040 0.546740 -0.583510
O2    O     O_R   0.399960 0.064960 0.453260 -0.583510
O3    O     O_R   0.399960 0.935040 0.453260 -0.579939
O4    O     O_R   0.600040 0.064960 0.546740 -0.579939
O5    O     O_R   0.100040 0.435040 0.546740 -0.583510
O6    O     O_R   0.899960 0.564960 0.453260 -0.583510
O7    O     O_R   0.899960 0.435040 0.453260 -0.579939
O8    O     O_R   0.100040 0.564960 0.546740 -0.579939
O9    O     O_R   0.555010 0.935070 0.653220 -0.584735
O10   O     O_R   0.444990 0.064930 0.346780 -0.584735
O11   O     O_R   0.444990 0.935070 0.346780 -0.586375
O12   O     O_R   0.555010 0.064930 0.653220 -0.586374
O13   O     O_R   0.055010 0.435070 0.653220 -0.584735
O14   O     O_R   0.944990 0.564930 0.346780 -0.584735
O15   O     O_R   0.944990 0.435070 0.346780 -0.586374
O16   O     O_R   0.055010 0.564930 0.653220 -0.586374
Br1   Br    Br    0.347524 0.853020 0.849036 -0.404279
Br2   Br    Br    0.652476 0.146980 0.150964 -0.404279
Br3   Br    Br    0.575337 0.802101 0.064304 -0.385380
Br4   Br    Br    0.424662 0.197899 0.935695 -0.385381
Br5   Br    Br    0.847524 0.353020 0.849037 -0.404279
Br6   Br    Br    0.152475 0.646980 0.150962 -0.404279
Br7   Br    Br    0.075337 0.302101 0.064305 -0.385381
Br8   Br    Br    0.924663 0.697899 0.935696 -0.385380
Br9   Br    Br    0.348459 0.726781 0.730972 -0.344190
Br10  Br    Br    0.651542 0.273219 0.269029 -0.344191
Br11  Br    Br    0.706928 0.768130 0.330467 -0.347054
Br12  Br    Br    0.293072 0.231869 0.669532 -0.347054
Br13  Br    Br    0.848458 0.226781 0.730970 -0.344191
Br14  Br    Br    0.151541 0.773219 0.269030 -0.344190
Br15  Br    Br    0.206928 0.268130 0.330467 -0.347054
Br16  Br    Br    0.793073 0.731870 0.669533 -0.347054
Br17  Br    Br    0.245583 0.064695 0.796038 -0.370033
Br18  Br    Br    0.754416 0.935304 0.203961 -0.370033
Br19  Br    Br    0.745584 0.564696 0.796039 -0.370033
Br20  Br    Br    0.254417 0.435304 0.203962 -0.370033
Br21  Br    Br    0.203799 0.001762 0.569124 -0.310211
Br22  Br    Br    0.796201 0.998237 0.430876 -0.310211
Br23  Br    Br    0.703798 0.501762 0.569124 -0.310211
Br24  Br    Br    0.296201 0.498238 0.430876 -0.310211

loop_
_geom_bond_atom_site_label_1
_geom_bond_atom_site_label_2
_ccdc_geom_bond_type
C10   Br2   S    
C3    O3    A    
C23   H36   S    
C88   C96   A    
C19   Br23  S    
C69   H18   S    
C7    O15   A    
Cu3   N4    S    
C58   Br14  S    
C33   C45   A    
Cu4   O7    S    
C17   Br21  S    
C67   H16   S    
Cu1   N2    S    
C79   H12   S    
C53   C69   A    
C76   C84   A    
C79   C87   A    
C65   H14   S    
C3    O11   A    
C99   C108  A    
Cu4   O16   S    
C98   C105  A    
C57   C89   A    
C32   C36   A    
Cu4   O6    S    
C51   C75   A    
C15   Br7   S    
C50   C74   A    
C22   N2    A    
C61   C93   A    
C106  H22   S    
C18   Br22  S    
C10   C94   A    
C9    C105  A    
Cu3   Cu4   S    
C63   C95   A    
Cu3   O8    S    
C54   C78   A    
C62   C70   A    
C42   C46   A    
C37   C42   A    
C110  H26   S    
Cu2   O2    S    
Cu4   N3    S    
C13   C109  A    
C86   C94   A    
C59   C67   A    
C85   C93   A    
C58   C66   A    
C40   C43   A    
C14   C90   A    
C6    O6    A    
C29   C33   A    
C27   H32   S    
C56   C72   A    
C87   C95   A    
C70   H17   S    
C9    Br1   S    
C25   H30   S    
C34   C46   A    
C2    O10   A    
Cu2   N1    S    
C57   Br13  S    
C97   C102  A    
C52   C68   A    
C111  H27   S    
C12   Br4   S    
C66   H13   S    
C81   C89   A    
C78   C86   A    
C32   C40   A    
C99   C104  A    
C22   H33   S    
C35   C47   A    
C60   Br16  S    
Cu2   O12   S    
C83   C99   A    
C27   N3    A    
C82   C98   A    
C17   C33   A    
C46   Br18  S    
Cu3   O14   S    
C5    O13   A    
C73   C81   A    
C88   C104  A    
C3    C50   S    
C60   C92   A    
C25   C29   A    
C63   Br11  S    
C30   C34   A    
C39   C40   A    
C25   N1    A    
C75   H8    S    
C84   C100  A    
C20   C24   A    
C28   C32   A    
C8    O16   A    
C64   C96   A    
C38   C41   A    
Cu3   O15   S    
C8    O8    A    
Cu1   O10   S    
C108  H24   S    
C42   H2    S    
C72   H19   S    
C51   C67   A    
C101  C110  A    
C7    O7    A    
C100  C103  A    
C17   C21   A    
C4    O12   A    
C103  C112  A    
C5    O5    A    
Cu3   O5    S    
C26   H29   S    
C19   C23   A    
C37   C38   A    
C24   H35   S    
C15   C111  A    
C62   Br10  S    
C55   C79   A    
C54   C70   A    
C1    O9    A    
C2    O2    A    
C7    C54   S    
C59   C91   A    
C21   H34   S    
C59   Br15  S    
C18   C34   A    
C14   Br6   S    
C49   C65   A    
C58   C90   A    
C24   N4    A    
C87   C103  A    
C97   C106  A    
C45   Br17  S    
C63   C71   A    
C26   C30   A    
C5    C56   S    
C62   C94   A    
C27   C31   A    
C11   C107  A    
C53   C77   A    
C49   C73   A    
C26   N2    A    
C23   N3    A    
C86   C102  A    
C9    C93   A    
C71   H20   S    
C85   C101  A    
C16   C112  A    
Cu2   O9    S    
C12   C108  A    
Cu1   Cu2   S    
C6    O14   A    
C61   C69   A    
C14   C110  A    
C100  C107  A    
C41   C45   A    
C13   C89   A    
C18   C22   A    
C76   H7    S    
C61   Br9   S    
C57   C65   A    
C52   C76   A    
C82   C90   A    
C8    C53   S    
Cu1   O11   S    
C104  C111  A    
C109  H25   S    
C50   C66   A    
C16   C92   A    
C39   C44   A    
C80   H11   S    
C68   H15   S    
C98   C101  A    
C83   C91   A    
C11   Br3   S    
C56   C80   A    
C4    C49   S    
C41   H1    S    
C112  H28   S    
C105  H21   S    
C1    O1    A    
C80   C88   A    
C21   N1    A    
C75   C83   A    
C4    O4    A    
C6    C55   S    
C77   C85   A    
C13   Br5   S    
C81   C97   A    
C31   C39   A    
Cu4   O13   S    
C36   C48   A    
C31   C35   A    
C64   C72   A    
Cu1   O4    S    
C47   Br19  S    
C1    C52   S    
C55   C71   A    
Cu2   O3    S    
C48   Br20  S    
C10   C106  A    
C2    C51   S    
C15   C91   A    
C64   Br12  S    
C44   C48   A    
C74   H5    S    
C11   C95   A    
C60   C68   A    
C73   H6    S    
C29   C37   A    
C28   N4    A    
C20   C36   A    
C44   H4    S    
C12   C96   A    
C102  C109  A    
C19   C35   A    
C84   C92   A    
C30   C38   A    
Cu1   O1    S    
C78   H9    S    
C43   C47   A    
C20   Br24  S    
C107  H23   S    
C74   C82   A    
C77   H10   S    
C16   Br8   S    
C43   H3    S    
C28   H31   S    
