data_mof_unit_17282.cif
_audit_creation_date              2012-10-26T19:10:19-0400
_audit_creation_method            fapswitch 2.2
_symmetry_space_group_name_H-M    P1
_symmetry_Int_Tables_number       1
_space_group_crystal_system       triclinic
_cell_length_a                    10.909033
_cell_length_b                    9.570932
_cell_length_c                    19.332317
_cell_angle_alpha                 91.108817
_cell_angle_beta                  95.71776
_cell_angle_gamma                 89.139288
_cell_volume                      2007.88724358

loop_
_atom_site_label
_atom_site_type_symbol
_atom_type_description
_atom_site_fract_x
_atom_site_fract_y
_atom_site_fract_z
_atom_type_partial_charge
C1    C     C_R   0.260775 0.501010 0.503140 0.599344
C2    C     C_3   0.075995 0.361930 0.534219 0.130495
C3    C     C_3   0.931588 0.622251 0.544867 -0.176881
C4    C     C_3   0.934155 0.362664 0.528642 -0.186803
C5    C     C_3   0.063512 0.508943 0.428199 -0.325434
C6    C     C_3   0.123062 0.502174 0.505293 0.001633
C7    C     C_3   0.878234 0.499857 0.497997 -0.080786
C8    C     C_R   0.499065 0.498737 0.367688 0.533151
C9    C     C_3   0.920311 0.515327 0.424550 -0.286122
C10   C     C_3   0.624813 0.083697 0.531462 0.232276
C11   C     C_3   0.623478 0.913457 0.533805 0.244741
C12   C     C_R   0.491116 0.487007 0.070081 0.426726
C13   C     C_3   0.407249 0.085432 0.544208 -0.091970
C14   C     C_3   0.402127 0.920257 0.540427 -0.094979
C15   C     C_3   0.474538 0.080544 0.430591 -0.168095
C16   C     C_3   0.479868 0.915069 0.430312 -0.166048
C17   C     C_R   0.739411 0.499378 0.497001 0.594143
C18   C     C_R   0.497950 0.500312 0.632602 0.683222
C19   C     C_R   0.520216 0.617249 0.256085 -0.121608
C20   C     C_R   0.474566 0.370438 0.253898 -0.120078
C21   C     C_R   0.520113 0.615467 0.183794 0.202390
C22   C     C_R   0.471375 0.366405 0.181430 0.202165
C23   C     C_R   0.495703 0.617283 0.821375 0.153700
C24   C     C_R   0.494376 0.489606 0.145966 0.006624
C25   C     C_R   0.497933 0.495441 0.291502 -0.076955
C26   C     C_R   0.485741 0.483973 0.930133 0.408175
C27   C     C_R   0.476207 0.364008 0.814020 0.171959
C28   C     C_R   0.490541 0.620224 0.749007 -0.097529
C29   C     C_R   0.484721 0.369350 0.742489 -0.049161
C30   C     C_R   0.493079 0.497311 0.709132 -0.016630
C31   C     C_R   0.486235 0.488327 0.854466 0.003608
C32   C     C_3   0.071680 0.635433 0.542793 0.129372
Cu1   Cu    Cu3+1 0.499860 0.642410 0.500030 1.011347
Cu2   Cu    Cu3+1 0.499860 0.357590 0.500030 1.016282
H1    H     H_    0.539439 0.713688 0.285025 0.169969
H2    H     H_    0.392715 0.873898 0.403189 0.145634
H3    H     H_    0.542233 0.118651 0.396198 0.136013
H4    H     H_    0.554723 0.878765 0.398944 0.128287
H5    H     H_    0.314316 0.127654 0.526540 0.168609
H6    H     H_    0.310405 0.889324 0.514899 0.155778
H7    H     H_    0.481736 0.718870 0.724061 0.225942
H8    H     H_    0.479190 0.273251 0.712330 0.214915
H9    H     H_    0.085476 0.725613 0.508944 0.128238
H10   H     H_    0.104118 0.275128 0.499739 0.123852
H11   H     H_    0.910756 0.600663 0.598245 0.234614
H12   H     H_    0.457255 0.275984 0.281061 0.169774
H13   H     H_    0.904013 0.354132 0.580879 0.246479
H14   H     H_    0.886999 0.723569 0.529151 0.160515
H15   H     H_    0.898693 0.270949 0.496842 0.142806
H16   H     H_    0.096606 0.602071 0.402245 0.136038
H17   H     H_    0.092217 0.415891 0.398011 0.134966
H18   H     H_    0.887015 0.147518 0.663351 0.411135
H19   H     H_    0.735224 0.648663 0.675381 0.362077
H20   H     H_    0.691226 0.827650 0.073235 0.412346
H21   H     H_    0.323206 0.142833 0.043693 0.417670
H22   H     H_    0.676618 0.842257 0.817327 0.364982
H23   H     H_    0.885891 0.616655 0.402379 0.144390
H24   H     H_    0.317453 0.119458 0.768025 0.342315
H25   H     H_    0.228891 0.882939 0.666900 0.372765
H26   H     H_    0.125498 0.122202 0.678694 0.373493
H27   H     H_    0.880615 0.430528 0.389421 0.145548
H28   H     H_    0.691061 0.107567 0.493181 0.083199
H29   H     H_    0.694802 0.878141 0.499826 0.078259
H30   H     H_    0.427227 0.119562 0.599345 0.198042
H31   H     H_    0.406970 0.877657 0.593350 0.207260
H32   H     H_    0.382323 0.116477 0.407297 0.137589
N1    N     N_R   0.581233 0.420183 0.038360 -0.117648
N2    N     N_R   0.397832 0.551468 0.030813 -0.115415
N3    N     N_R   0.578688 0.418902 0.969419 -0.126016
N4    N     N_R   0.395281 0.550207 0.961877 -0.112889
N5    N     N_3   0.500250 0.143650 0.501520 -0.298926
N6    N     N_3   0.500250 0.856350 0.501520 -0.294046
O1    O     O_R   0.317570 0.620260 0.500040 -0.511197
O2    O     O_2   0.650931 0.121673 0.676782 -0.206632
O3    O     O_3   0.852637 0.122836 0.615339 -0.481601
O4    O     O_2   0.805144 0.892698 0.646477 -0.188840
O5    O     O_2   0.592691 0.873990 0.671198 -0.278424
O6    O     O_3   0.711972 0.665678 0.625328 -0.518281
O7    O     O_2   0.444921 0.825714 0.099849 -0.167126
O8    O     O_2   0.602444 0.879847 0.195733 -0.253231
O9    O     O_3   0.668465 0.735482 0.090189 -0.467509
O10   O     O_2   0.552391 0.148113 0.110015 -0.182281
O11   O     O_2   0.388296 0.102793 0.184270 -0.240312
O12   O     O_R   0.317570 0.379740 0.500040 -0.509334
O13   O     O_3   0.330489 0.233843 0.068944 -0.465210
O14   O     O_2   0.396967 0.840484 0.880720 -0.131120
O15   O     O_2   0.594602 0.755618 0.936523 -0.229267
O16   O     O_3   0.594942 0.887036 0.820789 -0.378272
O17   O     O_2   0.563287 0.147869 0.889781 -0.124654
O18   O     O_2   0.349155 0.217711 0.899587 -0.230357
O19   O     O_3   0.399720 0.085022 0.787191 -0.430712
O20   O     O_2   0.061755 0.678138 0.684020 -0.187043
O21   O     O_2   0.260541 0.610977 0.646117 -0.259187
O22   O     O_3   0.179586 0.861024 0.622259 -0.529508
O23   O     O_R   0.499870 0.620300 0.400170 -0.531595
O24   O     O_2   0.272353 0.330755 0.632993 -0.291083
O25   O     O_2   0.074188 0.390716 0.675357 -0.217002
O26   O     O_3   0.109563 0.140175 0.628292 -0.498349
O27   O     O_R   0.499870 0.379700 0.400170 -0.531454
O28   O     O_R   0.682190 0.620260 0.500020 -0.470927
O29   O     O_R   0.682190 0.379740 0.500020 -0.468938
O30   O     O_R   0.499890 0.620220 0.599880 -0.423003
O31   O     O_R   0.499890 0.379780 0.599880 -0.430383
O32   O     O_2   0.710297 0.323253 0.619867 -0.292272
S1    S     S_3+6 0.703149 0.168225 0.612417 0.060294
S2    S     S_3+6 0.681991 0.837196 0.619753 0.069137
S3    S     S_3+6 0.557386 0.770819 0.142542 0.086266
S4    S     S_3+6 0.436871 0.206287 0.136579 0.086839
S5    S     S_3+6 0.519688 0.777136 0.867950 0.120782
S6    S     S_3+6 0.446905 0.201173 0.850349 0.129420
S7    S     S_3+6 0.144677 0.691750 0.626939 0.061675
S8    S     S_3+6 0.136495 0.310907 0.620731 0.009860

loop_
_geom_bond_atom_site_label_1
_geom_bond_atom_site_label_2
_ccdc_geom_bond_type
C6    C32   S    
O9    S3    S    
C32   S7    S    
C29   H8    S    
C27   C29   A    
C3    H14   S    
C16   N6    S    
H18   O3    S    
C2    C6    S    
C1    O12   A    
O24   S8    D    
O8    S3    D    
C2    S8    S    
C9    H27   S    
O19   S6    S    
O5    S2    D    
C19   C21   A    
C8    O27   A    
C3    C7    S    
C5    C6    S    
H22   O16   S    
C20   C25   A    
C15   C16   S    
O22   S7    S    
O11   S4    D    
C18   O30   A    
C17   O29   A    
C15   H3    S    
Cu1   N6    S    
C14   H31   S    
C27   S6    S    
C2    H10   S    
C7    C17   S    
C18   C30   S    
H25   O22   S    
O10   S4    D    
O13   S4    S    
H24   O19   S    
C10   N5    S    
C26   C31   S    
C13   C14   S    
C8    C25   S    
C10   H28   S    
C8    O23   A    
Cu2   O12   S    
C4    C7    S    
Cu1   O23   S    
O32   S1    D    
Cu2   O27   S    
C23   S5    S    
C12   N1    A    
Cu2   O29   S    
O26   S8    S    
C27   C31   A    
C1    C6    S    
O14   S5    D    
O25   S8    D    
C11   N6    S    
C13   N5    S    
C15   H32   S    
O17   S6    D    
C3    H11   S    
Cu1   O30   S    
N1    N3    A    
C23   C31   A    
H21   O13   S    
C2    C4    S    
C5    C9    S    
C29   C30   A    
C12   N2    A    
C11   S2    S    
Cu1   Cu2   S    
O7    S3    D    
C23   C28   A    
C21   S3    S    
O21   S7    D    
O16   S5    S    
Cu1   O1    S    
C20   C22   A    
O3    S1    S    
C26   N4    A    
C22   C24   A    
C5    H16   S    
O18   S6    D    
C7    C9    S    
O4    S2    D    
C14   N6    S    
O20   S7    D    
O15   S5    D    
C15   N5    S    
C12   C24   S    
H26   O26   S    
Cu2   O31   S    
C4    H15   S    
O6    S2    S    
Cu1   O28   S    
C1    O1    A    
C28   C30   A    
H19   O6    S    
C19   H1    S    
C16   H2    S    
O2    S1    D    
C13   H30   S    
C22   S4    S    
C32   H9    S    
C9    H23   S    
C18   O31   A    
C3    C32   S    
C19   C25   A    
C17   O28   A    
C13   H5    S    
C10   C11   S    
C14   H6    S    
N2    N4    A    
C21   C24   A    
C26   N3    A    
C5    H17   S    
C10   S1    S    
C11   H29   S    
Cu2   N5    S    
H20   O9    S    
C20   H12   S    
C28   H7    S    
C16   H4    S    
C4    H13   S    
