data_mof_unit_49679.cif
_audit_creation_date              2012-12-10T20:47:08-0500
_audit_creation_method            fapswitch 2.2
_symmetry_space_group_name_H-M    P1
_symmetry_Int_Tables_number       1
_space_group_crystal_system       triclinic
_cell_length_a                    10.788956
_cell_length_b                    8.907694
_cell_length_c                    8.231978
_cell_angle_alpha                 90.000093
_cell_angle_beta                  89.999839
_cell_angle_gamma                 89.9845
_cell_volume                      791.131900484

loop_
_atom_site_label
_atom_site_type_symbol
_atom_type_description
_atom_site_fract_x
_atom_site_fract_y
_atom_site_fract_z
_atom_type_partial_charge
C1    C     C_R   0.499813 0.218567 0.499955 0.913460
C2    C     C_R   0.060477 0.527493 0.646466 0.029791
C3    C     C_R   0.127268 0.513831 0.501038 -0.310358
C4    C     C_R   0.872731 0.486167 0.501037 -0.310362
C5    C     C_R   0.062901 0.485192 0.357254 0.339801
C6    C     C_R   0.937099 0.514813 0.357255 0.339796
C7    C     C_1   0.499926 0.065366 0.499894 -0.200281
C8    C     C_1   0.500074 0.934633 0.499894 -0.200282
C9    C     C_3   0.110214 0.256157 0.252915 0.101103
C10   C     C_3   0.177326 0.175640 0.115748 -0.791906
C11   C     C_3   0.889792 0.743863 0.252952 0.101103
C12   C     C_R   0.500187 0.781432 0.499955 0.913461
C13   C     C_3   0.822702 0.824401 0.115783 -0.791910
C14   C     C_R   0.259970 0.506173 0.500386 0.916892
C15   C     C_R   0.740030 0.493826 0.500385 0.916892
C16   C     C_R   0.108456 0.585245 0.791689 -0.178562
C17   C     C_R   0.891540 0.414758 0.791690 -0.178561
C18   C     C_R   0.049393 0.551299 0.936168 -0.035026
C19   C     C_R   0.950597 0.448717 0.936170 -0.035030
C20   C     C_R   0.939522 0.472504 0.646466 0.029793
H1    H     H_    0.189668 0.656423 0.794583 0.159126
H2    H     H_    0.845232 0.777379 0.369640 0.132904
H3    H     H_    0.988382 0.781076 0.253324 0.115217
H4    H     H_    0.723613 0.790557 0.113776 0.270955
H5    H     H_    0.828525 0.947716 0.134212 0.192485
H6    H     H_    0.865830 0.795714 0.997290 0.250327
H7    H     H_    0.810328 0.343580 0.794586 0.159126
H8    H     H_    0.084449 0.602099 0.045359 0.195613
H9    H     H_    0.915535 0.397926 0.045363 0.195605
H10   H     H_    0.011625 0.218938 0.253259 0.115214
H11   H     H_    0.154759 0.222628 0.369607 0.132898
H12   H     H_    0.276410 0.209496 0.113763 0.270959
H13   H     H_    0.171513 0.052325 0.134157 0.192490
H14   H     H_    0.134212 0.204333 0.997251 0.250332
N1    N     N_1   0.500000 0.500000 0.073640 -0.033046
N2    N     N_1   0.500000 0.500000 0.926360 -0.039354
O1    O     O_R   0.500000 0.285350 0.636850 -0.619621
O2    O     O_3   0.881606 0.587200 0.227977 -0.607304
O3    O     O_R   0.500000 0.714650 0.636850 -0.619620
O4    O     O_R   0.500000 0.285360 0.363100 -0.623116
O5    O     O_R   0.500000 0.714640 0.363100 -0.623110
O6    O     O_R   0.316770 0.500000 0.636900 -0.631385
O7    O     O_R   0.683230 0.500000 0.636900 -0.631385
O8    O     O_R   0.316780 0.500000 0.363150 -0.568472
O9    O     O_R   0.683220 0.500000 0.363150 -0.568477
O10   O     O_3   0.118397 0.412824 0.227965 -0.607301
Zn1   Zn    Zn3+2 0.500000 0.500000 0.682780 0.969757
Zn2   Zn    Zn3+2 0.500000 0.500000 0.317220 0.999371

loop_
_geom_bond_atom_site_label_1
_geom_bond_atom_site_label_2
_ccdc_geom_bond_type
C11   O2    S    
C6    O2    S    
C12   O5    A    
C4    C20   A    
C8    C12   S    
O1    Zn1   S    
C2    C16   A    
C5    O10   S    
C11   H2    S    
N1    N2    T    
C1    O1    A    
C14   O6    A    
C12   O3    A    
C2    C3    A    
C15   O7    A    
C9    O10   S    
C10   H14   S    
C16   C18   A    
C11   C13   S    
C13   H5    S    
C16   H1    S    
C3    C14   S    
C9    H10   S    
C4    C15   S    
N1    Zn2   S    
O3    Zn1   S    
C17   C19   A    
O5    Zn2   S    
C10   H13   S    
O6    Zn1   S    
C5    C6    A    
C13   H6    S    
C4    C6    A    
C15   O9    A    
C2    C20   A    
C19   H9    S    
C10   H12   S    
C7    C8    T    
C17   C20   A    
C18   H8    S    
N2    Zn1   S    
C14   O8    A    
C18   C19   A    
C9    C10   S    
O9    Zn2   S    
C11   H3    S    
O4    Zn2   S    
C9    H11   S    
C1    O4    A    
C1    C7    S    
O7    Zn1   S    
O8    Zn2   S    
C13   H4    S    
C3    C5    A    
C17   H7    S    
