data_mof_unit_41978.cif
_audit_creation_date              2012-12-11T16:43:10-0500
_audit_creation_method            fapswitch 2.2
_symmetry_space_group_name_H-M    P1
_symmetry_Int_Tables_number       1
_space_group_crystal_system       triclinic
_cell_length_a                    6.943817
_cell_length_b                    23.362071
_cell_length_c                    25.732386
_cell_angle_alpha                 104.656995
_cell_angle_beta                  89.817208
_cell_angle_gamma                 90.880296
_cell_volume                      4038.03785606

loop_
_atom_site_label
_atom_site_type_symbol
_atom_type_description
_atom_site_fract_x
_atom_site_fract_y
_atom_site_fract_z
_atom_type_partial_charge
O1    O     O_R   0.505750 0.453350 0.547660 -0.547101
O2    O     O_R   0.170990 0.432220 0.437590 -0.529482
O3    O     O_R   0.005600 0.546650 0.452340 -0.537894
C1    C     C_R   0.339510 0.414768 0.418301 0.813238
O4    O     O_R   0.175720 0.446240 0.546340 -0.540025
O5    O     O_R   0.010370 0.560770 0.561860 -0.554327
C2    C     C_R   0.343573 0.434696 0.563233 0.731754
O6    O     O_R   0.500990 0.439230 0.438140 -0.544152
O7    O     O_3   0.340820 0.537560 0.504970 -0.347513
V1    V     V_3+5 0.064050 0.493030 0.499080 1.506607
O8    O     O_R   0.680940 0.567780 0.562410 -0.527763
C3    C     C_R   0.850402 0.583795 0.582797 0.726802
O9    O     O_R   0.676210 0.553760 0.453660 -0.504737
C4    C     C_R   0.846011 0.566451 0.437810 0.768389
V2    V     V_3+5 0.564640 0.506970 0.500920 1.573623
O10   O     O_3   0.837740 0.462440 0.495030 -0.374250
C5    C     C_R   0.830559 0.906172 0.145579 0.423123
C6    C     C_R   0.821271 0.866215 0.178144 -0.190262
H1    H     H_    0.727717 0.875430 0.212920 0.172705
C7    C     C_R   0.936369 0.815711 0.167725 0.013798
C8    C     C_R   0.063180 0.805716 0.123840 -0.128823
H2    H     H_    0.154122 0.767216 0.114833 0.116966
C9    C     C_R   0.070789 0.844624 0.090375 -0.196935
H3    H     H_    0.167648 0.835130 0.056281 0.130044
C10   C     C_R   0.953061 0.894730 0.100097 -0.165441
C11   C     C_R   0.092965 0.752571 0.221577 -0.139300
H4    H     H_    0.233432 0.763950 0.208410 0.111527
C12   C     C_R   0.081494 0.717552 0.258487 -0.137027
H5    H     H_    0.213655 0.702887 0.272844 0.114121
C13   C     C_R   0.901934 0.703666 0.278194 0.108967
C14   C     C_R   0.734227 0.724377 0.258881 -0.146908
H6    H     H_    0.593366 0.713457 0.272122 0.111076
C15   C     C_R   0.745780 0.759506 0.222279 -0.147873
H7    H     H_    0.613742 0.774944 0.208523 0.111447
C16   C     C_R   0.925250 0.774732 0.203690 0.108886
C17   C     C_R   0.753792 0.684540 0.361688 -0.225873
H8    H     H_    0.662111 0.722132 0.363985 0.164221
C18   C     C_R   0.738667 0.653099 0.401486 0.422448
C19   C     C_R   0.859400 0.603976 0.398979 -0.154903
C20   C     C_R   0.996535 0.589549 0.357471 -0.174104
H9    H     H_    0.090871 0.552337 0.354516 0.129456
C21   C     C_R   0.011201 0.621679 0.318498 -0.117399
H10   H     H_    0.116049 0.608419 0.286651 0.117882
C22   C     C_R   0.888763 0.669266 0.319807 0.028111
C23   C     C_R   0.716731 0.643490 0.670501 -0.163059
C24   C     C_R   0.864911 0.632747 0.632073 -0.098832
C25   C     C_R   0.033429 0.667596 0.641641 -0.192391
C26   C     C_R   0.054551 0.714017 0.688166 0.002741
C27   C     C_R   0.904848 0.725019 0.726504 0.001691
C28   C     C_R   0.737157 0.688751 0.718098 0.136716
C29   C     C_R   0.224003 0.748844 0.696987 0.397909
C30   C     C_R   0.242266 0.793842 0.744859 -0.208925
C31   C     C_R   0.087994 0.809274 0.781153 -0.089242
C32   C     C_R   0.922462 0.772252 0.773228 -0.006720
C33   C     C_R   0.774874 0.781923 0.812056 0.120339
C34   C     C_R   0.612510 0.744168 0.804287 -0.189667
C35   C     C_R   0.593248 0.698262 0.757590 -0.171529
C36   C     C_R   0.095838 0.860270 0.825266 0.416107
C37   C     C_R   0.950630 0.868144 0.865846 -0.162070
C38   C     C_R   0.792828 0.828442 0.858473 -0.204508
H11   H     H_    0.587514 0.615958 0.663852 0.119940
H12   H     H_    0.147764 0.658757 0.612050 0.189834
H13   H     H_    0.381029 0.814637 0.754905 0.203718
H14   H     H_    0.682251 0.833969 0.889118 0.152420
H15   H     H_    0.498376 0.750810 0.833941 0.125988
H16   H     H_    0.464758 0.670470 0.752169 0.124598
C39   C     C_R   0.405945 0.195321 0.126874 0.370965
C40   C     C_R   0.457992 0.137440 0.129670 -0.221345
C41   C     C_R   0.491051 0.127088 0.180124 -0.189347
C42   C     C_R   0.478247 0.172466 0.227417 0.021798
C43   C     C_R   0.411542 0.228416 0.225699 0.014258
C44   C     C_R   0.367283 0.239440 0.175433 -0.043228
C45   C     C_R   0.537427 0.162854 0.276252 -0.239590
C46   C     C_R   0.536587 0.208590 0.323419 0.490793
C47   C     C_R   0.444197 0.262849 0.324445 -0.151346
C48   C     C_R   0.390184 0.273350 0.274353 -0.089355
C49   C     C_R   0.317790 0.328970 0.272593 0.040655
C50   C     C_R   0.260946 0.338593 0.222957 0.373066
C51   C     C_R   0.286006 0.294345 0.175436 -0.179811
C52   C     C_R   0.403997 0.306807 0.373057 0.395194
C53   C     C_R   0.349130 0.364098 0.370034 -0.194482
C54   C     C_R   0.306864 0.374408 0.320136 -0.295169
H17   H     H_    0.528532 0.083360 0.182695 0.241183
H18   H     H_    0.598501 0.120724 0.277238 0.185552
H19   H     H_    0.262388 0.418293 0.318826 0.148908
H20   H     H_    0.237168 0.303832 0.138803 0.216442
C55   C     C_R   0.309704 0.147575 0.907768 -0.035741
H21   H     H_    0.210173 0.151349 0.940802 0.205623
C56   C     C_R   0.289281 0.185768 0.874177 -0.110177
H22   H     H_    0.175167 0.217824 0.882076 0.134522
C57   C     C_R   0.417330 0.183338 0.831559 -0.003998
C58   C     C_R   0.563043 0.141241 0.822528 -0.135043
H23   H     H_    0.661663 0.139185 0.789443 0.189260
C59   C     C_R   0.583413 0.102004 0.855409 0.388408
C60   C     C_R   0.455809 0.105093 0.899291 -0.211303
C61   C     C_R   0.562126 0.258449 0.786362 0.419437
C62   C     C_R   0.548036 0.292133 0.748582 -0.204283
H24   H     H_    0.673538 0.317348 0.741816 0.117398
C63   C     C_R   0.375387 0.294140 0.720588 0.014529
C64   C     C_R   0.214344 0.262145 0.732289 -0.136198
H25   H     H_    0.079346 0.261777 0.711304 0.138608
C65   C     C_R   0.227258 0.228038 0.769737 -0.170255
H26   H     H_    0.102571 0.202479 0.776588 0.188281
C66   C     C_R   0.401406 0.224655 0.796302 -0.015501
C67   C     C_R   0.193556 0.356514 0.670258 -0.134426
H27   H     H_    0.065678 0.353551 0.693647 0.099045
C68   C     C_R   0.185724 0.389759 0.632002 -0.178498
H28   H     H_    0.051754 0.410781 0.626753 0.116516
C69   C     C_R   0.349917 0.397197 0.602070 -0.059833
C70   C     C_R   0.520942 0.369438 0.610472 -0.110824
H29   H     H_    0.649512 0.373659 0.587699 0.145901
C71   C     C_R   0.528035 0.335410 0.648057 -0.132087
H30   H     H_    0.661593 0.313772 0.652348 0.114269
C72   C     C_R   0.365171 0.328981 0.679104 0.117749
O11   O     O_R   0.308350 0.060850 0.061810 -0.534902
O12   O     O_R   0.633860 0.053770 0.953650 -0.532679
O13   O     O_R   0.798960 0.939210 0.938150 -0.526223
C73   C     C_R   0.466002 0.064841 0.936121 0.893528
O14   O     O_R   0.638360 0.067800 0.062400 -0.518344
O15   O     O_R   0.803500 0.953330 0.047670 -0.511748
C74   C     C_R   0.469358 0.086104 0.081331 0.864257
O16   O     O_R   0.303810 0.046730 0.952290 -0.535396
O17   O     O_3   0.468430 0.962490 0.995010 -0.369458
V3    V     V_3+5 0.745300 0.006960 0.000930 1.640863
O18   O     O_R   0.132880 0.946160 0.046390 -0.542942
C75   C     C_R   0.963496 0.934270 0.062907 0.745865
O19   O     O_R   0.128380 0.932130 0.937650 -0.528862
C76   C     C_R   0.959822 0.916755 0.916411 0.786707
V4    V     V_3+5 0.244670 0.992930 0.999140 1.615703
O20   O     O_3   0.971670 0.037510 0.005000 -0.392153
S1    S     S_3+6 0.700551 0.972417 0.165787 -0.053935
O21   O     O_2   0.524843 0.967848 0.130946 -0.344591
O22   O     O_2   0.638104 0.983323 0.223429 -0.352708
O23   O     O_3   0.840441 0.029407 0.158669 -0.528524
H31   H     H_    0.949246 0.030904 0.183804 0.330720
S2    S     S_3+6 0.574291 0.679134 0.454722 -0.022525
O24   O     O_2   0.396536 0.640396 0.445524 -0.313434
O25   O     O_2   0.663039 0.677607 0.507573 -0.365435
O26   O     O_3   0.510580 0.748914 0.457010 -0.509606
H32   H     H_    0.626097 0.773467 0.470646 0.335412
O27   O     O_3   0.374160 0.733942 0.660149 -0.567697
C77   C     C_3   0.467177 0.783570 0.648178 0.123282
H33   H     H_    0.580528 0.766324 0.617938 0.173039
H34   H     H_    0.546632 0.811032 0.683261 0.119390
C78   C     C_3   0.331927 0.821797 0.624071 -0.362676
H35   H     H_    0.228774 0.845433 0.654895 0.220932
H36   H     H_    0.420453 0.855900 0.611358 0.189288
C79   C     C_3   0.220543 0.785463 0.575448 -0.578999
H37   H     H_    0.319101 0.756469 0.546814 0.292445
H38   H     H_    0.148828 0.815625 0.554696 0.212633
H39   H     H_    0.107858 0.757787 0.588210 0.222369
S3    S     S_3+6 0.270727 0.917316 0.825766 0.031667
O28   O     O_2   0.438862 0.909099 0.859495 -0.330711
O29   O     O_2   0.339648 0.916556 0.770097 -0.332585
O30   O     O_3   0.174910 0.983662 0.851838 -0.480296
H40   H     H_    0.234381 0.010316 0.831698 0.389620
S4    S     S_3+6 0.406234 0.213468 0.063665 -0.055769
O31   O     O_2   0.205849 0.204613 0.040966 -0.350861
O32   O     O_2   0.468711 0.276664 0.069322 -0.347324
O33   O     O_3   0.558748 0.170577 0.020689 -0.533195
H41   H     H_    0.688554 0.182110 0.036008 0.343224
O34   O     O_3   0.636946 0.199828 0.367035 -0.511719
C80   C     C_3   0.820333 0.228011 0.370128 0.223200
H42   H     H_    0.872522 0.236193 0.412172 0.205537
H43   H     H_    0.815171 0.272394 0.361440 0.060045
C81   C     C_3   0.967574 0.189353 0.333078 -0.425712
H44   H     H_    0.925287 0.182473 0.290349 0.185569
H45   H     H_    0.107767 0.213110 0.338335 0.201818
C82   C     C_3   0.993193 0.129651 0.345973 -0.548598
H46   H     H_    0.039377 0.136109 0.388373 0.249292
H47   H     H_    0.105511 0.104330 0.319342 0.213259
H48   H     H_    0.856570 0.103529 0.339306 0.241716
S5    S     S_3+6 0.384631 0.289000 0.436474 -0.015252
O35   O     O_2   0.342453 0.224204 0.429615 -0.311319
O36   O     O_2   0.569172 0.305888 0.467254 -0.343335
O37   O     O_3   0.202591 0.326514 0.472051 -0.527459
H49   H     H_    0.186596 0.309496 0.503393 0.359490
O38   O     O_3   0.202939 0.393833 0.219271 -0.571010
C83   C     C_3   0.004188 0.400737 0.230741 0.045858
H50   H     H_    0.980702 0.448555 0.249071 0.147215
H51   H     H_    0.951937 0.376825 0.260706 0.105325
C84   C     C_3   0.885779 0.381615 0.178966 -0.322521
H52   H     H_    0.951236 0.400510 0.147367 0.222497
H53   H     H_    0.885238 0.332569 0.164576 0.202240
C85   C     C_3   0.678961 0.402557 0.188436 -0.726591
H54   H     H_    0.616891 0.387929 0.222759 0.234263
H55   H     H_    0.591200 0.383732 0.151954 0.270309
H56   H     H_    0.674514 0.451602 0.197559 0.221859
S6    S     S_3+6 0.776369 0.052494 0.841199 0.043340
O39   O     O_2   0.716198 0.992284 0.846634 -0.290649
O40   O     O_2   0.851766 0.046811 0.785326 -0.295365
O41   O     O_3   0.950971 0.081106 0.885368 -0.523993
H57   H     H_    0.952382 0.056339 0.911262 0.365771
O42   O     O_3   0.738942 0.256728 0.810573 -0.586224
C86   C     C_3   0.730672 0.285413 0.866032 0.075225
H58   H     H_    0.742230 0.251292 0.889097 0.167029
H59   H     H_    0.595257 0.310424 0.878801 0.111378
C87   C     C_3   0.901148 0.328679 0.880334 -0.328741
H60   H     H_    0.037054 0.305568 0.865824 0.204174
H61   H     H_    0.883640 0.364962 0.859989 0.191999
C88   C     C_3   0.915648 0.354984 0.940863 -0.771836
H62   H     H_    0.782153 0.379085 0.956255 0.234896
H63   H     H_    0.039662 0.386507 0.949798 0.228659
H64   H     H_    0.938325 0.319441 0.961778 0.256319

loop_
_geom_bond_atom_site_label_1
_geom_bond_atom_site_label_2
_ccdc_geom_bond_type
C55   H21   S    
C47   C48   A    
S4    O31   D    
O11   C74   A    
C5    S1    S    
C65   H26   S    
C82   H47   S    
C45   C46   A    
C80   H42   S    
C79   H39   S    
C57   C66   S    
C1    O6    A    
S1    O23   S    
C25   H12   S    
C71   C72   A    
C78   H35   S    
O17   V3    S    
O14   V3    S    
C67   C68   A    
C11   H4    S    
O34   C80   S    
C49   C54   A    
C12   H5    S    
C80   H43   S    
O13   V3    S    
C79   H38   S    
C52   S5    S    
C39   C44   A    
C44   C51   A    
O5    C3    A    
C43   C48   A    
O15   C75   A    
C33   C34   A    
C85   H55   S    
V2    O10   S    
C34   C35   A    
C6    H1    S    
C73   O16   A    
S6    O40   D    
C70   H29   S    
C64   H25   S    
C62   C63   A    
C4    C19   S    
C84   H52   S    
C7    C16   S    
O8    V2    S    
C26   C29   A    
C1    C53   S    
C63   C64   A    
O12   C73   A    
C40   C41   A    
C55   C60   A    
C9    H3    S    
C14   C15   A    
O37   H49   S    
C42   C43   A    
O1    V2    S    
C18   S2    S    
C56   C57   A    
O12   V3    S    
C47   C52   A    
C35   H16   S    
O16   V4    S    
C83   C84   S    
C33   C38   A    
C61   O42   S    
O42   C86   S    
C37   C38   A    
S4    O32   D    
S5    O35   D    
O9    C4    A    
O17   V4    S    
C81   H45   S    
C88   H63   S    
C77   C78   S    
C13   C22   S    
C81   H44   S    
C59   C60   A    
O27   C77   S    
C21   C22   A    
C63   C72   S    
S2    O26   S    
C64   C65   A    
C71   H30   S    
C78   H36   S    
C36   S3    S    
C62   H24   S    
C70   C71   A    
S5    O36   D    
C60   C73   S    
O26   H32   S    
C46   C47   A    
C29   C30   A    
C82   H46   S    
O38   C83   S    
C67   C72   A    
C80   C81   S    
C48   C49   A    
S2    O25   D    
C57   C58   A    
C46   O34   S    
C50   C51   A    
C52   C53   A    
C85   H56   S    
C36   C37   A    
C49   C50   A    
C42   C45   A    
C53   C54   A    
C39   C40   A    
O15   V3    S    
C84   C85   S    
S6    O41   S    
O2    C1    A    
C10   C75   S    
O19   V4    S    
C68   C69   A    
C41   H17   S    
C50   O38   S    
C34   H15   S    
C20   C21   A    
C25   C26   A    
S3    O30   S    
C13   C14   A    
C68   H28   S    
C61   C62   A    
C7    C8    A    
C87   C88   S    
C58   C59   A    
C5    C6    A    
V3    O20   S    
C39   S4    S    
C24   C25   A    
C79   H37   S    
C65   C66   A    
O3    C4    A    
C87   H60   S    
O14   C74   A    
C3    C24   S    
C20   H9    S    
S3    O29   D    
O6    V2    S    
O9    V2    S    
O18   C75   A    
C88   H64   S    
C77   H34   S    
C17   C22   A    
C21   H10   S    
O19   C76   A    
O2    V1    S    
C19   C20   A    
C78   C79   S    
C30   C31   A    
O4    C2    A    
V4    O20   S    
O7    V1    S    
S5    O37   S    
S6    O39   D    
C61   C66   A    
C32   C33   A    
C17   H8    S    
C45   H18   S    
O1    C2    A    
C28   C35   A    
C29   O27   S    
C14   H6    S    
S2    O24   D    
S1    O22   D    
C30   H13   S    
C40   C74   S    
O5    V1    S    
C23   C24   A    
C87   H61   S    
C31   C36   A    
C12   C13   A    
C31   C32   A    
O23   H31   S    
O11   V4    S    
C83   H50   S    
S4    O33   S    
C54   H19   S    
C67   H27   S    
C11   C12   A    
C88   H62   S    
C38   H14   S    
C5    C10   A    
O41   H57   S    
C86   C87   S    
C8    C9    A    
C37   C76   S    
C59   S6    S    
O4    V1    S    
O3    V1    S    
V1    O10   S    
S1    O21   D    
O33   H41   S    
C17   C18   A    
C85   H54   S    
C18   C19   A    
C23   C28   A    
C26   C27   A    
C23   H11   S    
C58   H23   S    
C15   C16   A    
C15   H7    S    
C6    C7    A    
C9    C10   A    
O7    V2    S    
C41   C42   A    
O13   C76   A    
C84   H53   S    
C86   H58   S    
O18   V4    S    
C11   C16   A    
C43   C44   A    
S3    O28   D    
C81   C82   S    
C27   C28   A    
C69   C70   A    
O30   H40   S    
C55   C56   A    
C77   H33   S    
C2    C69   S    
C82   H48   S    
C83   H51   S    
C56   H22   S    
C8    H2    S    
C51   H20   S    
C27   C32   A    
O8    C3    A    
C86   H59   S    
