data_mof_unit_15136.cif
_audit_creation_date              2012-10-26T18:29:53-0400
_audit_creation_method            fapswitch 2.2
_symmetry_space_group_name_H-M    P1
_symmetry_Int_Tables_number       1
_space_group_crystal_system       triclinic
_cell_length_a                    10.729054
_cell_length_b                    12.997084
_cell_length_c                    11.791452
_cell_angle_alpha                 100.056952
_cell_angle_beta                  92.392621
_cell_angle_gamma                 92.793384
_cell_volume                      1614.9742627

loop_
_atom_site_label
_atom_site_type_symbol
_atom_type_description
_atom_site_fract_x
_atom_site_fract_y
_atom_site_fract_z
_atom_type_partial_charge
C1    C     C_R   0.502940 0.299225 0.477871 0.562289
C2    C     C_R   0.495181 0.031282 0.554747 0.041361
C3    C     C_R   0.493485 0.967340 0.445198 0.033737
C4    C     C_R   0.260122 0.499004 0.500966 0.533303
C5    C     C_R   0.488291 0.859509 0.436126 -0.142132
C6    C     C_R   0.494834 0.877515 0.644337 -0.124279
C7    C     C_R   0.493817 0.985883 0.654145 -0.130109
C8    C     C_R   0.375798 0.400800 0.024494 -0.174038
C9    C     C_R   0.386853 0.413373 0.146623 0.047433
C10   C     C_R   0.555919 0.539130 0.151019 0.156740
C11   C     C_R   0.531444 0.540696 0.031832 -0.012504
C12   C     C_3   0.877701 0.495615 0.499217 0.030697
C13   C     C_R   0.450001 0.464587 0.965649 -0.007172
C14   C     C_R   0.448056 0.454503 0.842936 0.031225
C15   C     C_R   0.593125 0.601312 0.856779 0.159208
C16   C     C_R   0.498528 0.700578 0.521840 0.522707
C17   C     C_R   0.593781 0.613844 0.976646 -0.148890
C18   C     C_R   0.739579 0.496104 0.498784 0.542273
C19   C     C_3   0.074711 0.457226 0.608007 -0.250578
C20   C     C_3   0.931669 0.459522 0.609570 -0.234692
C21   C     C_3   0.076482 0.613510 0.506636 -0.105513
C22   C     C_3   0.063351 0.425818 0.391823 -0.234008
C23   C     C_3   0.931360 0.607864 0.497589 -0.222472
C24   C     C_3   0.122074 0.499795 0.501328 0.052459
C25   C     C_3   0.131340 0.674504 0.416025 -0.267351
C26   C     C_3   0.104815 0.791317 0.442109 -0.317984
C27   C     C_3   0.148470 0.848055 0.346637 -0.445011
C28   C     C_2   0.545546 0.158323 0.246898 0.238112
C29   C     C_2   0.670362 0.679001 0.807364 0.230172
C30   C     C_3   0.687816 0.580428 0.196792 -0.204997
C31   C     C_3   0.696710 0.693698 0.262591 -0.292421
C32   C     C_3   0.816697 0.753540 0.239995 -0.482237
C33   C     C_3   0.920165 0.420077 0.393216 -0.227883
C34   C     C_R   0.493511 0.814007 0.534907 -0.007077
C35   C     C_R   0.507650 0.184948 0.463788 0.002252
C36   C     C_R   0.502081 0.011505 0.346036 -0.161495
C37   C     C_R   0.515880 0.119714 0.354239 0.003958
C38   C     C_R   0.498921 0.139339 0.563045 -0.155114
Cu1   Cu    Cu3+1 0.509350 0.507730 0.615930 0.911203
Cu2   Cu    Cu3+1 0.490650 0.492270 0.384070 0.943978
H1    H     H_    0.116646 0.505264 0.689345 0.131367
H2    H     H_    0.102910 0.375589 0.605674 0.116093
H3    H     H_    0.308562 0.342590 0.976885 0.086611
H4    H     H_    0.646560 0.680304 0.027113 0.150763
H5    H     H_    0.326182 0.365781 0.190208 0.117404
H6    H     H_    0.890910 0.380274 0.615275 0.129430
H7    H     H_    0.907028 0.514000 0.688199 0.133500
H8    H     H_    0.107713 0.658834 0.593178 0.132143
H9    H     H_    0.896474 0.663650 0.570472 0.100335
H10   H     H_    0.091757 0.453709 0.312224 0.129406
H11   H     H_    0.097520 0.345764 0.387543 0.110588
H12   H     H_    0.882040 0.439932 0.311576 0.127536
H13   H     H_    0.885250 0.338559 0.396165 0.147807
H14   H     H_    0.249309 0.838566 0.334129 0.159930
H15   H     H_    0.095398 0.816460 0.264089 0.151674
H16   H     H_    0.133027 0.932804 0.370261 0.150202
H17   H     H_    0.003397 0.801566 0.451189 0.164356
H18   H     H_    0.154737 0.828339 0.524801 0.166353
H19   H     H_    0.234249 0.670777 0.416649 0.184816
H20   H     H_    0.092982 0.638942 0.328171 0.146835
H21   H     H_    0.498746 0.121338 0.165555 0.088134
H22   H     H_    0.703205 0.662533 0.721792 0.162405
H23   H     H_    0.896014 0.631568 0.416896 0.121763
H24   H     H_    0.813997 0.768623 0.150165 0.174072
H25   H     H_    0.826787 0.829948 0.299748 0.154614
H26   H     H_    0.899123 0.708026 0.253106 0.144432
H27   H     H_    0.617025 0.736096 0.234920 0.156813
H28   H     H_    0.695647 0.693935 0.356424 0.190483
H29   H     H_    0.736512 0.525858 0.239719 0.166392
H30   H     H_    0.750592 0.575418 0.123588 0.101306
H31   H     H_    0.481091 0.811241 0.351532 0.112060
H32   H     H_    0.496770 0.843691 0.722007 0.162360
H33   H     H_    0.505421 0.961226 0.262503 0.094567
H34   H     H_    0.494805 0.034062 0.739067 0.112902
H35   H     H_    0.495386 0.187779 0.647494 0.125454
H36   H     H_    0.386712 0.394861 0.789922 0.115129
N1    N     N_R   0.523430 0.519360 0.790130 -0.257610
N2    N     N_R   0.476570 0.480640 0.209880 -0.209382
O1    O     O_R   0.506640 0.354460 0.582000 -0.518446
O2    O     O_2   0.700729 0.765123 0.864247 -0.564668
O3    O     O_R   0.490840 0.341410 0.386200 -0.454782
O4    O     O_R   0.325590 0.506510 0.597900 -0.509069
O5    O     O_R   0.309790 0.493450 0.402100 -0.526511
O6    O     O_R   0.509160 0.658590 0.613800 -0.519479
O7    O     O_R   0.493360 0.645540 0.418000 -0.521211
O8    O     O_R   0.690210 0.506550 0.597900 -0.537868
O9    O     O_R   0.674410 0.493490 0.402100 -0.503297
O10   O     O_2   0.628896 0.225703 0.246688 -0.492864

loop_
_geom_bond_atom_site_label_1
_geom_bond_atom_site_label_2
_ccdc_geom_bond_type
C9    H5    S    
C8    C13   A    
C2    C7    A    
C8    H3    S    
C10   N2    A    
C27   H14   S    
C33   H12   S    
C6    H32   S    
C29   O2    D    
C12   C23   S    
C26   C27   S    
C18   O8    A    
Cu1   N1    S    
Cu2   O9    S    
C36   C37   A    
C35   C37   A    
Cu1   O6    S    
C30   C31   S    
C4    C24   S    
C27   H15   S    
C23   H9    S    
C1    O3    A    
C16   O6    A    
C14   N1    A    
C10   C30   S    
C16   C34   S    
C19   C20   S    
C28   C37   S    
C8    C9    A    
C28   O10   D    
C25   H20   S    
C19   H2    S    
C22   H10   S    
C21   H8    S    
C28   H21   S    
C23   H23   S    
C13   C14   A    
Cu2   O5    S    
C30   H30   S    
C15   C29   S    
C7    H34   S    
C38   H35   S    
C33   H13   S    
C31   H28   S    
C35   C38   A    
C32   H24   S    
C36   H33   S    
Cu1   Cu2   S    
C27   H16   S    
C25   C26   S    
C6    C34   A    
C14   H36   S    
Cu2   O7    S    
C31   H27   S    
C2    C38   A    
C31   C32   S    
C5    C34   A    
C12   C20   S    
C26   H18   S    
C21   C23   S    
C16   O7    A    
C1    O1    A    
C22   C24   S    
C30   H29   S    
C1    C35   S    
C32   H26   S    
C15   C17   A    
C22   C33   S    
C21   C25   S    
C29   H22   S    
C11   C17   A    
Cu2   O3    S    
Cu1   O4    S    
C3    C5    A    
C6    C7    A    
C18   O9    A    
C2    C3    A    
C17   H4    S    
C5    H31   S    
C11   C13   A    
C15   N1    A    
C4    O5    A    
C3    C36   A    
C19   C24   S    
Cu2   N2    S    
C9    N2    A    
C26   H17   S    
C20   H7    S    
C10   C11   A    
C4    O4    A    
C21   C24   S    
C12   C18   S    
C22   H11   S    
C25   H19   S    
Cu1   O8    S    
C12   C33   S    
C20   H6    S    
C19   H1    S    
Cu1   O1    S    
C32   H25   S    
