data_mof_unit_50227.cif
_audit_creation_date              2012-12-10T17:05:41-0500
_audit_creation_method            fapswitch 2.2
_symmetry_space_group_name_H-M    P1
_symmetry_Int_Tables_number       1
_space_group_crystal_system       triclinic
_cell_length_a                    15.882512
_cell_length_b                    11.033263
_cell_length_c                    9.783084
_cell_angle_alpha                 110.101929
_cell_angle_beta                  97.926754
_cell_angle_gamma                 90.312666
_cell_volume                      1591.95530723

loop_
_atom_site_label
_atom_site_type_symbol
_atom_type_description
_atom_site_fract_x
_atom_site_fract_y
_atom_site_fract_z
_atom_type_partial_charge
C1    C     C_R   0.497948 0.254266 0.442785 0.879692
C2    C     C_3   0.959180 0.467079 0.625287 1.006699
C3    C     C_3   0.916902 0.514039 0.498671 -0.406904
C4    C     C_3   0.955261 0.656519 0.533515 0.028967
C5    C     C_3   0.055297 0.654781 0.529892 0.685233
C6    C     C_1   0.824399 0.510284 0.496245 0.217901
C7    C     C_1   0.175854 0.507013 0.505319 0.249959
C8    C     C_1   0.251323 0.504420 0.505895 -0.175362
C9    C     C_2   0.507641 0.116420 0.416776 -0.427618
C10   C     C_2   0.539522 0.074075 0.526479 0.411521
C11   C     C_2   0.510802 0.883592 0.586706 0.364616
C12   C     C_R   0.340413 0.500953 0.501909 0.810572
C13   C     C_2   0.541993 0.933446 0.495005 0.180263
C14   C     C_2   0.507083 0.510409 0.080710 -0.055129
C15   C     C_2   0.492283 0.490448 0.919444 -0.032096
C16   C     C_R   0.507037 0.745372 0.557530 0.787848
C17   C     C_R   0.659661 0.501014 0.498512 0.790345
C18   C     C_3   0.057004 0.453064 0.618723 0.665929
C19   C     C_3   0.037372 0.417307 0.342911 0.760805
C20   C     C_3   0.938524 0.413880 0.347045 0.800107
C21   C     C_1   0.748924 0.505499 0.495968 -0.173500
C22   C     C_3   0.083313 0.509616 0.501026 -0.336331
Cu1   Cu    Cu3+1 0.514650 0.521810 0.644910 0.993285
Cu2   Cu    Cu3+1 0.485350 0.478190 0.355090 0.973701
H1    H     H_    0.928178 0.691830 0.445662 0.095928
H2    H     H_    0.490911 0.048342 0.305116 0.163634
H3    H     H_    0.442929 0.419937 0.847898 0.179907
H4    H     H_    0.555817 0.581690 0.152395 0.191842
H5    H     H_    0.584042 0.619454 0.932356 0.192888
H6    H     H_    0.417231 0.378346 0.066983 0.204817
N1    N     N_2   0.463320 0.445430 0.137380 -0.281747
N2    N     N_2   0.536720 0.554500 0.862620 -0.286525
O1    O     O_R   0.507820 0.332330 0.577400 -0.517740
O2    O     O_R   0.483070 0.295500 0.332660 -0.574672
O3    O     O_R   0.391820 0.518430 0.622420 -0.565269
O4    O     O_R   0.367070 0.481600 0.377680 -0.577037
O5    O     O_R   0.516930 0.704500 0.667340 -0.551307
O6    O     O_R   0.492180 0.667670 0.422600 -0.555217
O7    O     O_R   0.632930 0.518400 0.622320 -0.571028
O8    O     O_R   0.608180 0.481570 0.377580 -0.575035
F1    F     F_    0.920253 0.349955 0.613147 -0.615745
F2    F     F_    0.104068 0.518741 0.755042 -0.756114
F3    F     F_    0.945997 0.552208 0.761374 -0.662262
O9    O     O_3   0.572865 0.853412 0.370454 -0.598999
C23   C     C_3   0.658372 0.892975 0.375238 0.057339
H7    H     H_    0.696460 0.909169 0.485210 0.107630
H8    H     H_    0.661457 0.983046 0.348708 0.168787
C24   C     C_3   0.699056 0.787819 0.262230 -0.799833
H9    H     H_    0.665621 0.772959 0.149932 0.243434
H10   H     H_    0.766999 0.816542 0.268372 0.208013
H11   H     H_    0.695429 0.696008 0.284633 0.230466
O10   O     O_3   0.557326 0.159007 0.671108 -0.510677
C25   C     C_3   0.641863 0.148055 0.730824 0.089944
H12   H     H_    0.687667 0.171940 0.665949 0.132433
H13   H     H_    0.652218 0.049533 0.734481 0.129347
C26   C     C_3   0.659631 0.242647 0.887976 -0.683753
H14   H     H_    0.615538 0.219592 0.955579 0.263227
H15   H     H_    0.726174 0.236011 0.936389 0.218241
H16   H     H_    0.650249 0.342542 0.889057 0.232819
F4    F     F_    0.482755 0.961468 0.711261 -0.645857
O11   O     O_3   0.075149 0.319945 0.575868 -0.503931
C27   C     C_3   0.093748 0.277364 0.696982 0.247857
H17   H     H_    0.047957 0.311508 0.777010 0.183078
H18   H     H_    0.159648 0.311505 0.753612 0.154733
C28   C     C_3   0.088712 0.131222 0.640437 -0.815892
H19   H     H_    0.134826 0.095012 0.562007 0.252222
H20   H     H_    0.104397 0.096022 0.733648 0.193821
H21   H     H_    0.023300 0.094967 0.583717 0.271768
O12   O     O_3   0.054355 0.461516 0.227972 -0.580739
C29   C     C_3   0.119909 0.398792 0.150474 0.176733
H22   H     H_    0.092234 0.310412 0.058606 0.166535
H23   H     H_    0.171893 0.371228 0.220527 0.165326
C30   C     C_3   0.159257 0.489954 0.087432 -0.779629
H24   H     H_    0.190339 0.576286 0.178377 0.261495
H25   H     H_    0.207886 0.440405 0.019607 0.195325
H26   H     H_    0.109076 0.521642 0.018332 0.300650
F5    F     F_    0.063437 0.291092 0.313852 -0.619764
F6    F     F_    0.917004 0.292042 0.348271 -0.549163
O13   O     O_3   0.888722 0.413322 0.212830 -0.529111
C31   C     C_3   0.878025 0.533548 0.193757 -0.040884
H27   H     H_    0.938483 0.591473 0.218929 0.217557
H28   H     H_    0.829991 0.587159 0.259891 0.127106
C32   C     C_3   0.844688 0.510887 0.033203 -0.626222
H29   H     H_    0.780116 0.462774 0.003650 0.218767
H30   H     H_    0.840974 0.604869 0.015093 0.215247
H31   H     H_    0.887842 0.449507 0.961248 0.300110
O14   O     O_3   0.109746 0.749763 0.650420 -0.589407
C33   C     C_3   0.104973 0.766776 0.798918 0.197969
H32   H     H_    0.163894 0.731955 0.845000 0.200243
H33   H     H_    0.049998 0.717959 0.818199 0.269589
C34   C     C_3   0.104297 0.910255 0.886644 -0.819115
H34   H     H_    0.048149 0.951913 0.842591 0.271509
H35   H     H_    0.101300 0.924680 0.003921 0.226562
H36   H     H_    0.163167 0.961421 0.879984 0.244272
O15   O     O_3   0.068951 0.682571 0.401896 -0.586446
C35   C     C_3   0.069424 0.815845 0.421002 0.118056
H37   H     H_    0.133567 0.861680 0.474960 0.198754
H38   H     H_    0.020770 0.866487 0.488321 0.158158
C36   C     C_3   0.051584 0.831963 0.271494 -0.802842
H39   H     H_    0.985999 0.794049 0.217433 0.243596
H40   H     H_    0.057596 0.936080 0.285723 0.245450
H41   H     H_    0.097819 0.779436 0.199909 0.260293
O16   O     O_3   0.935398 0.744661 0.668581 -0.528601
C37   C     C_3   0.855704 0.800663 0.655415 0.125461
H42   H     H_    0.813518 0.768498 0.719465 0.176520
H43   H     H_    0.821286 0.774050 0.541100 0.096296
C38   C     C_3   0.868422 0.947152 0.721055 -0.791236
H44   H     H_    0.911695 0.982120 0.660984 0.244166
H45   H     H_    0.806343 0.991531 0.712052 0.188421
H46   H     H_    0.896044 0.977458 0.839177 0.266962

loop_
_geom_bond_atom_site_label_1
_geom_bond_atom_site_label_2
_ccdc_geom_bond_type
O14   C33   S    
C4    O16   S    
C2    C18   S    
C38   H45   S    
C30   H24   S    
C25   H13   S    
O15   C35   S    
C14   N1    D    
C3    C6    S    
C10   O10   S    
C37   H43   S    
C4    H1    S    
C1    O1    A    
C7    C8    T    
C23   H7    S    
O10   C25   S    
Cu2   O4    S    
H5    N2    S    
C18   F2    S    
H6    N1    S    
C23   C24   S    
C2    F1    S    
C35   C36   S    
C26   H14   S    
C17   O7    A    
C19   F5    S    
C27   H18   S    
Cu2   O8    S    
C24   H11   S    
C5    C22   S    
C36   H39   S    
Cu1   O1    S    
C35   H38   S    
C9    H2    S    
Cu2   O6    S    
C38   H44   S    
C29   H22   S    
C12   O4    A    
C9    C10   D    
C27   C28   S    
C16   O5    A    
C24   H10   S    
C30   H25   S    
O12   C29   S    
C31   C32   S    
C37   H42   S    
C5    O15   S    
C1    O2    A    
C23   H8    S    
C15   N2    D    
C19   C22   S    
C1    C9    S    
C31   H28   S    
C34   H34   S    
C31   H27   S    
C28   H20   S    
C25   H12   S    
C6    C21   T    
C17   C21   S    
C17   O8    A    
C27   H17   S    
C34   H35   S    
C11   C16   S    
C15   H3    S    
C32   H29   S    
C33   C34   S    
C2    F3    S    
C8    C12   S    
C28   H21   S    
C35   H37   S    
C32   H31   S    
C29   C30   S    
C3    C20   S    
C12   O3    A    
C24   H9    S    
C32   H30   S    
C33   H33   S    
Cu1   O3    S    
C30   H26   S    
C19   O12   S    
C3    C4    S    
O9    C23   S    
C25   C26   S    
C20   O13   S    
C36   H40   S    
C18   C22   S    
C4    C5    S    
C10   C13   S    
C18   O11   S    
C7    C22   S    
C26   H16   S    
C20   F6    S    
Cu1   N2    S    
C19   C20   S    
C2    C3    S    
Cu2   N1    S    
Cu1   O5    S    
C34   H36   S    
C11   C13   D    
Cu1   O7    S    
C38   H46   S    
C26   H15   S    
C13   O9    S    
O11   C27   S    
Cu2   O2    S    
Cu1   Cu2   S    
O13   C31   S    
C5    O14   S    
C36   H41   S    
C33   H32   S    
C28   H19   S    
O16   C37   S    
C14   C15   S    
C29   H23   S    
C14   H4    S    
C37   C38   S    
C11   F4    S    
C16   O6    A    
