data_mof_unit_14054.cif
_audit_creation_date              2012-12-10T20:39:11-0500
_audit_creation_method            fapswitch 2.2
_symmetry_space_group_name_H-M    P1
_symmetry_Int_Tables_number       1
_space_group_crystal_system       triclinic
_cell_length_a                    19.051761
_cell_length_b                    10.672107
_cell_length_c                    9.873713
_cell_angle_alpha                 91.275051
_cell_angle_beta                  89.99957
_cell_angle_gamma                 90.421366
_cell_volume                      2006.9959582

loop_
_atom_site_label
_atom_site_type_symbol
_atom_type_description
_atom_site_fract_x
_atom_site_fract_y
_atom_site_fract_z
_atom_type_partial_charge
C1    C     C_R   0.501680 0.260475 0.498326 0.865397
C2    C     C_R   0.287522 0.496530 0.497215 -0.066407
C3    C     C_R   0.927300 0.410481 0.511663 0.301507
C4    C     C_R   0.068628 0.412818 0.514322 0.287064
C5    C     C_R   0.806823 0.362690 0.583225 0.213243
C6    C     C_R   0.735808 0.387536 0.580739 -0.232419
C7    C     C_R   0.709645 0.482801 0.500677 -0.147184
C8    C     C_R   0.754532 0.555937 0.421076 0.162640
C9    C     C_R   0.826989 0.530097 0.420892 -0.081432
C10   C     C_R   0.852541 0.433423 0.503704 -0.088877
C11   C     C_R   0.552438 0.066001 0.574315 0.071832
C12   C     C_R   0.364806 0.502869 0.499306 0.870035
C13   C     C_R   0.506121 0.128967 0.491511 -0.046296
C14   C     C_R   0.464822 0.062622 0.396602 -0.214605
C15   C     C_R   0.462428 0.933261 0.400216 -0.177463
C16   C     C_R   0.499489 0.872046 0.501530 -0.019308
C17   C     C_R   0.546085 0.939168 0.584478 0.016605
C18   C     C_3   0.560860 0.943774 0.734374 -0.050992
C19   C     C_3   0.573053 0.084715 0.719385 -0.494533
C20   C     C_R   0.491467 0.390597 0.069180 0.216789
C21   C     C_R   0.517521 0.604791 0.074309 -0.042996
C22   C     C_R   0.518372 0.604097 0.930541 -0.041537
C23   C     C_R   0.498999 0.739843 0.501288 0.887470
C24   C     C_R   0.489263 0.391269 0.926902 0.171287
C25   C     C_3   0.426035 0.306122 0.925236 -0.266413
C26   C     C_3   0.431638 0.301073 0.078946 -0.503572
C27   C     C_R   0.634461 0.500081 0.500063 0.891318
C28   C     C_R   0.252152 0.495041 0.621664 -0.205671
C29   C     C_R   0.181514 0.464116 0.628067 -0.147065
C30   C     C_R   0.144291 0.435453 0.509274 0.090777
C31   C     C_R   0.177936 0.443435 0.383683 -0.230456
C32   C     C_R   0.248321 0.478936 0.375558 -0.038217
H1    H     H_    0.279194 0.517442 0.714906 0.215479
H2    H     H_    0.429048 0.881840 0.329183 0.177225
H3    H     H_    0.536281 0.145120 0.777524 0.193329
H4    H     H_    0.628893 0.114977 0.728627 0.222679
H5    H     H_    0.530658 0.690184 0.129859 0.157605
H6    H     H_    0.533341 0.687469 0.878475 0.134544
H7    H     H_    0.435513 0.214078 0.874368 0.133825
H8    H     H_    0.386565 0.340665 0.136640 0.223564
H9    H     H_    0.156147 0.462954 0.726203 0.167291
H10   H     H_    0.449242 0.208236 0.113838 0.179528
H11   H     H_    0.148401 0.428511 0.290765 0.152751
H12   H     H_    0.700519 0.330877 0.640506 0.170963
H13   H     H_    0.431318 0.110537 0.326255 0.151470
N1    N     N_R   0.033137 0.378425 0.400162 -0.162087
N2    N     N_R   0.963509 0.377471 0.398688 -0.142395
N3    N     N_R   0.962396 0.440476 0.627201 -0.121612
N4    N     N_R   0.032044 0.441294 0.628584 -0.156884
N5    N     N_R   0.499530 0.499140 0.142800 -0.096793
N6    N     N_R   0.499530 0.499180 0.857150 -0.102279
O1    O     O_R   0.500010 0.316790 0.614690 -0.637817
O2    O     O_R   0.500000 0.316760 0.385350 -0.626062
O3    O     O_R   0.398140 0.500000 0.614710 -0.604576
O4    O     O_R   0.398130 0.499970 0.385370 -0.579377
O5    O     O_R   0.500000 0.683240 0.614650 -0.603708
O6    O     O_R   0.499990 0.683210 0.385310 -0.622579
O7    O     O_R   0.601870 0.500030 0.614630 -0.626201
O8    O     O_R   0.601860 0.500000 0.385290 -0.588896
Zn1   Zn    Zn3+2 0.500000 0.500020 0.653130 0.983276
Zn2   Zn    Zn3+2 0.500000 0.499980 0.346870 1.001301
C33   C     C_2   0.499142 0.918112 0.826496 0.390894
H14   H     H_    0.505751 0.929582 0.935268 0.080302
O9    O     O_2   0.441780 0.886682 0.781618 -0.545154
C34   C     C_2   0.625645 0.872021 0.770604 0.372500
H15   H     H_    0.642616 0.793564 0.707101 0.086698
O10   O     O_2   0.658403 0.898926 0.873606 -0.523532
C35   C     C_2   0.359736 0.367279 0.878999 0.490644
H16   H     H_    0.326965 0.319673 0.803915 0.045007
O11   O     O_2   0.341984 0.469079 0.925960 -0.558749
C36   C     C_2   0.275776 0.502258 0.238089 0.449167
H17   H     H_    0.259815 0.441220 0.154076 0.073913
O12   O     O_2   0.311497 0.594894 0.215336 -0.502196
I1    I     I_    0.840909 0.213108 0.705063 -0.239429
I2    I     I_    0.713001 0.715548 0.320154 -0.233085
C37   C     C_2   0.876805 0.606003 0.340008 0.499997
H18   H     H_    0.928643 0.628407 0.379590 0.062765
O13   O     O_2   0.861865 0.639514 0.226283 -0.493827

loop_
_geom_bond_atom_site_label_1
_geom_bond_atom_site_label_2
_ccdc_geom_bond_type
C8    C9    A    
C2    C12   S    
C7    C8    A    
O3    Zn1   S    
C18   C34   S    
C11   C19   S    
C33   H14   S    
C31   H11   S    
C28   C29   A    
C37   O13   D    
C19   H4    S    
C30   C31   A    
O7    Zn1   S    
C15   C16   A    
C22   H6    S    
C3    N3    A    
C7    C27   S    
C2    C32   A    
C18   C19   S    
C5    I1    S    
C19   H3    S    
C1    O2    A    
C20   N5    A    
O1    Zn1   S    
O2    Zn2   S    
C20   C24   A    
C16   C17   A    
C34   O10   D    
C33   O9    D    
C9    C37   S    
C32   C36   S    
C9    C10   A    
C15   H2    S    
C24   N6    A    
C6    H12   S    
C21   C22   A    
C25   C35   S    
C21   N5    A    
C14   H13   S    
O8    Zn2   S    
C23   O5    A    
C37   H18   S    
C36   O12   D    
C35   H16   S    
C4    N1    A    
C25   C26   S    
C8    I2    S    
O5    Zn1   S    
C29   C30   A    
C31   C32   A    
C17   C18   S    
C24   C25   S    
N3    N4    A    
C28   H1    S    
C16   C23   S    
C1    C13   S    
C26   H10   S    
C23   O6    A    
N1    N2    A    
C11   C17   A    
C29   H9    S    
C18   C33   S    
C27   O7    A    
O6    Zn2   S    
C6    C7    A    
C4    N4    A    
C36   H17   S    
C3    C10   S    
C27   O8    A    
C25   H7    S    
C11   C13   A    
C26   H8    S    
C5    C6    A    
C20   C26   S    
O4    Zn2   S    
C3    N2    A    
C1    O1    A    
C4    C30   S    
C12   O4    A    
C5    C10   A    
C21   H5    S    
C35   O11   D    
C34   H15   S    
N5    Zn2   S    
C14   C15   A    
C2    C28   A    
N6    Zn1   S    
C13   C14   A    
C12   O3    A    
C22   N6    A    
