data_mof_unit_52930.cif
_audit_creation_date              2012-12-10T17:49:39-0500
_audit_creation_method            fapswitch 2.2
_symmetry_space_group_name_H-M    P1
_symmetry_Int_Tables_number       1
_space_group_crystal_system       triclinic
_cell_length_a                    14.722232
_cell_length_b                    14.804433
_cell_length_c                    15.878842
_cell_angle_alpha                 75.772828
_cell_angle_beta                  102.839606
_cell_angle_gamma                 116.013134
_cell_volume                      2988.73328673

loop_
_atom_site_label
_atom_site_type_symbol
_atom_type_description
_atom_site_fract_x
_atom_site_fract_y
_atom_site_fract_z
_atom_type_partial_charge
C1    C     C_R   0.879720 0.312018 0.512672 0.846469
C2    C     C_3   0.985512 0.395824 0.069438 -0.421766
C3    C     C_3   0.995060 0.500648 0.081798 0.058393
C4    C     C_3   0.096762 0.582703 0.050053 -0.449014
C5    C     C_3   0.098634 0.580761 0.953278 0.191348
C6    C     C_1   0.997929 0.499906 0.174883 0.060816
C7    C     C_1   0.997698 0.499897 0.824185 0.075729
C8    C     C_1   0.999145 0.499619 0.749045 -0.052966
C9    C     C_R   0.811715 0.204216 0.509838 -0.076101
C10   C     C_R   0.189575 0.796371 0.464205 -0.105340
C11   C     C_R   0.784482 0.028164 0.520355 -0.171313
C12   C     C_R   0.999793 0.499771 0.659571 0.866884
C13   C     C_R   0.850293 0.129094 0.527223 -0.147003
C14   C     C_R   0.707295 0.177366 0.483550 -0.149735
C15   C     C_R   0.641573 0.078673 0.468242 0.122587
C16   C     C_R   0.680012 0.002021 0.493042 0.150268
C17   C     C_R   0.536514 0.052261 0.436655 -0.077160
C18   C     C_R   0.468784 0.948869 0.456118 0.055261
C19   C     C_R   0.508471 0.873630 0.476098 -0.089571
C20   C     C_R   0.613054 0.900237 0.492041 -0.200135
C21   C     C_R   0.496949 0.122860 0.383436 0.190885
C22   C     C_R   0.390858 0.093737 0.364422 0.354222
C23   C     C_R   0.120534 0.688091 0.484974 0.827179
C24   C     C_R   0.323574 0.994678 0.397734 -0.032550
C25   C     C_R   0.362961 0.923071 0.447997 -0.042320
C26   C     C_R   0.217232 0.964454 0.380008 -0.089836
C27   C     C_R   0.151375 0.865308 0.409795 -0.248220
C28   C     C_R   0.295225 0.828943 0.490294 0.328356
C29   C     C_R   0.713828 0.660065 0.342169 -0.273603
C30   C     C_R   0.795793 0.631833 0.370627 0.069005
C31   C     C_R   0.716826 0.519212 0.493885 0.393119
C32   C     C_R   0.637106 0.554930 0.473039 -0.060023
C33   C     C_R   0.632989 0.619913 0.391934 0.117682
C34   C     C_R   0.000030 0.500062 0.340410 0.795093
C35   C     C_R   0.558033 0.523909 0.526153 0.074320
C36   C     C_R   0.465516 0.536349 0.489337 0.097407
C37   C     C_R   0.462673 0.597124 0.405908 -0.211945
C38   C     C_R   0.546914 0.641829 0.360112 -0.150514
C39   C     C_R   0.570726 0.486890 0.616451 -0.141964
C40   C     C_R   0.487951 0.436204 0.662902 -0.101891
C41   C     C_R   0.391908 0.431177 0.622993 0.070228
C42   C     C_R   0.380297 0.487578 0.538330 -0.009278
C43   C     C_R   0.308124 0.373071 0.668581 -0.281249
C44   C     C_R   0.213992 0.375734 0.633284 0.573804
C45   C     C_3   0.981042 0.394610 0.971413 -0.423152
C46   C     C_R   0.283914 0.492310 0.508005 -0.005688
C47   C     C_3   0.906305 0.526848 0.924856 0.070457
C48   C     C_3   0.903128 0.523056 0.024347 0.628900
C49   C     C_1   0.999522 0.499778 0.250757 -0.096825
C50   C     C_3   0.995345 0.500822 0.915797 0.033010
Cu1   Cu    Cu3+1 0.081750 0.475690 0.522550 1.029818
Cu2   Cu    Cu3+1 0.918250 0.524310 0.477450 1.022440
H1    H     H_    0.916513 0.332759 0.095223 0.238328
H2    H     H_    0.041725 0.372789 0.963637 0.201631
H3    H     H_    0.052171 0.380765 0.107471 0.200977
H4    H     H_    0.107882 0.659424 0.058383 0.256877
H5    H     H_    0.641097 0.840677 0.507918 0.152480
H6    H     H_    0.070209 0.842532 0.389671 0.173864
H7    H     H_    0.815006 0.970452 0.537220 0.154041
H8    H     H_    0.930903 0.147948 0.547239 0.193254
H9    H     H_    0.676804 0.233220 0.477783 0.215801
H10   H     H_    0.906766 0.335368 0.948412 0.249560
H11   H     H_    0.458974 0.793823 0.476548 0.173335
H12   H     H_    0.183593 0.015441 0.340197 0.202897
H13   H     H_    0.542840 0.690458 0.297305 0.157744
H14   H     H_    0.271327 0.540358 0.447690 0.135082
H15   H     H_    0.499422 0.401612 0.730757 0.188269
H16   H     H_    0.713418 0.712650 0.281205 0.168606
H17   H     H_    0.858796 0.664517 0.332642 0.153196
H18   H     H_    0.921486 0.605596 0.889027 0.201721
H19   H     H_    0.397081 0.613231 0.375267 0.133985
H20   H     H_    0.645099 0.497530 0.652415 0.205163
H21   H     H_    0.316015 0.326750 0.731983 0.191867
H22   H     H_    0.160941 0.558394 0.950939 0.161003
H23   H     H_    0.162116 0.567873 0.091531 0.175642
N1    N     N_R   0.795410 0.560790 0.443550 -0.199002
N2    N     N_R   0.204590 0.439170 0.556520 -0.212627
O1    O     O_R   0.977910 0.338120 0.529720 -0.552450
O2    O     O_R   0.839850 0.379180 0.491640 -0.538301
O3    O     O_R   0.069060 0.479460 0.639610 -0.525428
O4    O     O_R   0.931000 0.520530 0.601530 -0.551516
O5    O     O_R   0.160150 0.620820 0.508360 -0.545693
O6    O     O_R   0.022090 0.661880 0.470280 -0.602550
O7    O     O_R   0.069000 0.479470 0.398470 -0.600899
O8    O     O_R   0.930940 0.520540 0.360390 -0.557263
Cl1   Cl    Cl    0.338858 0.763933 0.589383 -0.567784
Cl2   Cl    Cl    0.343163 0.183168 0.298774 -0.523958
Br1   Br    Br    0.582484 0.248577 0.315742 -0.350096
Cl3   Cl    Cl    0.110424 0.298730 0.692147 -0.574647
Br2   Br    Br    0.703784 0.397021 0.578902 -0.464430
Br3   Br    Br    0.776044 0.444972 0.861040 -0.396688
Cl4   Cl    Cl    0.785144 0.429200 0.062601 -0.450255
Cl5   Cl    Cl    0.910143 0.643228 0.037765 -0.529692
Cl6   Cl    Cl    0.130335 0.706417 0.889348 -0.536559

loop_
_geom_bond_atom_site_label_1
_geom_bond_atom_site_label_2
_ccdc_geom_bond_type
C10   C27   A    
C43   H21   S    
C23   O5    A    
C41   C42   A    
C45   H10   S    
C36   C42   A    
C19   C20   A    
C9    C14   A    
C3    C6    S    
C5    Cl6   S    
C7    C8    T    
C13   H8    S    
C25   C28   A    
C26   C27   A    
C29   C30   A    
C23   O6    A    
C36   C37   A    
C24   C26   A    
C46   H14   S    
C2    H3    S    
C15   C16   A    
C29   C33   A    
C3    C48   S    
C18   C19   A    
C42   C46   A    
C5    H22   S    
C9    C13   A    
Cu1   O3    S    
C4    H23   S    
C26   H12   S    
C47   C48   S    
C19   H11   S    
C40   H15   S    
C39   H20   S    
Cu2   O2    S    
C16   C20   A    
C21   Br1   S    
C21   C22   A    
C4    H4    S    
C1    O1    A    
C41   C43   A    
C18   C25   A    
C34   O7    A    
C11   H7    S    
C47   C50   S    
C2    C45   S    
C48   Cl5   S    
Cu1   Cu2   S    
C32   C35   A    
C1    C9    S    
C24   C25   A    
C39   C40   A    
C14   H9    S    
C2    H1    S    
C17   C21   A    
C34   O8    A    
Cu2   O6    S    
C35   C39   A    
C43   C44   A    
Cu1   N2    S    
C47   H18   S    
C37   C38   A    
C29   H16   S    
C30   N1    A    
C11   C16   A    
C31   C32   A    
C38   H13   S    
C8    C12   S    
C31   Br2   S    
C17   C18   A    
C22   Cl2   S    
Cu1   O5    S    
C40   C41   A    
C45   H2    S    
C37   H19   S    
C28   Cl1   S    
C1    O2    A    
C22   C24   A    
C5    C50   S    
C3    C4    S    
C30   H17   S    
C10   C28   A    
C15   C17   A    
Cu2   O8    S    
C34   C49   S    
C47   Br3   S    
C7    C50   S    
C4    C5    S    
Cu2   N1    S    
C27   H6    S    
C46   N2    A    
C10   C23   S    
C44   N2    A    
C33   C38   A    
C32   C33   A    
C2    C3    S    
Cu1   O1    S    
C11   C13   A    
C31   N1    A    
C45   C50   S    
C12   O3    A    
C12   O4    A    
C6    C49   T    
Cu2   O4    S    
C48   Cl4   S    
C14   C15   A    
C35   C36   A    
C20   H5    S    
Cu1   O7    S    
C44   Cl3   S    
