data_mof_unit_42588.cif
_audit_creation_date              2012-12-11T20:41:18-0500
_audit_creation_method            fapswitch 2.2
_symmetry_space_group_name_H-M    P1
_symmetry_Int_Tables_number       1
_space_group_crystal_system       triclinic
_cell_length_a                    8.279468
_cell_length_b                    18.936315
_cell_length_c                    26.873254
_cell_angle_alpha                 97.141023
_cell_angle_beta                  92.371421
_cell_angle_gamma                 86.142357
_cell_volume                      4168.78566449

loop_
_atom_site_label
_atom_site_type_symbol
_atom_type_description
_atom_site_fract_x
_atom_site_fract_y
_atom_site_fract_z
_atom_type_partial_charge
Ba1   Ba    Ba6+2 0.852670 0.466460 0.522850 1.722899
Ba2   Ba    Ba6+2 0.337150 0.533490 0.477140 1.684395
C1    C     C_3   0.713592 0.212005 0.671113 -0.210630
C2    C     C_R   0.855456 0.552686 0.175835 0.574541
C3    C     C_2   0.728421 0.508362 0.271035 -0.029944
C4    C     C_3   0.143486 0.250897 0.655161 0.318082
C5    C     C_3   0.687270 0.505317 0.325461 0.006344
C6    C     C_1   0.976675 0.486308 0.342992 0.082436
C7    C     C_2   0.015076 0.490006 0.295939 -0.088960
C8    C     C_2   0.884552 0.500463 0.256362 0.195899
C9    C     C_R   0.003896 0.500128 0.102150 -0.081836
C10   C     C_R   0.078601 0.449119 0.130977 -0.041117
C11   C     C_R   0.196087 0.399457 0.108835 -0.040278
C12   C     C_3   0.674353 0.277511 0.643318 0.307859
C13   C     C_R   0.892328 0.552425 0.124805 -0.032584
C14   C     C_2   0.835939 0.513203 0.359627 -0.288059
C15   C     C_2   0.325413 0.468036 0.635589 -0.213772
C16   C     C_3   0.154751 0.172593 0.666756 -0.211872
C17   C     C_R   0.217782 0.457807 0.980479 0.012391
C18   C     C_R   0.977392 0.538020 0.967172 -0.014605
C19   C     C_R   0.117889 0.498066 0.948370 0.053495
C20   C     C_R   0.365686 0.425356 0.962333 -0.063270
C21   C     C_R   0.412372 0.430965 0.913950 0.003099
C22   C     C_R   0.309666 0.465776 0.880669 -0.032174
C23   C     C_3   0.526447 0.629403 0.629612 0.303750
C24   C     C_R   0.159409 0.497613 0.897250 -0.070939
C25   C     C_R   0.052197 0.528618 0.862762 -0.064528
C26   C     C_R   0.091013 0.517983 0.810716 0.613949
C27   C     C_R   0.355737 0.469288 0.831123 0.650743
C28   C     C_3   0.184204 0.320736 0.421588 0.228892
C29   C     C_2   0.385172 0.428287 0.721047 -0.045099
C30   C     C_3   0.417953 0.416569 0.665424 -0.080578
C31   C     C_1   0.216476 0.514890 0.656468 0.045473
C32   C     C_2   0.204885 0.531517 0.705747 -0.086515
C33   C     C_2   0.283803 0.483035 0.741481 0.212726
C34   C     C_3   0.530088 0.644073 0.686571 -0.326238
C35   C     C_R   0.168342 0.452184 0.029915 0.024769
C36   C     C_R   0.041913 0.499221 0.050625 0.058230
C37   C     C_R   0.955662 0.546508 0.020531 0.036675
C38   C     C_R   0.242027 0.401626 0.059675 -0.090851
C39   C     C_R   0.824512 0.605016 0.096360 -0.039344
C40   C     C_3   0.239902 0.241784 0.409717 -0.236696
C41   C     C_R   0.865269 0.567257 0.931987 -0.090958
C42   C     C_R   0.905168 0.564701 0.880657 -0.063175
C43   C     C_R   0.857856 0.602815 0.045656 -0.058116
C44   C     C_2   0.424353 0.305377 0.527445 -0.264593
C45   C     C_3   0.012595 0.686027 0.345325 0.314734
C46   C     C_3   0.341117 0.258385 0.558153 -0.044451
C47   C     C_2   0.386101 0.179721 0.545678 -0.118015
C48   C     C_2   0.514244 0.156961 0.516968 -0.050095
C49   C     C_2   0.599571 0.210960 0.493515 -0.087777
C50   C     C_1   0.543081 0.278874 0.497986 0.078207
C51   C     C_R   0.677724 0.939484 0.504156 0.506866
C52   C     C_3   0.013675 0.684192 0.585519 0.298177
C53   C     C_R   0.573983 0.080341 0.511955 0.477537
C54   C     C_R   0.622331 0.812391 0.518541 -0.097346
C55   C     C_R   0.668841 0.738587 0.512971 -0.016263
C56   C     C_3   0.010748 0.701480 0.291191 -0.285512
C57   C     C_R   0.904182 0.758878 0.467210 0.000803
C58   C     C_R   0.861575 0.832579 0.472706 -0.100873
C59   C     C_R   0.719894 0.860527 0.498039 -0.069901
C60   C     C_R   0.804290 0.712834 0.485706 -0.277209
C61   C     C_3   0.011538 0.764496 0.600296 -0.342398
C62   C     C_3   0.639987 0.338725 0.357778 0.247102
C63   C     C_3   0.494137 0.331313 0.320172 -0.260964
C64   C     C_2   0.107542 0.196310 0.387594 0.976099
C65   C     C_2   0.786760 0.304708 0.330795 0.909700
C66   C     C_2   0.764313 0.144718 0.637799 0.842877
C67   C     C_3   0.534995 0.713676 0.359717 0.214368
C68   C     C_2   0.505325 0.367911 0.273945 0.829426
C69   C     C_2   0.305430 0.152195 0.695923 0.845321
C70   C     C_2   0.569618 0.846778 0.373451 0.833967
C71   C     C_2   0.088045 0.303289 0.699005 0.888859
C72   C     C_2   0.433716 0.793192 0.295085 0.911341
C73   C     C_2   0.697730 0.592571 0.946733 0.874089
C74   C     C_2   0.794988 0.602934 0.846362 1.013777
C75   C     C_2   0.469513 0.838014 0.543802 0.925712
C76   C     C_3   0.561050 0.781208 0.335403 -0.284441
C77   C     C_R   0.033934 0.448535 0.181222 0.630749
H1    H     H_    0.724488 0.270766 0.605259 0.117660
H2    H     H_    0.605586 0.202542 0.691658 0.089482
H3    H     H_    0.402788 0.615676 0.616254 -0.010320
H4    H     H_    0.613762 0.583544 0.618841 0.067443
H5    H     H_    0.437423 0.687169 0.698858 0.134993
H6    H     H_    0.504469 0.595194 0.702918 0.075458
H7    H     H_    0.651699 0.660479 0.700598 0.145968
H8    H     H_    0.809656 0.223054 0.700357 0.118859
H9    H     H_    0.067514 0.631159 0.346519 0.042938
H10   H     H_    0.885716 0.689082 0.357674 -0.037072
H11   H     H_    0.134293 0.691562 0.276213 0.141976
H12   H     H_    0.340726 0.236364 0.383356 0.111034
H13   H     H_    0.928323 0.665817 0.268207 0.117695
H14   H     H_    0.967473 0.757726 0.288583 0.172610
H15   H     H_    0.621939 0.710837 0.392149 -0.014451
H16   H     H_    0.409742 0.715316 0.373086 0.101171
H17   H     H_    0.679771 0.772361 0.316937 0.104874
H18   H     H_    0.140483 0.486134 0.285911 0.173613
H19   H     H_    0.255277 0.359134 0.129792 0.137213
H20   H     H_    0.434289 0.386906 0.742802 0.128439
H21   H     H_    0.451788 0.398143 0.985769 0.088303
H22   H     H_    0.629865 0.512731 0.243474 0.128409
H23   H     H_    0.285466 0.220791 0.444605 -0.005662
H24   H     H_    0.745379 0.648529 0.113275 0.139414
H25   H     H_    0.266210 0.265701 0.647475 -0.186963
H26   H     H_    0.148700 0.582986 0.720260 0.118619
H27   H     H_    0.810315 0.647511 0.027114 0.095835
H28   H     H_    0.357153 0.467301 0.596769 0.052993
H29   H     H_    0.322169 0.142289 0.563723 0.102520
H30   H     H_    0.707738 0.193998 0.472604 0.163013
H31   H     H_    0.050142 0.161579 0.688217 0.081166
H32   H     H_    0.837628 0.656199 0.481279 0.056285
H33   H     H_    0.150326 0.136529 0.630900 0.098730
H34   H     H_    0.889230 0.668565 0.576053 -0.006501
H35   H     H_    0.289243 0.349795 0.437916 -0.006042
H36   H     H_    0.030993 0.127057 0.329648 0.355320
H37   H     H_    0.970531 0.315812 0.286076 0.356635
H38   H     H_    0.655936 0.395218 0.372335 -0.087277
H39   H     H_    0.859964 0.098810 0.572887 0.319377
H40   H     H_    0.477367 0.273925 0.307789 0.114742
H41   H     H_    0.609795 0.369774 0.207657 0.314975
H42   H     H_    0.540568 0.283205 0.638755 -0.091602
H43   H     H_    0.496316 0.081526 0.701243 0.351737
H44   H     H_    0.349601 0.837840 0.401508 0.324919
H45   H     H_    0.091178 0.669798 0.552624 0.065643
H46   H     H_    0.006440 0.403880 0.722216 0.345981
H47   H     H_    0.382346 0.794451 0.221183 0.324217
H48   H     H_    0.528957 0.406383 0.902320 0.134235
H49   H     H_    0.332122 0.361325 0.045149 0.082420
H50   H     H_    0.496164 0.573125 0.981036 0.314866
H51   H     H_    0.765351 0.681404 0.801871 0.319024
H52   H     H_    0.826903 0.540349 0.397578 0.061452
H53   H     H_    0.250045 0.890484 0.539347 0.311223
H54   H     H_    0.940051 0.868033 0.458092 0.133643
H55   H     H_    0.396098 0.362381 0.534369 0.066189
H56   H     H_    0.929225 0.780503 0.631896 0.146904
H57   H     H_    0.089406 0.326616 0.449811 0.101473
H58   H     H_    0.969057 0.793235 0.568362 0.050902
H59   H     H_    0.135559 0.780259 0.612009 0.163880
H60   H     H_    0.384068 0.351972 0.339727 0.123054
N1    N     N_R   0.924647 0.500541 0.203669 -0.433667
N2    N     N_R   0.244052 0.491150 0.795212 -0.425099
N3    N     N_R   0.591794 0.970645 0.543884 -0.204158
N4    N     N_R   0.540223 0.039099 0.547558 -0.194769
N5    N     N_R   0.666579 0.050432 0.473220 -0.200095
N6    N     N_R   0.716777 0.981358 0.469295 -0.163430
O1    O     O_2   0.914730 0.537460 0.618690 -0.441023
O2    O     O_2   0.245239 0.750895 0.464413 -0.468005
O3    O     O_3   0.104229 0.735736 0.375489 -0.570963
O4    O     O_3   0.146720 0.537410 0.558510 -0.502819
O5    O     O_3   0.553920 0.415280 0.473710 -0.495513
O6    O     O_2   0.383540 0.672140 0.526840 -0.460189
O7    O     O_3   0.568730 0.690559 0.609886 -0.595731
O8    O     O_2   0.357502 0.558548 0.327749 -0.469890
O9    O     O_3   0.564149 0.654442 0.323616 -0.594260
O10   O     O_2   0.090902 0.400911 0.204689 -0.551381
O11   O     O_2   0.496253 0.452993 0.820232 -0.552943
O12   O     O_3   0.610054 0.297914 0.396183 -0.638658
O13   O     O_2   0.762430 0.599815 0.195486 -0.578376
O14   O     O_2   0.985818 0.529774 0.779168 -0.571471
O15   O     O_3   0.666360 0.409390 0.586570 -0.487482
O16   O     O_2   0.725653 0.478150 0.677774 -0.432593
O17   O     O_3   0.073933 0.651129 0.626574 -0.633302
O18   O     O_3   0.737646 0.337974 0.671399 -0.554540
O19   O     O_2   0.806150 0.327840 0.473120 -0.454725
O20   O     O_3   0.073640 0.373350 0.561550 -0.456886
O21   O     O_2   0.022996 0.244241 0.516581 -0.444203
O22   O     O_2   0.988169 0.190779 0.411779 -0.559246
O23   O     O_3   0.029203 0.257031 0.614882 -0.578267
O24   O     O_R   0.124687 0.158129 0.339947 -0.706878
O25   O     O_2   0.813042 0.240025 0.327036 -0.544037
O26   O     O_R   0.881104 0.345458 0.305075 -0.771124
O27   O     O_2   0.767257 0.087567 0.654624 -0.562704
O28   O     O_R   0.817834 0.147200 0.589436 -0.753252
O29   O     O_2   0.411876 0.418816 0.267326 -0.602509
O30   O     O_R   0.615730 0.341156 0.237233 -0.709643
O31   O     O_2   0.336635 0.184409 0.737132 -0.561820
O32   O     O_R   0.405188 0.093526 0.676753 -0.717368
O33   O     O_2   0.689052 0.881583 0.375425 -0.532493
O34   O     O_2   0.274960 0.462520 0.381280 -0.475016
O35   O     O_R   0.443751 0.869642 0.405935 -0.673896
O36   O     O_2   0.071919 0.284664 0.740418 -0.588001
O37   O     O_R   0.051908 0.374239 0.691370 -0.728923
O38   O     O_2   0.293189 0.809833 0.305980 -0.596227
O39   O     O_R   0.477695 0.785378 0.244949 -0.702034
O40   O     O_2   0.640855 0.651083 0.937643 -0.580083
O41   O     O_R   0.606943 0.549878 0.972281 -0.760922
O42   O     O_2   0.657555 0.584245 0.836711 -0.558835
O43   O     O_R   0.850245 0.659997 0.824860 -0.716307
O44   O     O_2   0.450406 0.827139 0.586992 -0.592210
O45   O     O_3   0.042980 0.462530 0.441480 -0.494982
O46   O     O_R   0.348542 0.875963 0.518360 -0.697882
O47   O     O_3   0.523340 0.590550 0.413420 -0.482126
O48   O     O_3   0.124501 0.348034 0.377731 -0.626754
O49   O     O_3   0.635780 0.584660 0.526290 -0.489600
O50   O     O_3   0.116060 0.626590 0.438450 -0.496584
P1    P     P_3+3 0.084800 0.558370 0.611580 1.014596
P2    P     P_3+3 0.628800 0.338360 0.458800 1.009377
P3    P     P_3+3 0.118155 0.281824 0.561973 1.015485
P4    P     P_3+3 0.104900 0.441570 0.388420 1.023951
P5    P     P_3+3 0.092721 0.719203 0.437779 0.963462
P6    P     P_3+3 0.637343 0.413653 0.651037 1.016875
P7    P     P_3+3 0.566624 0.673225 0.544330 0.988623
P8    P     P_3+3 0.529985 0.575339 0.347964 1.005515

loop_
_geom_bond_atom_site_label_1
_geom_bond_atom_site_label_2
_ccdc_geom_bond_type
Ba2   O5    S    
H43   O32   S    
C19   C24   A    
C52   H34   S    
C45   H10   S    
C64   O24   S    
H47   O39   S    
C1    C66   S    
C70   O33   D    
H36   O24   S    
C56   H13   S    
O9    P8    S    
C67   C76   S    
C55   C60   A    
C54   C55   A    
C24   C25   A    
O23   P3    S    
C64   O22   D    
C23   O7    S    
O16   P6    D    
C17   C19   A    
C56   H14   S    
Ba2   O47   S    
C32   C33   S    
C35   C38   A    
C15   H28   S    
O4    P1    S    
C28   H35   S    
C36   C37   A    
H51   O43   S    
C28   O48   S    
C44   H55   S    
C52   C61   S    
C63   C68   S    
O49   P7    S    
C10   C77   A    
C44   C50   D    
Ba2   O6    S    
C71   O36   D    
C69   O31   D    
Ba1   Ba2   S    
C6    C14   D    
C11   H19   S    
C42   C74   S    
C14   H52   S    
C22   C27   A    
C11   C38   A    
C5    P8    S    
C17   C35   A    
C9    C13   A    
C25   C42   A    
C2    O13   D    
C60   H32   S    
C31   P1    S    
C76   H17   S    
C6    C7    D    
C62   O12   S    
C1    H2    S    
C70   C76   S    
C21   C22   A    
Ba1   O4    S    
C4    H25   S    
C68   O30   S    
O5    P2    S    
C74   O43   S    
O19   P2    D    
C37   C43   A    
Ba1   O45   S    
Ba2   O4    S    
C77   N1    Am   
C57   C58   A    
C49   H30   S    
C12   H42   S    
H50   O41   S    
C61   H58   S    
O7    P7    S    
Ba1   O1    S    
C73   O40   D    
C15   C31   D    
C40   H23   S    
O45   P4    S    
C48   C49   S    
C47   H29   S    
C4    O23   S    
C65   O25   D    
C41   C73   S    
C4    C16   S    
C44   C46   S    
C53   N4    A    
C1    H8    S    
C49   C50   D    
C75   O46   S    
C62   C65   S    
Ba2   O45   S    
C17   C20   A    
C20   H21   S    
Ba1   O19   S    
C67   H15   S    
O15   P6    S    
C3    C5    S    
C18   C37   A    
O3    P5    S    
C72   O38   D    
C34   H7    S    
O48   P4    S    
C26   O14   D    
C62   H38   S    
Ba2   P4    S    
H37   O26   S    
C46   P3    S    
C58   C59   A    
Ba2   O49   S    
C61   H56   S    
C55   P7    S    
C9    C36   A    
C41   C42   A    
O21   P3    D    
C35   C36   A    
C2    N1    Am   
C56   H11   S    
H41   O30   S    
C29   C30   S    
Ba1   O20   S    
C57   P5    S    
C51   N3    A    
C27   N2    Am   
Ba1   P1    S    
C51   N6    A    
C31   C32   D    
C63   H40   S    
Ba1   O5    S    
C54   C59   A    
C52   O17   S    
C68   O29   D    
H53   O46   S    
C13   C39   A    
C74   O42   D    
C33   N2    S    
C27   O11   D    
C46   C47   S    
C29   H20   S    
C12   H1    S    
C8    N1    S    
C23   H3    S    
C61   H59   S    
C29   C33   D    
C73   O41   S    
Ba2   O34   S    
C70   O35   S    
O6    P7    D    
C51   C59   S    
C18   C41   A    
C43   H27   S    
C4    C71   S    
O18   P6    S    
O50   P5    S    
C7    C8    S    
C16   C69   S    
C52   H45   S    
C45   O3    S    
C5    C14   S    
C57   C60   A    
C7    H18   S    
C53   N5    A    
H46   O37   S    
N3    N4    A    
C32   H26   S    
Ba1   O15   S    
Ba1   P2    S    
C16   H31   S    
C16   H33   S    
H44   O35   S    
C67   H16   S    
C12   O18   S    
C66   O28   S    
Ba2   O50   S    
C1    C12   S    
C34   H6    S    
C50   P2    S    
C21   H48   S    
C28   H57   S    
C48   C53   S    
H39   O28   S    
C3    H22   S    
N5    N6    A    
C65   O26   S    
C45   H9    S    
C69   O32   S    
C2    C13   A    
Ba1   O49   S    
C75   O44   D    
C3    C8    D    
O20   P3    S    
C62   C63   S    
C45   C56   S    
O2    P5    D    
C71   O37   S    
C66   O27   D    
C22   C24   A    
O34   P4    D    
C34   H5    S    
C30   P6    S    
C40   C64   S    
O47   P8    S    
O12   P2    S    
C54   C75   S    
C23   C34   S    
C77   O10   D    
C63   H60   S    
C39   H24   S    
C72   O39   S    
C10   C11   A    
C18   C19   A    
C47   C48   D    
C72   C76   S    
O17   P1    S    
C25   C26   A    
C23   H4    S    
C15   C30   S    
C39   C43   A    
C20   C21   A    
C28   C40   S    
C67   O9    S    
C26   N2    Am   
O1    P1    D    
C58   H54   S    
C6    P4    S    
C40   H12   S    
C9    C10   A    
O8    P8    D    
C38   H49   S    
