data_mof_unit_51689.cif
_audit_creation_date              2012-12-10T18:10:46-0500
_audit_creation_method            fapswitch 2.2
_symmetry_space_group_name_H-M    P1
_symmetry_Int_Tables_number       1
_space_group_crystal_system       triclinic
_cell_length_a                    12.624017
_cell_length_b                    13.102367
_cell_length_c                    15.722231
_cell_angle_alpha                 91.033687
_cell_angle_beta                  102.93738
_cell_angle_gamma                 81.950626
_cell_volume                      2509.30497683

loop_
_atom_site_label
_atom_site_type_symbol
_atom_type_description
_atom_site_fract_x
_atom_site_fract_y
_atom_site_fract_z
_atom_type_partial_charge
C1    C     C_R   0.438418 0.691486 0.492206 0.931186
C2    C     C_3   0.377194 0.523266 0.025324 0.410377
C3    C     C_3   0.496213 0.500761 0.081787 0.270244
C4    C     C_3   0.549928 0.393770 0.057452 -0.504882
C5    C     C_3   0.552572 0.392782 0.959815 -0.422605
C6    C     C_1   0.495078 0.500518 0.173272 -0.064781
C7    C     C_1   0.504388 0.498369 0.826482 -0.046115
C8    C     C_1   0.504525 0.497899 0.751093 -0.070438
C9    C     C_R   0.696627 0.066681 0.629058 -0.105703
C10   C     C_R   0.598851 0.199631 0.525750 -0.052004
C11   C     C_R   0.305759 0.832888 0.415753 -0.175769
C12   C     C_R   0.501897 0.498263 0.661598 0.977919
C13   C     C_R   0.283919 0.934491 0.386753 -0.131636
C14   C     C_R   0.356872 0.002940 0.420763 -0.145736
C15   C     C_R   0.449275 0.972190 0.489788 0.045174
C16   C     C_R   0.458826 0.874318 0.529462 -0.036219
C17   C     C_R   0.531242 0.035554 0.521811 0.075609
C18   C     C_R   0.616594 0.003195 0.595586 0.100222
C19   C     C_R   0.614677 0.913285 0.640512 -0.286769
C20   C     C_R   0.531687 0.852826 0.612048 0.382049
C21   C     C_R   0.528941 0.131980 0.484618 -0.219751
C22   C     C_R   0.686718 0.165756 0.595055 -0.204672
C23   C     C_R   0.561369 0.308643 0.509526 0.830725
C24   C     C_R   0.396550 0.801213 0.483810 -0.055999
C25   C     C_R   0.089748 0.343188 0.381598 -0.303963
C26   C     C_R   0.798673 0.631671 0.601331 -0.080757
C27   C     C_R   0.903142 0.660479 0.623666 0.435877
C28   C     C_R   0.984900 0.610576 0.584832 -0.295957
C29   C     C_R   0.962539 0.530655 0.524618 -0.058083
C30   C     C_R   0.855105 0.503376 0.505511 0.209800
C31   C     C_R   0.042081 0.476941 0.482785 0.022808
C32   C     C_R   0.012709 0.397059 0.423422 0.191594
C33   C     C_R   0.906883 0.371425 0.406474 -0.279641
C34   C     C_R   0.498678 0.499928 0.338418 0.880612
C35   C     C_R   0.829358 0.423856 0.447064 -0.168090
C36   C     C_R   0.150371 0.498829 0.497292 -0.041202
C37   C     C_R   0.195233 0.368551 0.398934 0.015858
C38   C     C_3   0.381514 0.523569 0.927406 -0.425079
C39   C     C_3   0.567631 0.582851 0.965015 -0.351682
C40   C     C_3   0.564732 0.583529 0.062660 -0.383168
C41   C     C_1   0.495769 0.500118 0.248840 -0.169131
C42   C     C_3   0.501768 0.499314 0.917535 0.252195
H1    H     H_    0.332225 0.465116 0.892547 0.137113
H2    H     H_    0.332789 0.458810 0.037746 0.051733
H3    H     H_    0.635129 0.375834 0.097514 0.197049
H4    H     H_    0.741688 0.218162 0.627307 0.160804
H5    H     H_    0.672053 0.895269 0.702499 0.197236
H6    H     H_    0.761593 0.042836 0.685706 0.168635
H7    H     H_    0.467812 0.160718 0.427687 0.130013
H8    H     H_    0.255415 0.777860 0.381566 0.154508
H9    H     H_    0.337383 0.079246 0.392267 0.120447
H10   H     H_    0.214035 0.958720 0.333902 0.141214
H11   H     H_    0.344032 0.599870 0.896570 0.230777
H12   H     H_    0.256277 0.327420 0.367628 0.126413
H13   H     H_    0.883778 0.310448 0.361505 0.153363
H14   H     H_    0.068676 0.282023 0.336283 0.143344
H15   H     H_    0.180664 0.557548 0.541087 0.150033
H16   H     H_    0.733854 0.670720 0.629494 0.215984
H17   H     H_    0.064387 0.635822 0.602852 0.195136
H18   H     H_    0.749650 0.400454 0.431449 0.207056
H19   H     H_    0.654297 0.567378 0.958164 0.183813
H20   H     H_    0.532219 0.660116 0.935270 0.218116
H21   H     H_    0.529052 0.661375 0.080417 0.214948
H22   H     H_    0.650061 0.567745 0.102836 0.167774
H23   H     H_    0.506053 0.331708 0.926387 0.182760
H24   H     H_    0.638913 0.373657 0.952773 0.188097
H25   H     H_    0.503110 0.332453 0.071350 0.175049
N1    N     N_R   0.222200 0.444690 0.455710 -0.106755
N2    N     N_R   0.776960 0.554780 0.543830 -0.162762
O1    O     O_R   0.366740 0.627160 0.478850 -0.606013
O2    O     O_R   0.544830 0.662520 0.507140 -0.614606
O3    O     O_R   0.410920 0.482310 0.608710 -0.613173
O4    O     O_R   0.589010 0.517670 0.637000 -0.577048
O5    O     O_R   0.455170 0.337480 0.492860 -0.613699
O6    O     O_R   0.633260 0.372840 0.521150 -0.642914
O7    O     O_R   0.410990 0.482330 0.363000 -0.618092
O8    O     O_R   0.589080 0.517690 0.391290 -0.628703
Zn1   Zn    Zn3+2 0.381090 0.476390 0.481110 0.961683
Zn2   Zn    Zn3+2 0.618910 0.523610 0.518890 0.963551
O9    O     O_3   0.326064 0.620326 0.048011 -0.598685
C43   C     C_3   0.211386 0.621788 0.032958 -0.276133
H26   H     H_    0.190542 0.568848 0.079320 0.152158
H27   H     H_    0.175793 0.601719 0.964412 0.179393
H28   H     H_    0.173284 0.700890 0.044398 0.205881
S1    S     S_3+6 0.501376 0.778316 0.694311 0.014528
O10   O     O_2   0.401372 0.726425 0.661955 -0.297773
O11   O     O_2   0.598442 0.699263 0.730749 -0.332635
O12   O     O_3   0.477407 0.857657 0.775316 -0.517418
H29   H     H_    0.550878 0.867639 0.810147 0.350297
S2    S     S_3+6 0.930513 0.759791 0.698856 0.004786
O13   O     O_2   0.050107 0.745669 0.743665 -0.276593
O14   O     O_2   0.901485 0.861338 0.650501 -0.316622
O15   O     O_3   0.854041 0.758392 0.773621 -0.568494
H30   H     H_    0.867102 0.820549 0.809072 0.372006

loop_
_geom_bond_atom_site_label_1
_geom_bond_atom_site_label_2
_ccdc_geom_bond_type
C33   H13   S    
C5    C42   S    
O15   H30   S    
O1    Zn1   S    
C19   C20   A    
C25   H14   S    
C3    C6    S    
C30   N2    A    
O2    Zn2   S    
C43   H26   S    
C7    C8    T    
S1    O10   D    
C10   C22   A    
C26   C27   A    
C1    O2    A    
C40   H21   S    
C30   C35   A    
C28   C29   A    
O7    Zn1   S    
C38   C42   S    
C34   O8    A    
C19   H5    S    
C9    C22   A    
S1    O12   S    
C15   C16   A    
C37   N1    A    
C11   C24   A    
C27   S2    S    
C18   C19   A    
C7    C42   S    
O3    Zn1   S    
C25   C37   A    
C14   H9    S    
C2    H2    S    
C6    C41   T    
C8    C12   S    
C25   C32   A    
S1    O11   D    
C12   O3    A    
C16   C24   A    
C12   O4    A    
C34   C41   S    
C21   H7    S    
C43   H27   S    
C39   C42   S    
C4    H3    S    
O8    Zn2   S    
C10   C21   A    
N1    Zn1   S    
C39   H19   S    
C5    H23   S    
C36   H15   S    
C39   C40   S    
O9    C43   S    
C17   C21   A    
C35   H18   S    
C29   C30   A    
C13   H10   S    
C2    C38   S    
S2    O14   D    
C31   C32   A    
C16   C20   A    
C20   S1    S    
C17   C18   A    
O4    Zn2   S    
C26   H16   S    
C1    C24   S    
C37   H12   S    
C22   H4    S    
C3    C40   S    
N2    Zn2   S    
C23   O5    A    
C3    C4    S    
C43   H28   S    
S2    O15   S    
C28   H17   S    
C15   C17   A    
C39   H20   S    
C14   C15   A    
C23   O6    A    
C5    H24   S    
C4    H25   S    
C36   N1    A    
C10   C23   S    
C1    O1    A    
C40   H22   S    
C32   C33   A    
C2    C3    S    
C38   H1    S    
C29   C31   A    
C11   H8    S    
C11   C13   A    
S2    O13   D    
C38   H11   S    
C33   C35   A    
C2    O9    S    
C9    C18   A    
C4    C5    S    
O12   H29   S    
C9    H6    S    
O5    Zn1   S    
C27   C28   A    
C26   N2    A    
C31   C36   A    
C13   C14   A    
O6    Zn2   S    
C34   O7    A    
