data_mof_unit_12901.cif
_audit_creation_date              2012-12-10T17:56:45-0500
_audit_creation_method            fapswitch 2.2
_symmetry_space_group_name_H-M    P1
_symmetry_Int_Tables_number       1
_space_group_crystal_system       triclinic
_cell_length_a                    10.831316
_cell_length_b                    9.522548
_cell_length_c                    10.781786
_cell_angle_alpha                 89.972019
_cell_angle_beta                  90.172142
_cell_angle_gamma                 89.953179
_cell_volume                      1112.04649862

loop_
_atom_site_label
_atom_site_type_symbol
_atom_type_description
_atom_site_fract_x
_atom_site_fract_y
_atom_site_fract_z
_atom_type_partial_charge
C1    C     C_R   0.262063 0.500003 0.499901 0.789322
C2    C     C_R   0.737918 0.499939 0.500091 0.762665
C3    C     C_R   0.935976 0.627631 0.499937 -0.200837
C4    C     C_R   0.063703 0.627668 0.499798 -0.186076
C5    C     C_R   0.421708 0.074521 0.424430 -0.021631
C6    C     C_R   0.578345 0.074290 0.575522 -0.020590
C7    C     C_R   0.421710 0.925712 0.424432 -0.020836
C8    C     C_R   0.578354 0.925483 0.575518 -0.020615
C9    C     C_R   0.504195 0.500076 0.262527 0.790248
C10   C     C_R   0.504266 0.500008 0.737490 0.792730
C11   C     C_R   0.700946 0.647620 0.129899 -0.175960
C12   C     C_R   0.701187 0.647083 0.871066 -0.188651
C13   C     C_R   0.792734 0.719125 0.065186 -0.132551
C14   C     C_R   0.792854 0.718854 0.936182 -0.141314
C15   C     C_R   0.605882 0.575765 0.934661 0.099015
C16   C     C_R   0.605790 0.575954 0.065856 0.094925
C17   C     C_R   0.512802 0.500005 0.128878 -0.098431
C18   C     C_R   0.512907 0.499805 0.871179 -0.100548
C19   C     C_R   0.425994 0.420619 0.063771 -0.204694
C20   C     C_R   0.426025 0.420553 0.935852 -0.199848
C21   C     C_R   0.063916 0.372427 0.500015 -0.191282
C22   C     C_R   0.936205 0.372393 0.500157 -0.180913
C23   C     C_R   0.871736 0.499982 0.500090 -0.012934
C24   C     C_R   0.128189 0.500057 0.499875 -0.017824
Cu1   Cu    Cu3+1 0.500000 0.640660 0.500000 0.936031
Cu2   Cu    Cu3+1 0.500000 0.359340 0.500000 0.942052
H1    H     H_    0.112021 0.272647 0.500036 0.147181
H2    H     H_    0.888256 0.272605 0.500312 0.147419
H3    H     H_    0.887836 0.727392 0.499912 0.146252
H4    H     H_    0.111657 0.727452 0.499642 0.147573
H5    H     H_    0.358982 0.869743 0.363882 0.120008
H6    H     H_    0.641141 0.869368 0.636024 0.115285
N1    N     N_R   0.500000 0.852070 0.500000 -0.158250
N2    N     N_R   0.500000 0.147940 0.500000 -0.158096
O1    O     O_R   0.319640 0.618740 0.499990 -0.585781
O2    O     O_R   0.680360 0.618740 0.500010 -0.603184
O3    O     O_R   0.319620 0.381170 0.499990 -0.590434
O4    O     O_R   0.680380 0.381170 0.500010 -0.586593
O5    O     O_R   0.500000 0.618810 0.319650 -0.584642
O6    O     O_R   0.500000 0.618810 0.680350 -0.580504
O7    O     O_R   0.499970 0.381240 0.319640 -0.575964
O8    O     O_R   0.500030 0.381240 0.680360 -0.577666
H7    H     H_    0.355992 0.360928 0.112396 0.144459
H8    H     H_    0.356012 0.360868 0.886875 0.150945
H9    H     H_    0.707147 0.647069 0.229956 0.149266
H10   H     H_    0.707631 0.645943 0.771071 0.138981
H11   H     H_    0.865031 0.773410 0.115408 0.133451
H12   H     H_    0.865241 0.772913 0.886288 0.132215
H13   H     H_    0.358986 0.130671 0.363863 0.116149
H14   H     H_    0.641110 0.130250 0.636044 0.120477

loop_
_geom_bond_atom_site_label_1
_geom_bond_atom_site_label_2
_ccdc_geom_bond_type
C15   C18   A    
C14   H12   S    
Cu2   O3    S    
C10   O8    A    
C11   C13   A    
C11   C16   A    
C2    O4    A    
C3    C23   A    
C19   C20   A    
C12   C15   A    
C1    O3    A    
C5    N2    A    
Cu1   N1    S    
C21   H1    S    
C22   H2    S    
C21   C22   A    
Cu1   O5    S    
C7    N1    A    
C5    H13   S    
Cu1   O1    S    
C9    C17   S    
C13   H11   S    
C20   H8    S    
C10   C18   S    
C18   C20   A    
C8    N1    A    
Cu1   O6    S    
C4    C24   A    
C4    H4    S    
C11   H9    S    
C7    H5    S    
Cu1   O2    S    
C15   C16   A    
C8    H6    S    
C6    N2    A    
C9    O5    A    
C3    H3    S    
Cu2   O8    S    
C1    C24   S    
C12   H10   S    
C21   C24   A    
C2    O2    A    
C2    C23   S    
C5    C7    A    
C1    O1    A    
C22   C23   A    
Cu2   O4    S    
C10   O6    A    
C6    C8    A    
C17   C19   A    
Cu1   Cu2   S    
C13   C14   A    
C9    O7    A    
Cu2   N2    S    
C6    H14   S    
C3    C4    A    
Cu2   O7    S    
C12   C14   A    
C16   C17   A    
C19   H7    S    
