data_mof_unit_39063.cif
_audit_creation_date              2012-12-10T17:19:56-0500
_audit_creation_method            fapswitch 2.2
_symmetry_space_group_name_H-M    P1
_symmetry_Int_Tables_number       1
_space_group_crystal_system       triclinic
_cell_length_a                    9.634864
_cell_length_b                    10.863004
_cell_length_c                    16.039867
_cell_angle_alpha                 83.058751
_cell_angle_beta                  72.187968
_cell_angle_gamma                 89.608409
_cell_volume                      1585.79579876

loop_
_atom_site_label
_atom_site_type_symbol
_atom_type_description
_atom_site_fract_x
_atom_site_fract_y
_atom_site_fract_z
_atom_type_partial_charge
C1    C     C_R   0.996170 0.261589 0.508159 0.854025
C2    C     C_R   0.666440 0.461104 0.905035 0.081179
C3    C     C_R   0.767494 0.426439 0.950433 0.061542
C4    C     C_R   0.518435 0.473066 0.953225 0.019685
C5    C     C_R   0.469599 0.433349 0.045130 0.006727
C6    C     C_R   0.564813 0.363984 0.084027 0.484549
C7    C     C_R   0.716641 0.372017 0.038216 -0.325940
C8    C     C_R   0.420761 0.532688 0.913238 -0.194424
C9    C     C_R   0.274450 0.540660 0.959522 -0.232813
C10   C     C_R   0.224712 0.502666 0.049614 0.116558
C11   C     C_R   0.325700 0.463689 0.094796 0.059616
C12   C     C_R   0.916072 0.503142 0.670833 0.851811
C13   C     C_R   0.078096 0.515840 0.096079 -0.219994
C14   C     C_R   0.032831 0.501104 0.187431 -0.276388
C15   C     C_R   0.285896 0.477369 0.185542 0.281057
C16   C     C_R   0.144397 0.104001 0.622371 0.230682
C17   C     C_R   0.252695 0.039923 0.648531 -0.153046
C18   C     C_R   0.280144 0.919084 0.630524 -0.129359
C19   C     C_R   0.193913 0.859858 0.590916 -0.139193
C20   C     C_R   0.089546 0.925618 0.557998 0.013227
C21   C     C_R   0.077914 0.054486 0.565850 0.068987
C22   C     C_R   0.986216 0.125328 0.525716 -0.149674
C23   C     C_R   0.994524 0.735370 0.510194 0.823650
C24   C     C_R   0.875588 0.064519 0.506308 -0.219829
C25   C     C_R   0.866203 0.936776 0.515822 0.288129
C26   C     C_R   0.985339 0.866778 0.526971 -0.176600
C27   C     C_R   0.707666 0.675272 0.386942 -0.199540
C28   C     C_R   0.669405 0.779030 0.342325 0.438670
C29   C     C_R   0.525280 0.798923 0.353762 -0.342220
C30   C     C_R   0.418770 0.701475 0.390725 0.449861
C31   C     C_R   0.453122 0.595549 0.446349 0.127565
C32   C     C_R   0.603606 0.590034 0.445552 0.131436
C33   C     C_R   0.549826 0.409965 0.548032 -0.054618
C34   C     C_R   0.084877 0.496477 0.329172 0.852792
C35   C     C_R   0.403291 0.408561 0.546524 -0.073304
C36   C     C_R   0.866461 0.494910 0.767819 -0.084578
C37   C     C_R   0.135987 0.489364 0.233276 -0.130040
C38   C     C_R   0.917509 0.447086 0.906589 -0.238310
C39   C     C_R   0.966108 0.491873 0.816233 0.467056
C40   C     C_R   0.717365 0.482545 0.812683 -0.284853
Cu1   Cu    Cu3+1 0.140660 0.499990 0.500010 1.015307
Cu2   Cu    Cu3+1 0.859340 0.500010 0.499990 0.967533
H1    H     H_    0.796032 0.333304 0.068434 0.132665
H2    H     H_    0.999055 0.541664 0.061975 0.151848
H3    H     H_    0.790698 0.116263 0.487823 0.193003
H4    H     H_    0.304744 0.078737 0.690933 0.159957
H5    H     H_    0.357794 0.866857 0.655860 0.182304
H6    H     H_    0.206084 0.761513 0.593648 0.185786
H7    H     H_    0.584410 0.336676 0.588506 0.139476
H8    H     H_    0.820649 0.669630 0.376605 0.210754
H9    H     H_    0.503847 0.886854 0.321806 0.148778
H10   H     H_    0.329921 0.333670 0.585113 0.157362
H11   H     H_    0.918197 0.510971 0.221542 0.176739
H12   H     H_    0.202004 0.585645 0.926160 0.177265
H13   H     H_    0.995109 0.434943 0.943124 0.130678
H14   H     H_    0.641888 0.487069 0.774818 0.166322
H15   H     H_    0.457493 0.577985 0.846848 0.157176
N1    N     N_R   0.648320 0.501210 0.499140 -0.174284
N2    N     N_R   0.352470 0.501290 0.499110 -0.184421
O1    O     O_R   0.118810 0.319640 0.500010 -0.570931
O2    O     O_R   0.881240 0.319660 0.500000 -0.589230
O3    O     O_R   0.055570 0.499980 0.629840 -0.558045
O4    O     O_R   0.818000 0.500010 0.629830 -0.588825
O5    O     O_R   0.118760 0.680340 0.500000 -0.561517
O6    O     O_R   0.881190 0.680360 0.499990 -0.561481
O7    O     O_R   0.182000 0.499990 0.370170 -0.470394
O8    O     O_R   0.944430 0.500020 0.370160 -0.630295
Br1   Br    Br    0.043952 0.219078 0.699066 -0.621771
Br2   Br    Br    0.675033 0.870309 0.530458 -0.568744
O9    O     O_3   0.773587 0.864671 0.288246 -0.563672
C41   C     C_3   0.827155 0.823200 0.204283 0.041880
H16   H     H_    0.906386 0.748909 0.206127 0.151121
H17   H     H_    0.738278 0.786849 0.181740 0.161453
C42   C     C_3   0.904252 0.930620 0.136172 -0.761916
H18   H     H_    0.989694 0.974487 0.157036 0.248084
H19   H     H_    0.955903 0.896306 0.071651 0.212919
H20   H     H_    0.824296 0.001295 0.127979 0.234809
Br3   Br    Br    0.440565 0.527316 0.229958 -0.550381
O10   O     O_3   0.296384 0.699770 0.361228 -0.497723
C43   C     C_3   0.274153 0.810894 0.310503 0.067824
H21   H     H_    0.366546 0.830805 0.248391 0.162306
H22   H     H_    0.258192 0.889631 0.350666 0.133330
C44   C     C_3   0.139975 0.799271 0.281180 -0.760990
H23   H     H_    0.113318 0.892466 0.254878 0.216156
H24   H     H_    0.161366 0.738837 0.227997 0.233741
H25   H     H_    0.045683 0.761861 0.336986 0.242724
O11   O     O_3   0.094712 0.561490 0.780826 -0.591672
C45   C     C_3   0.216323 0.485462 0.764205 0.064577
H26   H     H_    0.206947 0.412504 0.723675 0.197186
H27   H     H_    0.230627 0.439244 0.826344 0.144902
C46   C     C_3   0.349642 0.567601 0.712904 -0.764610
H28   H     H_    0.450433 0.514786 0.706483 0.201149
H29   H     H_    0.353460 0.650488 0.746391 0.244060
H30   H     H_    0.343335 0.601743 0.646344 0.252087
O12   O     O_3   0.501121 0.287535 0.163470 -0.572999
C47   C     C_3   0.600340 0.239716 0.207288 0.099980
H31   H     H_    0.669483 0.315263 0.216827 0.163917
H32   H     H_    0.669138 0.169919 0.169910 0.139856
C48   C     C_3   0.514843 0.175690 0.298188 -0.721319
H33   H     H_    0.440107 0.102549 0.291815 0.226236
H34   H     H_    0.591130 0.132523 0.332080 0.221611
H35   H     H_    0.449400 0.244272 0.338691 0.266277

loop_
_geom_bond_atom_site_label_1
_geom_bond_atom_site_label_2
_ccdc_geom_bond_type
O11   C45   S    
C16   C21   A    
C34   C37   S    
Cu1   Cu2   S    
C19   C20   A    
C39   O11   S    
C4    C8    A    
C18   H5    S    
C34   O7    A    
C31   C32   A    
C33   N1    A    
C42   H19   S    
C24   H3    S    
C28   C29   A    
C5    C11   A    
C3    C7    A    
C30   C31   A    
C15   Br3   S    
C33   H7    S    
C47   C48   S    
C35   N2    A    
C18   C19   A    
C23   C26   S    
C31   N2    A    
C15   C37   A    
C11   C15   A    
C38   H13   S    
C44   H23   S    
C3    C38   A    
C8    C9    A    
C40   H14   S    
C42   H20   S    
C47   H32   S    
C48   H35   S    
Cu2   O6    S    
O9    C41   S    
C16   Br1   S    
C32   N1    A    
C12   C36   S    
C9    C10   A    
C27   H8    S    
C45   H26   S    
C1    C22   S    
C21   C22   A    
Cu2   N1    S    
Cu1   O3    S    
C43   C44   S    
C38   C39   A    
C42   H18   S    
C36   C40   A    
C17   H4    S    
Cu1   N2    S    
C43   H22   S    
C1    O1    A    
C46   H28   S    
C41   H17   S    
C12   O4    A    
C19   H6    S    
C16   C17   A    
C25   C26   A    
C2    C4    A    
C29   C30   A    
C8    H15   S    
C46   H29   S    
C12   O3    A    
C48   H33   S    
C45   C46   S    
C47   H31   S    
C44   H25   S    
C17   C18   A    
C24   C25   A    
Cu2   O2    S    
C6    C7    A    
C30   O10   S    
C23   O5    A    
C44   H24   S    
C45   H27   S    
C7    H1    S    
Cu2   O8    S    
C22   C24   A    
C25   Br2   S    
C35   H10   S    
C29   H9    S    
C48   H34   S    
C27   C32   A    
C36   C39   A    
C28   O9    S    
Cu1   O1    S    
C43   H21   S    
C10   C13   A    
C1    O2    A    
C34   O8    A    
C41   C42   S    
Cu1   O7    S    
C23   O6    A    
C2    C3    A    
O12   C47   S    
C41   H16   S    
C14   C37   A    
C5    C6    A    
C20   C26   A    
C33   C35   A    
C10   C11   A    
O10   C43   S    
C2    C40   A    
C4    C5    A    
C14   H11   S    
C20   C21   A    
C6    O12   S    
C27   C28   A    
C9    H12   S    
Cu1   O5    S    
C13   C14   A    
Cu2   O4    S    
C13   H2    S    
C46   H30   S    
