data_mof_unit_64827.cif
_audit_creation_date              2013-03-05T16:32:19-0500
_audit_creation_method            fapswitch 2.2
_symmetry_space_group_name_H-M    P1
_symmetry_Int_Tables_number       1
_space_group_crystal_system       triclinic
_cell_length_a                    32.088497
_cell_length_b                    32.088328
_cell_length_c                    47.110757
_cell_angle_alpha                 90.000488
_cell_angle_beta                  90.000254
_cell_angle_gamma                 90.00007
_cell_volume                      48508.3549268

loop_
_atom_site_label
_atom_site_type_symbol
_atom_site_description
_atom_site_fract_x
_atom_site_fract_y
_atom_site_fract_z
_atom_type_partial_charge
O1    O     O_R   0.060960 0.534400 0.000040 -0.604908
O2    O     O_R   0.465600 0.060960 0.000040 -0.603008
O3    O     O_R   0.939040 0.465600 0.000040 -0.602707
O4    O     O_R   0.534400 0.939040 0.000040 -0.602835
O5    O     O_R   0.060960 0.465600 0.999960 -0.604939
O6    O     O_R   0.465600 0.939040 0.999960 -0.603011
O7    O     O_R   0.939040 0.534400 0.999960 -0.602647
O8    O     O_R   0.534400 0.060960 0.999960 -0.602833
O9    O     O_R   0.560960 0.034400 0.500040 -0.602766
O10   O     O_R   0.965600 0.560960 0.500040 -0.602601
O11   O     O_R   0.439040 0.965600 0.500040 -0.605037
O12   O     O_R   0.034400 0.439040 0.500040 -0.605181
O13   O     O_R   0.560960 0.965600 0.499960 -0.602637
O14   O     O_R   0.965600 0.439040 0.499960 -0.605018
O15   O     O_R   0.439040 0.034400 0.499960 -0.605165
O16   O     O_R   0.034400 0.560960 0.499960 -0.602797
C1    C     C_R   0.080669 0.500000 0.999999 0.859543
C2    C     C_R   0.500000 0.080670 0.000001 0.857856
C3    C     C_R   0.919330 0.500000 0.000001 0.858561
C4    C     C_R   0.500000 0.919330 0.999999 0.857857
C5    C     C_R   0.580670 0.000000 0.500000 0.858951
C6    C     C_R   0.000000 0.580670 0.499999 0.858947
C7    C     C_R   0.419332 1.000000 0.500000 0.860054
C8    C     C_R   1.000000 0.419332 0.500001 0.860051
O17   O     O_R   0.999950 0.534400 0.041950 -0.588846
O18   O     O_R   0.465600 0.999950 0.041950 -0.590169
O19   O     O_R   0.000050 0.465600 0.041950 -0.592200
O20   O     O_R   0.534400 0.000050 0.041950 -0.590068
O21   O     O_R   0.999950 0.465600 0.958050 -0.588864
O22   O     O_R   0.465600 0.000050 0.958050 -0.590147
O23   O     O_R   0.000050 0.534400 0.958050 -0.592189
O24   O     O_R   0.534400 0.999950 0.958050 -0.590090
O25   O     O_R   0.499950 0.034400 0.541950 -0.592483
O26   O     O_R   0.965600 0.499950 0.541950 -0.592418
O27   O     O_R   0.500050 0.965600 0.541950 -0.589092
O28   O     O_R   0.034400 0.500050 0.541950 -0.589158
O29   O     O_R   0.499950 0.965600 0.458050 -0.592416
O30   O     O_R   0.965600 0.500050 0.458050 -0.589067
O31   O     O_R   0.500050 0.034400 0.458050 -0.589159
O32   O     O_R   0.034400 0.499950 0.458050 -0.592497
C9    C     C_R   0.000002 0.500001 0.055441 0.982057
C10   C     C_R   0.500001 0.999997 0.055441 0.980350
C11   C     C_R   0.999998 0.500000 0.944559 0.982064
C12   C     C_R   0.500000 0.000003 0.944559 0.980351
C13   C     C_R   0.499994 0.000000 0.555440 0.982518
C14   C     C_R   1.000000 0.499996 0.555440 0.982514
C15   C     C_R   0.499994 1.000000 0.444560 0.982519
C16   C     C_R   0.999999 0.499992 0.444560 0.982504
Zn1   Zn    Zn3+2 0.000000 0.545950 0.000000 1.076348
Zn2   Zn    Zn3+2 0.454050 0.000000 0.000000 1.079545
Zn3   Zn    Zn3+2 0.000000 0.454050 0.000000 1.076302
Zn4   Zn    Zn3+2 0.545950 0.000000 0.000000 1.079995
Zn5   Zn    Zn3+2 0.500000 0.045950 0.500000 1.075424
Zn6   Zn    Zn3+2 0.954050 0.500000 0.500000 1.075894
Zn7   Zn    Zn3+2 0.500000 0.954050 0.500000 1.075849
Zn8   Zn    Zn3+2 0.045950 0.500000 0.500000 1.075411
C17   C     C_R   0.025871 0.473481 0.309973 0.687457
C18   C     C_R   0.526901 0.025805 0.309965 0.687835
C19   C     C_R   0.974059 0.526819 0.309975 0.687847
C20   C     C_R   0.473565 0.973991 0.309981 0.687388
C21   C     C_R   0.025677 0.526980 0.690043 0.687917
C22   C     C_R   0.526902 0.974195 0.690035 0.687849
C23   C     C_R   0.973861 0.473645 0.690009 0.687390
C24   C     C_R   0.473565 0.026009 0.690019 0.687373
C25   C     C_R   0.525925 0.973306 0.809980 0.687508
C26   C     C_R   0.026456 0.526025 0.809987 0.687364
C27   C     C_R   0.474333 0.026858 0.809963 0.687579
C28   C     C_R   0.972902 0.474435 0.809953 0.687928
C29   C     C_R   0.525925 0.026694 0.190020 0.687506
C30   C     C_R   0.026611 0.474229 0.190029 0.687446
C31   C     C_R   0.474334 0.973141 0.190036 0.687582
C32   C     C_R   0.973056 0.525819 0.190030 0.687842
N1    N     N_R   0.999974 0.500157 0.323933 -0.313413
N2    N     N_R   0.500229 0.999912 0.323933 -0.313392
N3    N     N_R   0.999805 0.500297 0.676066 -0.313411
N4    N     N_R   0.500229 0.000088 0.676067 -0.313392
N5    N     N_R   0.500107 0.000071 0.823931 -0.313528
N6    N     N_R   0.999694 0.500194 0.823930 -0.313424
N7    N     N_R   0.500108 0.999929 0.176068 -0.313528
N8    N     N_R   0.999827 0.500017 0.176070 -0.313426
O33   O     O_R   0.499970 0.439020 0.023730 -0.608373
O34   O     O_R   0.560980 0.499970 0.023730 -0.608201
O35   O     O_R   0.500030 0.560980 0.023730 -0.607962
O36   O     O_R   0.439020 0.500030 0.023730 -0.608082
O37   O     O_R   0.499970 0.560980 0.976270 -0.608372
O38   O     O_R   0.560980 0.500030 0.976270 -0.608241
O39   O     O_R   0.500030 0.439020 0.976270 -0.607962
O40   O     O_R   0.439020 0.499970 0.976270 -0.608043
O41   O     O_R   0.999970 0.939020 0.523730 -0.607948
O42   O     O_R   0.060980 0.999970 0.523730 -0.607750
O43   O     O_R   0.000030 0.060980 0.523730 -0.608193
O44   O     O_R   0.939020 0.000030 0.523730 -0.608399
O45   O     O_R   0.999970 0.060980 0.476270 -0.607769
O46   O     O_R   0.060980 0.000030 0.476270 -0.608211
O47   O     O_R   0.000030 0.939020 0.476270 -0.608380
O48   O     O_R   0.939020 0.999970 0.476270 -0.607928
C33   C     C_R   0.973363 0.527730 0.280059 -0.160030
C34   C     C_R   0.472621 0.973309 0.280066 -0.159720
C35   C     C_R   0.026507 0.472514 0.280058 -0.159784
C36   C     C_R   0.527836 0.026454 0.280049 -0.160119
C37   C     C_R   0.973134 0.472723 0.719924 -0.159620
C38   C     C_R   0.472621 0.026691 0.719934 -0.159679
C39   C     C_R   0.026281 0.527937 0.719959 -0.160195
C40   C     C_R   0.527836 0.973546 0.719951 -0.160162
C41   C     C_R   0.473716 0.027823 0.780048 -0.160155
C42   C     C_R   0.971944 0.473834 0.780037 -0.160219
C43   C     C_R   0.526629 0.972385 0.780064 -0.160020
C44   C     C_R   0.027383 0.526746 0.780073 -0.159584
C45   C     C_R   0.473717 0.972177 0.219952 -0.160185
C46   C     C_R   0.972142 0.526507 0.219946 -0.160013
C47   C     C_R   0.526629 0.027615 0.219936 -0.159990
C48   C     C_R   0.027580 0.473595 0.219944 -0.159788
C49   C     C_R   0.999916 0.500105 0.265030 -0.051938
C50   C     C_R   0.500217 0.999883 0.265029 -0.051969
C51   C     C_R   0.999693 0.500324 0.734970 -0.051938
C52   C     C_R   0.500216 0.000117 0.734971 -0.051969
C53   C     C_R   0.500189 0.000109 0.765027 -0.051819
C54   C     C_R   0.999671 0.500304 0.765026 -0.051945
C55   C     C_R   0.500189 0.999890 0.234973 -0.051819
C56   C     C_R   0.999879 0.500069 0.234974 -0.051946
C57   C     C_R   0.946462 0.554658 0.264849 0.233613
C58   C     C_R   0.445676 0.946415 0.264863 0.234341
C59   C     C_R   0.053371 0.445551 0.264847 0.234325
C60   C     C_R   0.554781 0.053326 0.264830 0.233425
C61   C     C_R   0.946212 0.445796 0.735117 0.234441
C62   C     C_R   0.445676 0.053584 0.735136 0.234203
C63   C     C_R   0.053125 0.554899 0.735188 0.233495
C64   C     C_R   0.554781 0.946674 0.735171 0.233562
C65   C     C_R   0.446975 0.054898 0.764828 0.233404
C66   C     C_R   0.944869 0.447104 0.764808 0.233631
C67   C     C_R   0.553426 0.945344 0.764862 0.233570
C68   C     C_R   0.054425 0.553552 0.764880 0.234384
C69   C     C_R   0.446976 0.945101 0.235171 0.233456
C70   C     C_R   0.945102 0.553293 0.235158 0.233607
C71   C     C_R   0.553426 0.054656 0.235139 0.233518
C72   C     C_R   0.054655 0.446842 0.235154 0.234407
Zn9   Zn    Zn3+2 0.500000 0.500000 0.031630 1.025905
Zn10  Zn    Zn3+2 0.500000 0.500000 0.968370 1.025905
Zn11  Zn    Zn3+2 0.000000 0.000000 0.531630 1.026551
Zn12  Zn    Zn3+2 0.000000 0.000000 0.468370 1.026552
O49   O     O_2   0.051242 0.448655 0.325308 -0.467203
O50   O     O_2   0.551742 0.051170 0.325294 -0.464286
O51   O     O_2   0.948720 0.551673 0.325313 -0.464355
O52   O     O_2   0.448726 0.948645 0.325325 -0.467275
O53   O     O_2   0.051068 0.551806 0.674724 -0.464246
O54   O     O_2   0.551742 0.948831 0.674706 -0.464373
O55   O     O_2   0.948538 0.448796 0.674655 -0.467316
O56   O     O_2   0.448726 0.051355 0.674674 -0.467188
O57   O     O_2   0.551153 0.948350 0.825325 -0.464690
O58   O     O_2   0.051412 0.551243 0.825342 -0.467228
O59   O     O_2   0.449057 0.051790 0.825291 -0.464520
O60   O     O_2   0.947968 0.449151 0.825272 -0.464312
O61   O     O_2   0.551154 0.051651 0.174675 -0.464634
O62   O     O_2   0.051542 0.448965 0.174692 -0.467203
O63   O     O_2   0.449058 0.948210 0.174708 -0.464577
O64   O     O_2   0.948097 0.551055 0.174693 -0.464329
C73   C     C_R   0.030939 0.522431 0.130930 0.237992
C74   C     C_R   0.477662 0.031033 0.130926 0.240419
C75   C     C_R   0.968793 0.477627 0.130890 0.240094
C76   C     C_R   0.522442 0.968867 0.130890 0.240347
C77   C     C_R   0.030848 0.477673 0.869036 0.237887
C78   C     C_R   0.477661 0.968967 0.869074 0.240376
C79   C     C_R   0.968698 0.522471 0.869145 0.240208
C80   C     C_R   0.522441 0.031133 0.869110 0.240390
C81   C     C_R   0.531338 0.022294 0.630870 0.240358
C82   C     C_R   0.977659 0.531388 0.630852 0.240252
C83   C     C_R   0.469001 0.977755 0.630943 0.237961
C84   C     C_R   0.022191 0.469047 0.630960 0.237998
C85   C     C_R   0.531337 0.977707 0.369130 0.240212
C86   C     C_R   0.977699 0.468951 0.369076 0.237953
C87   C     C_R   0.469000 0.022244 0.369057 0.238108
C88   C     C_R   0.022240 0.531286 0.369112 0.240285
C89   C     C_R   0.032102 0.520574 0.101148 0.348170
C90   C     C_R   0.479489 0.032165 0.101140 0.348069
C91   C     C_R   0.967728 0.479474 0.101103 0.347089
C92   C     C_R   0.520551 0.967764 0.101106 0.348082
C93   C     C_R   0.032037 0.479468 0.898821 0.348150
C94   C     C_R   0.479489 0.967835 0.898860 0.348088
C95   C     C_R   0.967660 0.520562 0.898929 0.347104
C96   C     C_R   0.520550 0.032236 0.898894 0.348064
C97   C     C_R   0.532381 0.020412 0.601084 0.347006
C98   C     C_R   0.979572 0.532418 0.601067 0.346994
C99   C     C_R   0.467832 0.979589 0.601159 0.347885
C100  C     C_R   0.020389 0.467864 0.601175 0.347920
C101  C     C_R   0.532381 0.979588 0.398916 0.346983
C102  C     C_R   0.979565 0.467798 0.398858 0.347916
C103  C     C_R   0.467832 0.020411 0.398841 0.347913
C104  C     C_R   0.020392 0.532345 0.398899 0.346998
C105  C     C_R   0.999948 0.500009 0.086386 -0.358324
C106  C     C_R   0.500008 0.999973 0.086385 -0.356940
C107  C     C_R   0.999899 0.500006 0.913614 -0.358322
C108  C     C_R   0.500007 0.000027 0.913615 -0.356940
C109  C     C_R   0.500067 0.000000 0.586383 -0.358186
C110  C     C_R   0.999993 0.500093 0.586383 -0.358180
C111  C     C_R   0.500067 1.000000 0.413617 -0.358186
C112  C     C_R   0.999992 0.500041 0.413617 -0.358183
C113  C     C_R   0.999845 0.500031 0.145656 -0.073500
C114  C     C_R   0.500070 0.999944 0.145654 -0.073642
C115  C     C_R   0.999741 0.500106 0.854344 -0.073500
C116  C     C_R   0.500069 0.000056 0.854346 -0.073641
C117  C     C_R   0.500196 0.000038 0.645653 -0.073468
C118  C     C_R   0.999893 0.500250 0.645652 -0.073489
C119  C     C_R   0.500196 0.999962 0.354347 -0.073469
C120  C     C_R   0.999964 0.500140 0.354348 -0.073486
C121  C     C_R   0.271931 0.492421 0.974770 -0.255132
C122  C     C_R   0.483531 0.271934 0.976822 -0.261880
C123  C     C_R   0.728065 0.483520 0.976826 -0.262081
C124  C     C_R   0.516474 0.728066 0.976824 -0.262387
C125  C     C_R   0.271932 0.507579 0.025227 -0.255204
C126  C     C_R   0.483531 0.728066 0.023178 -0.261878
C127  C     C_R   0.728066 0.516481 0.023174 -0.262019
C128  C     C_R   0.516474 0.271934 0.023176 -0.262390
C129  C     C_R   0.771935 0.016616 0.476871 -0.261946
C130  C     C_R   0.983378 0.771934 0.476872 -0.262471
C131  C     C_R   0.228074 0.006917 0.474683 -0.255485
C132  C     C_R   0.993080 0.228073 0.474684 -0.254440
C133  C     C_R   0.771935 0.983381 0.523128 -0.262504
C134  C     C_R   0.006917 0.228074 0.525318 -0.255450
C135  C     C_R   0.228074 0.993079 0.525317 -0.254415
C136  C     C_R   0.016618 0.771935 0.523128 -0.261974
H1    H     H_    0.288829 0.486115 0.955316 0.184285
H2    H     H_    0.470172 0.288935 0.959150 0.178989
H3    H     H_    0.711063 0.470153 0.959157 0.178610
H4    H     H_    0.529831 0.711065 0.959151 0.178625
H5    H     H_    0.288831 0.513886 0.044681 0.184230
H6    H     H_    0.470172 0.711065 0.040850 0.178972
H7    H     H_    0.711065 0.529846 0.040844 0.178659
H8    H     H_    0.529832 0.288934 0.040849 0.178643
H9    H     H_    0.788937 0.030089 0.459240 0.178958
H10   H     H_    0.969905 0.788936 0.459241 0.178583
H11   H     H_    0.211178 0.012702 0.455153 0.184187
H12   H     H_    0.987294 0.211177 0.455154 0.184597
H13   H     H_    0.788937 0.969908 0.540759 0.178560
H14   H     H_    0.012702 0.211180 0.544849 0.184224
H15   H     H_    0.211179 0.987294 0.544848 0.184607
H16   H     H_    0.030093 0.788939 0.540758 0.178932
C137  C     C_R   0.293487 0.500000 0.999999 0.003745
C138  C     C_R   0.500003 0.293479 0.999999 0.013956
C139  C     C_R   0.706521 0.500000 0.000000 0.014193
C140  C     C_R   0.500003 0.706521 0.000001 0.013976
C141  C     C_R   0.793479 0.999999 0.499999 0.014042
C142  C     C_R   0.999998 0.793479 0.500000 0.014044
C143  C     C_R   0.206517 0.999998 0.500000 0.003447
C144  C     C_R   0.999998 0.206517 0.500001 0.003426
C145  C     C_R   0.228353 0.506816 0.025504 0.483366
C146  C     C_R   0.515693 0.228301 0.023635 0.478660
C147  C     C_R   0.771699 0.515699 0.023634 0.478444
C148  C     C_R   0.484312 0.771699 0.023637 0.478247
C149  C     C_R   0.228352 0.493184 0.974495 0.483331
C150  C     C_R   0.515693 0.771699 0.976365 0.478656
C151  C     C_R   0.771699 0.484301 0.976366 0.478486
C152  C     C_R   0.484311 0.228300 0.976363 0.478251
C153  C     C_R   0.728301 0.984161 0.523590 0.478616
C154  C     C_R   0.015838 0.728301 0.523591 0.478171
C155  C     C_R   0.271650 0.993839 0.525582 0.483159
C156  C     C_R   0.006159 0.271651 0.525582 0.483330
C157  C     C_R   0.728301 0.015836 0.476409 0.478152
C158  C     C_R   0.993839 0.271650 0.474419 0.483192
C159  C     C_R   0.271650 0.006158 0.474419 0.483329
C160  C     C_R   0.984159 0.728300 0.476410 0.478596
C161  C     C_R   0.206676 0.500000 0.999999 -0.090305
C162  C     C_R   0.500002 0.206690 0.999999 -0.084720
C163  C     C_R   0.793309 0.500000 0.000000 -0.084526
C164  C     C_R   0.500002 0.793309 0.000001 -0.084701
C165  C     C_R   0.706691 0.999999 0.499999 -0.084550
C166  C     C_R   0.999999 0.706691 0.500000 -0.084548
C167  C     C_R   0.293328 0.999999 0.500000 -0.090406
C168  C     C_R   0.999999 0.293328 0.500001 -0.090427
C169  C     C_1   0.337903 0.500000 0.999999 0.029918
C170  C     C_1   0.500002 0.337899 0.999999 0.028655
C171  C     C_1   0.662100 0.500000 0.000000 0.028721
C172  C     C_1   0.500002 0.662100 0.000000 0.028656
C173  C     C_1   0.837899 0.999999 0.499999 0.028639
C174  C     C_1   0.999999 0.837899 0.500000 0.028638
C175  C     C_1   0.162100 0.999998 0.500000 0.029912
C176  C     C_1   0.999998 0.162100 0.500001 0.029914
C177  C     C_1   0.162163 0.500000 1.000000 0.085362
C178  C     C_1   0.500001 0.162170 1.000000 0.100435
C179  C     C_1   0.837829 0.500000 0.000000 0.100472
C180  C     C_1   0.500000 0.837829 0.000000 0.100434
C181  C     C_1   0.662171 1.000000 0.499999 0.100423
C182  C     C_1   1.000000 0.662171 0.500000 0.100425
C183  C     C_1   0.337840 0.999999 0.500000 0.084468
C184  C     C_1   1.000000 0.337840 0.500001 0.084474
C185  C     C_1   0.124880 0.500000 0.999999 -0.170623
C186  C     C_1   0.500000 0.124885 0.000000 -0.159525
C187  C     C_1   0.875115 0.500000 0.000001 -0.159982
C188  C     C_1   0.500000 0.875115 0.999999 -0.159530
C189  C     C_1   0.624885 1.000000 0.500000 -0.160063
C190  C     C_1   0.000000 0.624885 0.499999 -0.160054
C191  C     C_1   0.375122 1.000000 0.500000 -0.171055
C192  C     C_1   1.000000 0.375122 0.500001 -0.171051
C193  C     C_1   0.375207 0.500000 0.999999 -0.160043
C194  C     C_1   0.500001 0.375204 1.000000 -0.161020
C195  C     C_1   0.624796 0.500000 0.000000 -0.161038
C196  C     C_1   0.500001 0.624796 0.000000 -0.161020
C197  C     C_1   0.875204 0.999999 0.500000 -0.160968
C198  C     C_1   0.999999 0.875204 0.500000 -0.160968
C199  C     C_1   0.124795 0.999999 0.500000 -0.159922
C200  C     C_1   0.999999 0.124795 0.500001 -0.159920
C201  C     C_R   0.500000 0.419452 1.000000 0.894321
C202  C     C_R   0.580548 0.500000 0.000000 0.894286
C203  C     C_R   0.500000 0.580548 0.000000 0.894320
C204  C     C_R   0.419453 0.500000 1.000000 0.894149
C205  C     C_R   1.000000 0.919452 0.500000 0.894175
C206  C     C_R   0.080548 1.000000 0.500000 0.894024
C207  C     C_R   1.000000 0.080548 0.500000 0.894026
C208  C     C_R   0.919452 1.000000 0.500000 0.894173
N9    N     N_R   0.919899 0.583753 0.279194 0.270132
O65   O     O_R   0.879759 0.578081 0.279320 -0.257508
O66   O     O_R   0.935225 0.618687 0.288550 -0.260968
N10   N     N_R   0.416631 0.919809 0.279218 0.269803
O67   O     O_R   0.422359 0.879677 0.279336 -0.259609
O68   O     O_R   0.381683 0.935084 0.288587 -0.262155
N11   N     N_R   0.079970 0.416489 0.279193 0.269830
O69   O     O_R   0.120109 0.422175 0.279279 -0.259652
O70   O     O_R   0.064673 0.381567 0.288590 -0.261983
N12   N     N_R   0.583892 0.079884 0.279166 0.270179
O71   O     O_R   0.578261 0.120030 0.279259 -0.257335
O72   O     O_R   0.618798 0.064537 0.288552 -0.260610
N13   N     N_R   0.919600 0.416766 0.720752 0.269775
O73   O     O_R   0.879474 0.422534 0.720603 -0.259972
O74   O     O_R   0.934855 0.381793 0.711410 -0.261947
N14   N     N_R   0.416630 0.080190 0.720781 0.269839
O75   O     O_R   0.422359 0.120322 0.720663 -0.259359
O76   O     O_R   0.381682 0.064915 0.711412 -0.261511
N15   N     N_R   0.079678 0.584024 0.720861 0.270189
O77   O     O_R   0.119830 0.578434 0.720800 -0.257193
O78   O     O_R   0.064310 0.618906 0.711446 -0.261022
N16   N     N_R   0.583892 0.920117 0.720834 0.270142
O79   O     O_R   0.578261 0.879970 0.720741 -0.257586
O80   O     O_R   0.618799 0.935464 0.711449 -0.261251
N17   N     N_R   0.420523 0.084104 0.779166 0.270222
O81   O     O_R   0.380355 0.078636 0.779239 -0.257197
O82   O     O_R   0.436004 0.118940 0.788572 -0.260942
N18   N     N_R   0.915630 0.420677 0.779135 0.270152
O83   O     O_R   0.921049 0.380501 0.779196 -0.257464
O84   O     O_R   0.880815 0.436194 0.788549 -0.261514
N19   N     N_R   0.579890 0.916169 0.779216 0.270147
O85   O     O_R   0.620048 0.921717 0.779351 -0.257990
O86   O     O_R   0.564452 0.881282 0.788567 -0.260939
N20   N     N_R   0.083568 0.580041 0.779244 0.269797
O87   O     O_R   0.077970 0.620192 0.779392 -0.259546
O88   O     O_R   0.118475 0.564638 0.788587 -0.261799
N21   N     N_R   0.420524 0.915895 0.220833 0.270204
O89   O     O_R   0.380356 0.921362 0.220760 -0.257647
O90   O     O_R   0.436006 0.881060 0.211427 -0.261005
N22   N     N_R   0.915893 0.579733 0.220814 0.270132
O91   O     O_R   0.921393 0.619898 0.220691 -0.257542
O92   O     O_R   0.881026 0.564258 0.211456 -0.260815
N23   N     N_R   0.579891 0.083832 0.220785 0.270166
O93   O     O_R   0.620048 0.078283 0.220650 -0.257543
O94   O     O_R   0.564452 0.118718 0.211434 -0.260876
N24   N     N_R   0.083826 0.420364 0.220806 0.269818
O95   O     O_R   0.078306 0.380203 0.220719 -0.259459
O96   O     O_R   0.118685 0.435806 0.211410 -0.262486
N25   N     N_R   0.061015 0.547110 0.146257 0.261361
O97   O     O_R   0.099668 0.548870 0.138036 -0.299586
O98   O     O_R   0.049541 0.569519 0.167903 -0.328198
N26   N     N_R   0.452988 0.061116 0.146253 0.261265
O99   O     O_R   0.451131 0.099742 0.137983 -0.310304
O100  O     O_R   0.430657 0.049667 0.167942 -0.329266
N27   N     N_R   0.938686 0.452929 0.146178 0.261217
O101  O     O_R   0.900082 0.451053 0.137864 -0.309889
O102  O     O_R   0.950096 0.430593 0.167874 -0.329493
N28   N     N_R   0.547146 0.938766 0.146178 0.261324
O103  O     O_R   0.548959 0.900142 0.137898 -0.309886
O104  O     O_R   0.569546 0.950197 0.167838 -0.329174
N29   N     N_R   0.060910 0.453027 0.853671 0.261439
O105  O     O_R   0.099565 0.451225 0.861885 -0.299298
O106  O     O_R   0.049421 0.430687 0.831996 -0.327754
N30   N     N_R   0.452987 0.938883 0.853747 0.261297
O107  O     O_R   0.451130 0.900258 0.862017 -0.310200
O108  O     O_R   0.430657 0.950333 0.832057 -0.329060
N31   N     N_R   0.938574 0.547197 0.853894 0.261143
O109  O     O_R   0.899970 0.549025 0.862215 -0.310207
O110  O     O_R   0.949966 0.569603 0.832227 -0.329945
N32   N     N_R   0.547145 0.061234 0.853823 0.261292
O111  O     O_R   0.548958 0.099858 0.862102 -0.309991
O112  O     O_R   0.569545 0.049803 0.832162 -0.329379
N33   N     N_R   0.561554 0.046881 0.646141 0.261067
O113  O     O_R   0.600165 0.048576 0.637822 -0.310719
O114  O     O_R   0.550245 0.069298 0.667823 -0.330233
N34   N     N_R   0.953059 0.561615 0.646103 0.261140
O115  O     O_R   0.951390 0.600226 0.637781 -0.310183
O116  O     O_R   0.930606 0.550317 0.667770 -0.330036
N35   N     N_R   0.438827 0.953219 0.646288 0.261376
O117  O     O_R   0.400167 0.951597 0.638068 -0.299021
O118  O     O_R   0.450213 0.930798 0.667949 -0.328131
N36   N     N_R   0.046710 0.438879 0.646324 0.261345
O119  O     O_R   0.048351 0.400218 0.638108 -0.299400
O120  O     O_R   0.069096 0.450272 0.668001 -0.327985
N37   N     N_R   0.561554 0.953119 0.353860 0.261172
O121  O     O_R   0.600165 0.951425 0.362178 -0.310068
O122  O     O_R   0.550246 0.930702 0.332177 -0.329888
N38   N     N_R   0.953145 0.438770 0.353751 0.261373
O123  O     O_R   0.951544 0.400111 0.361974 -0.299014
O124  O     O_R   0.930687 0.450148 0.332105 -0.328072
N39   N     N_R   0.438826 0.046780 0.353712 0.261272
O125  O     O_R   0.400166 0.048402 0.361931 -0.299685
O126  O     O_R   0.450212 0.069201 0.332051 -0.328475
N40   N     N_R   0.046813 0.561493 0.353822 0.261107
O127  O     O_R   0.048533 0.600105 0.362136 -0.310519
O128  O     O_R   0.069193 0.550174 0.332124 -0.329943
O129  O     O_3   0.062964 0.541635 0.086439 -0.541129
C209  C     C_3   0.094111 0.512865 0.078363 -0.133522
H17   H     H_    0.106855 0.495608 0.096931 0.175763
H18   H     H_    0.120189 0.530302 0.068483 0.221336
H19   H     H_    0.082409 0.490323 0.062363 0.104924
O130  O     O_3   0.458408 0.063001 0.086420 -0.544382
C210  C     C_3   0.487169 0.094118 0.078274 -0.136531
H20   H     H_    0.504103 0.107235 0.096855 0.182811
H21   H     H_    0.469763 0.119943 0.068073 0.182547
H22   H     H_    0.509988 0.082263 0.062507 0.119323
O131  O     O_3   0.936927 0.458400 0.086344 -0.544730
C211  C     C_3   0.905822 0.487164 0.078182 -0.135677
H23   H     H_    0.892644 0.504052 0.096762 0.182794
H24   H     H_    0.880035 0.469768 0.067929 0.182471
H25   H     H_    0.917713 0.510023 0.062456 0.119344
O132  O     O_3   0.541600 0.936940 0.086352 -0.544260
C212  C     C_3   0.512818 0.905839 0.078215 -0.136254
H26   H     H_    0.495928 0.892693 0.096805 0.182798
H27   H     H_    0.530197 0.880029 0.067974 0.182658
H28   H     H_    0.489960 0.917721 0.062483 0.119274
O133  O     O_3   0.062913 0.458380 0.913498 -0.541095
C213  C     C_3   0.094072 0.487133 0.921582 -0.133403
H29   H     H_    0.106788 0.504433 0.903024 0.175735
H30   H     H_    0.120166 0.469675 0.931426 0.221329
H31   H     H_    0.082395 0.509637 0.937615 0.104874
O134  O     O_3   0.458407 0.936999 0.913580 -0.544350
C214  C     C_3   0.487169 0.905882 0.921726 -0.136533
H32   H     H_    0.504103 0.892765 0.903145 0.182790
H33   H     H_    0.469763 0.880057 0.931927 0.182566
H34   H     H_    0.509987 0.917736 0.937493 0.119306
O135  O     O_3   0.936869 0.541603 0.913720 -0.544776
C215  C     C_3   0.905781 0.512816 0.921872 -0.135795
H35   H     H_    0.892577 0.495968 0.903283 0.182802
H36   H     H_    0.880006 0.530183 0.932162 0.182461
H37   H     H_    0.917699 0.489921 0.937565 0.119436
O136  O     O_3   0.541600 0.063060 0.913647 -0.544292
C216  C     C_3   0.512817 0.094161 0.921785 -0.136256
H38   H     H_    0.495927 0.107307 0.903195 0.182820
H39   H     H_    0.530196 0.119971 0.932026 0.182640
H40   H     H_    0.489960 0.082279 0.937517 0.119293
O137  O     O_3   0.563257 0.041352 0.586309 -0.545077
C217  C     C_3   0.594243 0.012458 0.578150 -0.136475
H41   H     H_    0.607367 0.995534 0.596732 0.182968
H42   H     H_    0.620091 0.029743 0.567882 0.182371
H43   H     H_    0.582252 0.989632 0.562436 0.119743
O138  O     O_3   0.958651 0.563289 0.586276 -0.544960
C218  C     C_3   0.987558 0.594265 0.578121 -0.136133
H44   H     H_    0.004462 0.607402 0.596708 0.182973
H45   H     H_    0.970288 0.620108 0.567834 0.182477
H46   H     H_    0.010401 0.582259 0.562425 0.119668
O139  O     O_3   0.436870 0.958654 0.586464 -0.541465
C219  C     C_3   0.405836 0.987554 0.578398 -0.133017
H47   H     H_    0.393211 0.004903 0.596963 0.176061
H48   H     H_    0.379654 0.970221 0.568560 0.221563
H49   H     H_    0.417608 0.010011 0.562366 0.104880
O140  O     O_3   0.041335 0.436894 0.586496 -0.541563
C220  C     C_3   0.012443 0.405855 0.578426 -0.133386
H50   H     H_    0.995072 0.393245 0.596986 0.176029
H51   H     H_    0.029786 0.379664 0.568606 0.221471
H52   H     H_    0.990006 0.417615 0.562377 0.104986
O141  O     O_3   0.563257 0.958648 0.413691 -0.544934
C221  C     C_3   0.594243 0.987543 0.421850 -0.136078
H53   H     H_    0.582251 0.010369 0.437564 0.119618
H54   H     H_    0.607367 0.004467 0.403268 0.182967
H55   H     H_    0.620092 0.970259 0.432119 0.182478
O142  O     O_3   0.958645 0.436843 0.413570 -0.541453
C222  C     C_3   0.987554 0.405815 0.421631 -0.133057
H56   H     H_    0.004879 0.393174 0.403061 0.176054
H57   H     H_    0.970232 0.379641 0.431489 0.221585
H58   H     H_    0.010031 0.417599 0.437645 0.104884
O143  O     O_3   0.436870 0.041345 0.413536 -0.541606
C223  C     C_3   0.405836 0.012445 0.421602 -0.133463
H59   H     H_    0.417608 0.989988 0.437633 0.105026
H60   H     H_    0.393211 0.995096 0.403036 0.176065
H61   H     H_    0.379653 0.029778 0.431440 0.221452
O144  O     O_3   0.041350 0.563226 0.413658 -0.545056
C224  C     C_3   0.012469 0.594221 0.421821 -0.136400
H62   H     H_    0.995522 0.607332 0.403244 0.182963
H63   H     H_    0.029768 0.620077 0.432071 0.182376
H64   H     H_    0.989661 0.582245 0.437553 0.119695
O145  O     O_3   0.206926 0.484593 0.949713 -0.593720
C225  C     C_3   0.206166 0.520962 0.932936 -0.262217
H65   H     H_    0.238123 0.530627 0.926536 0.179507
H66   H     H_    0.190003 0.546910 0.944128 0.159869
H67   H     H_    0.188458 0.514295 0.913235 0.208924
O146  O     O_3   0.467139 0.206497 0.953866 -0.591224
C226  C     C_3   0.493277 0.210764 0.929975 -0.240753
H68   H     H_    0.525897 0.201249 0.934839 0.155600
H69   H     H_    0.492566 0.243123 0.921559 0.178575
H70   H     H_    0.481621 0.189896 0.912966 0.208196
O147  O     O_3   0.793503 0.467121 0.953872 -0.591327
C227  C     C_3   0.789217 0.493238 0.929972 -0.241589
H71   H     H_    0.798716 0.525867 0.934823 0.155801
H72   H     H_    0.756857 0.492503 0.921559 0.178393
H73   H     H_    0.810087 0.481579 0.912966 0.208175
O148  O     O_3   0.532864 0.793501 0.953868 -0.591090
C228  C     C_3   0.506707 0.789256 0.929984 -0.242197
H74   H     H_    0.474098 0.798795 0.934859 0.155461
H75   H     H_    0.507388 0.756898 0.921566 0.178258
H76   H     H_    0.518368 0.810118 0.912973 0.208213
O149  O     O_3   0.206928 0.515406 0.050285 -0.593763
C229  C     C_3   0.206189 0.479044 0.067070 -0.262435
H77   H     H_    0.238151 0.469400 0.073472 0.179468
H78   H     H_    0.190040 0.453082 0.055885 0.159905
H79   H     H_    0.188479 0.485710 0.086770 0.208924
O150  O     O_3   0.467140 0.793503 0.046134 -0.591258
C230  C     C_3   0.493278 0.789236 0.070025 -0.240773
H80   H     H_    0.525898 0.798751 0.065161 0.155642
H81   H     H_    0.492567 0.756877 0.078441 0.178582
H82   H     H_    0.481622 0.810104 0.087034 0.208179
O151  O     O_3   0.793502 0.532879 0.046128 -0.591301
C231  C     C_3   0.789238 0.506746 0.070022 -0.241361
H83   H     H_    0.798759 0.474126 0.065161 0.155738
H84   H     H_    0.756879 0.507453 0.078437 0.178441
H85   H     H_    0.810104 0.518410 0.087030 0.208184
O152  O     O_3   0.532864 0.206499 0.046132 -0.591056
C232  C     C_3   0.506708 0.210743 0.070015 -0.242179
H86   H     H_    0.474098 0.201205 0.065141 0.155419
H87   H     H_    0.507388 0.243102 0.078434 0.178252
H88   H     H_    0.518369 0.189882 0.087026 0.208230
O153  O     O_3   0.706493 0.033148 0.453962 -0.591354
C233  C     C_3   0.710817 0.007202 0.429979 -0.240598
H89   H     H_    0.701378 0.974523 0.434727 0.155682
H90   H     H_    0.743172 0.008053 0.421564 0.178644
H91   H     H_    0.689920 0.018940 0.413013 0.208217
O154  O     O_3   0.966846 0.706493 0.453964 -0.591179
C234  C     C_3   0.992800 0.710805 0.429984 -0.242144
H92   H     H_    0.025474 0.701354 0.434736 0.155516
H93   H     H_    0.991963 0.743160 0.421568 0.178288
H94   H     H_    0.981058 0.689911 0.413017 0.208252
O155  O     O_3   0.293064 0.014109 0.449535 -0.594254
C235  C     C_3   0.294076 0.977227 0.433293 -0.262979
H95   H     H_    0.262185 0.967163 0.427024 0.179516
H96   H     H_    0.310389 0.951738 0.444865 0.160191
H97   H     H_    0.311767 0.983386 0.413508 0.208607
O156  O     O_3   0.985890 0.293063 0.449535 -0.593962
C236  C     C_3   0.022770 0.294067 0.433291 -0.261904
H98   H     H_    0.032828 0.262174 0.427023 0.179822
H99   H     H_    0.048263 0.310377 0.444862 0.159913
H100  H     H_    0.016612 0.311758 0.413506 0.208728
O157  O     O_3   0.706493 0.966850 0.546036 -0.591194
C237  C     C_3   0.710817 0.992797 0.570019 -0.242259
H101  H     H_    0.701377 0.025476 0.565271 0.155545
H102  H     H_    0.743172 0.991948 0.578434 0.178264
H103  H     H_    0.689921 0.981059 0.586985 0.208247
O158  O     O_3   0.014110 0.293066 0.550466 -0.594193
C238  C     C_3   0.977228 0.294082 0.566707 -0.262890
H104  H     H_    0.967161 0.262193 0.572977 0.179510
H105  H     H_    0.951740 0.310395 0.555133 0.160149
H106  H     H_    0.983386 0.311776 0.586491 0.208610
O159  O     O_3   0.293065 0.985889 0.550465 -0.593988
C239  C     C_3   0.294076 0.022770 0.566708 -0.261757
H107  H     H_    0.262185 0.032833 0.572976 0.179863
H108  H     H_    0.310388 0.048260 0.555136 0.159921
H109  H     H_    0.311768 0.016612 0.586492 0.208722
O160  O     O_3   0.033152 0.706493 0.546036 -0.591371
C240  C     C_3   0.007216 0.710829 0.570024 -0.240700
H110  H     H_    0.974532 0.701402 0.565283 0.155721
H111  H     H_    0.008083 0.743185 0.578438 0.178619
H112  H     H_    0.018953 0.689930 0.586988 0.208211

loop_
_geom_bond_atom_site_label_1
_geom_bond_atom_site_label_2
_geom_bond_distance
_ccdc_geom_bond_type
C196  C203  1.419828 S    
C82   N34   1.442261 S    
N25   O97   1.300610 A    
C93   C107  1.408390 A    
C210  H21   1.108891 S    
C237  H103  1.109215 S    
O25   C13   1.273723 A    
O133  C213  1.412793 S    
O147  C227  1.410322 S    
C235  H97   1.109089 S    
C130  C160  1.400538 A    
O144  C224  1.412790 S    
C223  H60   1.113110 S    
C165  C181  1.428586 S    
N17   O81   1.300844 A    
C20   N2    1.362317 A    
C15   C111  1.457755 S    
O132  C212  1.412791 S    
N38   O124  1.300966 A    
C151  O147  1.384355 S    
O18   Zn2   2.010748 S    
C34   C50   1.418850 A    
C157  O153  1.384370 S    
N2    C119  1.432847 S    
C78   C116  1.411975 A    
C71   N23   1.433505 S    
N30   O107  1.300599 A    
C42   C66   1.416047 A    
O154  C234  1.410330 S    
C82   C118  1.411927 A    
C138  C170  1.425386 S    
C145  O149  1.382636 S    
O24   Zn4   2.010752 S    
C217  H43   1.110214 S    
C40   C52   1.418861 A    
C84   N36   1.442214 S    
C74   C90   1.404927 A    
C69   N21   1.433520 S    
C234  H92   1.114156 S    
N14   O75   1.300844 A    
C240  H111  1.111684 S    
O3    C3    1.272197 A    
C98   C110  1.408480 A    
C65   N17   1.433521 S    
C19   N1    1.362308 A    
C197  C208  1.419836 S    
C86   C120  1.411898 A    
N31   O110  1.300967 A    
C156  C168  1.405462 A    
C134  H14   1.083952 S    
C133  H13   1.083732 S    
C42   C54   1.418859 A    
C226  H69   1.111700 S    
C101  C111  1.408480 A    
N3    C118  1.432844 S    
C239  H108  1.113644 S    
C238  H106  1.109093 S    
C68   N20   1.433497 S    
N16   O79   1.300848 A    
C45   C69   1.416047 A    
C18   C36   1.409839 A    
C128  C146  1.400511 A    
O17   C9    1.273711 A    
C48   C56   1.418852 A    
N20   O87   1.300845 A    
N18   O83   1.300845 A    
C216  H40   1.110213 S    
N36   O120  1.300966 A    
C62   C65   1.400078 A    
C229  H77   1.112935 S    
O27   Zn7   2.010746 S    
C227  H73   1.109215 S    
N34   O116  1.300967 A    
C36   C60   1.416053 A    
C147  C163  1.405088 A    
C49   C56   1.415943 A    
C10   C106  1.457819 S    
C40   C64   1.416053 A    
C51   C54   1.415942 A    
O13   C5    1.272198 A    
C122  C138  1.396250 A    
C124  C150  1.400511 A    
C193  C204  1.419784 S    
C150  C164  1.405083 A    
C30   C48   1.409799 A    
C195  C202  1.419833 S    
O160  C240  1.410330 S    
O37   C203  1.282212 A    
O26   Zn6   2.010748 S    
O7    C3    1.272198 A    
N33   O113  1.300600 A    
C37   C51   1.418849 A    
C209  H18   1.109051 S    
O146  C226  1.410316 S    
C77   C93   1.404889 A    
N35   O117  1.300606 A    
O27   C13   1.273716 A    
O143  C223  1.412802 S    
C129  H9    1.083732 S    
C215  H35   1.112943 S    
O31   C15   1.273719 A    
N39   O126  1.300968 A    
C154  C166  1.405089 A    
C217  H42   1.108886 S    
O20   C10   1.273713 A    
C60   C71   1.400097 A    
O142  C222  1.412800 S    
C81   C117  1.411949 A    
C231  H83   1.114153 S    
O33   C201  1.282212 A    
N31   O109  1.300599 A    
C2    C186  1.418773 S    
O35   C203  1.282209 A    
O8    C2    1.272199 A    
N37   O121  1.300602 A    
C20   C34   1.409813 A    
C9    C105  1.457825 S    
C130  C142  1.396236 A    
C211  H23   1.112950 S    
O129  C209  1.412785 S    
C12   C108  1.457819 S    
O9    C5    1.272197 A    
N8    C113  1.432836 S    
O11   C7    1.272163 A    
N22   O91   1.300847 A    
C74   C114  1.411973 A    
C84   C118  1.411932 A    
O22   C12   1.273749 A    
C25   O57   1.348816 S    
O137  C217  1.412788 S    
O4    C4    1.272200 A    
C95   C107  1.408509 A    
C184  C192  1.196327 T    
N13   O73   1.300840 A    
O46   C206  1.282209 A    
C134  C156  1.398570 A    
O5    Zn3   1.990913 S    
N32   O111  1.300603 A    
O44   Zn11  1.991837 S    
C75   N27   1.442268 S    
O37   Zn10  1.991822 S    
O47   C205  1.282208 A    
C99   O139  1.384791 S    
C151  C163  1.405089 A    
C148  C164  1.405081 A    
O43   C207  1.282204 A    
C88   N40   1.442272 S    
C123  H3    1.083735 S    
C212  H26   1.112952 S    
C32   O64   1.348815 S    
C62   N14   1.433506 S    
C85   N37   1.442263 S    
N23   O93   1.300842 A    
O40   C204  1.282194 A    
C126  C148  1.400523 A    
C145  C161  1.405459 A    
C31   N7    1.362315 A    
C146  O152  1.384337 S    
C214  H33   1.108887 S    
C220  H50   1.113118 S    
C24   C38   1.409813 A    
C121  H1    1.083959 S    
C236  H98   1.112961 S    
C86   N38   1.442203 S    
C135  C155  1.398572 A    
C70   N22   1.433515 S    
C104  O144  1.384775 S    
C102  C112  1.408365 A    
C234  H93   1.111690 S    
C125  C137  1.396486 A    
C7    C191  1.418626 S    
C222  H57   1.109058 S    
C4    C188  1.418773 S    
O158  C238  1.409657 S    
C163  C179  1.428580 S    
N39   O125  1.300606 A    
C17   C35   1.409798 A    
C154  O160  1.384377 S    
N10   O67   1.300845 A    
C225  H67   1.109082 S    
C47   C55   1.418852 A    
C127  C147  1.400518 A    
C194  C201  1.419828 S    
C33   C57   1.416058 A    
O2    Zn2   1.990904 S    
O36   C204  1.282202 A    
C182  C190  1.196439 T    
C219  H47   1.113108 S    
O38   C202  1.282212 A    
C136  C154  1.400552 A    
C147  O151  1.384346 S    
O28   C14   1.273737 A    
O26   C14   1.273707 A    
C134  C144  1.396537 A    
O29   C15   1.273720 A    
C39   C63   1.416048 A    
O8    Zn4   1.990904 S    
O30   C16   1.273701 A    
C50   C55   1.415947 A    
C215  H37   1.110221 S    
C152  C162  1.405083 A    
C218  H46   1.110213 S    
C166  C182  1.428579 S    
C230  H82   1.109216 S    
C19   O51   1.348811 S    
N7    C114  1.432846 S    
C228  H74   1.114154 S    
C24   O56   1.348817 S    
C126  H6    1.083737 S    
C225  H65   1.112935 S    
C48   C72   1.416045 A    
C231  H85   1.109215 S    
C23   O55   1.348816 S    
N26   O99   1.300600 A    
O19   Zn3   2.010746 S    
C14   C110  1.457742 S    
C22   C40   1.409834 A    
N9    O66   1.301021 A    
C24   N4    1.362318 A    
C211  H25   1.110213 S    
C135  H15   1.083955 S    
C36   C50   1.418860 A    
N15   O78   1.301024 A    
C72   N24   1.433514 S    
N4    C117  1.432847 S    
C177  C185  1.196355 T    
C179  C187  1.196442 T    
O16   Zn8   1.990904 S    
O145  C225  1.409688 S    
C170  C194  1.197049 T    
C94   C108  1.408448 A    
C214  H32   1.112960 S    
C94   O134  1.384782 S    
C227  H72   1.111698 S    
C224  H62   1.112949 S    
C103  O143  1.384791 S    
O6    Zn2   1.990908 S    
C93   O133  1.384783 S    
C232  H87   1.111705 S    
C171  C195  1.197055 T    
O130  C210  1.412800 S    
C200  C207  1.419815 S    
O36   Zn9   1.991837 S    
C221  H53   1.110211 S    
C212  H28   1.110215 S    
C89   O129  1.384781 S    
C79   C95   1.404893 A    
O39   C201  1.282209 A    
C233  H90   1.111686 S    
C46   C70   1.416054 A    
O39   Zn10  1.991831 S    
C230  H80   1.114153 S    
C64   C67   1.400102 A    
C143  C175  1.425281 S    
C122  C152  1.400523 A    
C18   N2    1.362308 A    
N40   O127  1.300601 A    
O21   Zn3   2.010757 S    
C220  H52   1.110117 S    
C34   C58   1.416051 A    
N19   O86   1.301019 A    
C169  C193  1.197023 T    
N35   O118  1.300966 A    
C146  C162  1.405081 A    
O48   Zn12  1.991840 S    
C98   O138  1.384772 S    
C124  H4    1.083737 S    
O12   C8    1.272167 A    
O1    C1    1.272175 A    
C73   N25   1.442197 S    
C23   C37   1.409817 A    
C32   N8    1.362312 A    
C59   N11   1.433510 S    
C155  C167  1.405466 A    
C122  H2    1.083740 S    
C219  H49   1.110123 S    
C100  C110  1.408360 A    
N30   O108  1.300966 A    
O45   C207  1.282207 A    
N5    C116  1.432846 S    
C173  C197  1.197055 T    
C44   C68   1.416057 A    
C29   N7    1.362321 A    
C198  C205  1.419828 S    
C218  H44   1.112942 S    
O29   Zn7   2.010757 S    
N11   O69   1.300846 A    
C161  C177  1.428358 S    
N14   O76   1.301013 A    
C240  H110  1.114158 S    
C22   O54   1.348813 S    
C228  H76   1.109216 S    
C73   C89   1.404822 A    
C144  C176  1.425277 S    
O13   Zn7   1.990913 S    
C123  C151  1.400532 A    
C25   C43   1.409833 A    
C78   N30   1.442258 S    
C128  C138  1.396247 A    
O151  C231  1.410314 S    
N29   O106  1.300964 A    
C132  C144  1.396530 A    
O46   Zn12  1.991834 S    
C77   N29   1.442208 S    
C41   C53   1.418852 A    
N13   O74   1.301020 A    
C238  H105  1.113643 S    
O10   C6    1.272200 A    
O33   Zn9   1.991825 S    
O18   C10   1.273750 A    
N16   O80   1.301018 A    
O15   Zn5   1.990916 S    
C35   C59   1.416048 A    
O156  C236  1.409657 S    
C21   C39   1.409823 A    
C26   O58   1.348817 S    
C236  H100  1.109090 S    
N20   O88   1.301016 A    
C216  H39   1.108887 S    
O5    C1    1.272176 A    
C213  H29   1.113103 S    
C229  H78   1.113675 S    
C224  H64   1.110212 S    
O136  C216  1.412795 S    
C237  H101  1.114157 S    
C141  C173  1.425390 S    
C88   C120  1.411962 A    
C21   O53   1.348817 S    
N28   O103  1.300601 A    
C153  O157  1.384372 S    
C175  C199  1.197049 T    
O32   Zn8   2.010752 S    
C82   C98   1.404897 A    
N27   O101  1.300598 A    
C21   N3    1.362303 A    
C57   C70   1.400107 A    
N21   O90   1.301021 A    
C97   C109  1.408481 A    
C79   N31   1.442259 S    
C80   C96   1.404866 A    
C123  C139  1.396245 A    
C229  H79   1.109073 S    
O22   Zn2   2.010756 S    
C158  C168  1.405462 A    
O139  C219  1.412805 S    
N25   O98   1.300963 A    
C64   N16   1.433521 S    
O21   C11   1.273747 A    
C210  H22   1.110210 S    
C28   N6    1.362306 A    
C22   N4    1.362310 A    
C76   N28   1.442246 S    
O23   Zn1   2.010750 S    
C102  O142  1.384788 S    
C223  H59   1.110124 S    
C176  C200  1.197042 T    
C215  H36   1.108888 S    
N17   O82   1.301018 A    
C13   C109  1.457755 S    
C26   N6    1.362323 A    
C30   N8    1.362312 A    
C25   N5    1.362321 A    
N38   O123  1.300605 A    
C231  H84   1.111704 S    
O3    Zn3   1.990917 S    
C158  O156  1.382574 S    
O44   C208  1.282210 A    
C38   C62   1.416053 A    
C136  C142  1.396240 A    
C29   O61   1.348814 S    
C96   O136  1.384783 S    
C100  O140  1.384791 S    
C133  C141  1.396242 A    
C211  H24   1.108891 S    
C39   C51   1.418860 A    
C222  H56   1.113108 S    
C180  C188  1.196436 T    
C28   O60   1.348812 S    
O41   C205  1.282211 A    
C27   N5    1.362313 A    
C18   O50   1.348812 S    
C92   C106  1.408453 A    
N19   O85   1.300843 A    
O30   Zn6   2.010756 S    
C167  C183  1.428323 S    
C240  H112  1.109215 S    
C31   O63   1.348818 S    
C86   C102  1.404828 A    
C58   N10   1.433506 S    
O47   Zn12  1.991831 S    
C157  C165  1.405090 A    
C133  C153  1.400543 A    
C121  C137  1.396484 A    
C8    C192  1.418619 S    
O23   C11   1.273730 A    
C172  C196  1.197049 T    
O43   Zn11  1.991828 S    
N18   O84   1.301018 A    
O4    Zn4   1.990907 S    
C221  H54   1.112947 S    
C226  H70   1.109217 S    
C131  H11   1.083951 S    
C5    C189  1.418786 S    
N6    C115  1.432840 S    
N32   O112  1.300964 A    
C130  H10   1.083735 S    
C125  C145  1.398647 A    
O35   Zn9   1.991828 S    
O11   Zn7   1.990917 S    
C239  H107  1.112960 S    
C45   C55   1.418852 A    
O16   C6    1.272199 A    
C178  C186  1.196436 T    
O150  C230  1.410315 S    
C129  C157  1.400546 A    
C87   N39   1.442207 S    
C27   C41   1.409816 A    
C235  H96   1.113644 S    
C35   C49   1.418853 A    
C80   N32   1.442245 S    
N23   O94   1.301021 A    
N36   O119  1.300607 A    
C139  C171  1.425390 S    
C221  H55   1.108888 S    
O6    C4    1.272199 A    
C131  C143  1.396538 A    
C61   N13   1.433498 S    
C160  O154  1.384366 S    
C129  C141  1.396243 A    
N15   O77   1.300844 A    
C125  H5    1.083964 S    
O45   Zn12  1.991822 S    
C20   O52   1.348819 S    
C47   C71   1.416058 A    
O31   Zn5   2.010750 S    
C76   C114  1.411937 A    
O28   Zn8   2.010751 S    
C99   C109  1.408363 A    
N10   O68   1.301013 A    
C17   N1    1.362315 A    
C73   C113  1.411885 A    
C83   C117  1.411915 A    
C87   C119  1.411920 A    
O17   Zn1   2.010752 S    
C121  C149  1.398646 A    
C128  H8    1.083740 S    
C75   C113  1.411953 A    
O140  C220  1.412809 S    
C219  H48   1.109062 S    
C142  C174  1.425383 S    
C210  H20   1.112957 S    
N33   O114  1.300963 A    
C209  H17   1.113100 S    
C137  C169  1.425246 S    
C155  O159  1.382573 S    
C43   C53   1.418852 A    
C223  H61   1.109062 S    
C80   C116  1.411937 A    
C63   N15   1.433529 S    
C218  H45   1.108886 S    
C230  H81   1.111703 S    
C217  H41   1.112947 S    
O2    C2    1.272200 A    
O20   Zn4   2.010751 S    
N40   O128  1.300964 A    
C132  C158  1.398569 A    
O159  C239  1.409657 S    
C152  O146  1.384344 S    
N34   O115  1.300598 A    
C124  C140  1.396247 A    
N26   O100  1.300966 A    
O42   Zn11  1.991837 S    
O141  C221  1.412787 S    
N9    O65   1.300845 A    
O148  C228  1.410311 S    
N37   O122  1.300961 A    
C17   O49   1.348820 S    
O149  C229  1.409688 S    
O14   C8    1.272165 A    
C168  C184  1.428319 S    
C95   O135  1.384773 S    
O34   Zn9   1.991837 S    
C174  C198  1.197049 T    
C90   O130  1.384786 S    
C101  O141  1.384773 S    
C66   N18   1.433529 S    
C131  C159  1.398572 A    
C162  C178  1.428572 S    
C52   C53   1.415947 A    
C74   N26   1.442256 S    
O32   C16   1.273743 A    
O134  C214  1.412801 S    
C149  O145  1.382629 S    
C150  O148  1.384339 S    
C224  H63   1.108886 S    
C63   C68   1.400088 A    
C61   C66   1.400091 A    
C83   C99   1.404866 A    
O152  C232  1.410311 S    
C84   C100  1.404892 A    
C209  H19   1.110124 S    
O1    Zn1   1.990914 S    
N12   O72   1.301014 A    
C226  H68   1.114156 S    
C232  H86   1.114155 S    
C239  H109  1.109091 S    
C26   C44   1.409812 A    
O15   C7    1.272165 A    
O138  C218  1.412787 S    
C11   C107  1.457827 S    
C212  H27   1.108890 S    
C127  H7    1.083738 S    
C16   C112  1.457744 S    
C156  O158  1.382574 S    
C76   C92   1.404870 A    
C233  H91   1.109215 S    
C183  C191  1.196333 T    
C28   C42   1.409828 A    
C6    C190  1.418779 S    
N22   O92   1.301017 A    
C214  H34   1.110208 S    
N27   O102  1.300970 A    
C220  H51   1.109062 S    
O25   Zn5   2.010752 S    
N1    C120  1.432836 S    
C32   C46   1.409839 A    
N11   O70   1.301020 A    
C78   C94   1.404926 A    
C77   C115  1.411922 A    
C27   O59   1.348818 S    
C44   C54   1.418847 A    
C234  H94   1.109216 S    
C235  H95   1.112957 S    
O7    Zn1   1.990916 S    
C43   C67   1.416056 A    
C96   C108  1.408454 A    
C222  H58   1.110125 S    
C46   C56   1.418855 A    
C238  H104  1.112960 S    
C41   C65   1.416050 A    
C153  C165  1.405087 A    
C126  C140  1.396250 A    
C225  H66   1.113665 S    
C58   C69   1.400083 A    
N12   O71   1.300846 A    
C92   O132  1.384782 S    
C85   C119  1.411944 A    
C1    C185  1.418674 S    
O19   C9    1.273765 A    
C159  O155  1.382575 S    
O131  C211  1.412794 S    
O155  C235  1.409657 S    
C148  O150  1.384349 S    
C3    C187  1.418786 S    
O157  C237  1.410327 S    
O24   C12   1.273714 A    
O12   Zn8   1.990907 S    
C83   N35   1.442206 S    
C57   N9    1.433511 S    
O14   Zn6   1.990908 S    
C90   C106  1.408447 A    
N24   O95   1.300843 A    
N24   O96   1.301018 A    
C228  H75   1.111708 S    
C19   C33   1.409841 A    
C127  C139  1.396247 A    
C33   C49   1.418856 A    
C23   N3    1.362321 A    
O41   Zn11  1.991825 S    
N29   O105  1.300608 A    
C103  C111  1.408363 A    
C30   O62   1.348820 S    
C97   O137  1.384772 S    
C136  H16   1.083733 S    
C91   C105  1.408504 A    
O42   C206  1.282209 A    
C199  C206  1.419823 S    
O40   Zn10  1.991840 S    
C81   N33   1.442264 S    
C87   C103  1.404862 A    
C59   C72   1.400067 A    
C81   C97   1.404929 A    
C140  C172  1.425386 S    
C60   N12   1.433524 S    
C85   C101  1.404933 A    
C236  H99   1.113644 S    
C91   O131  1.384773 S    
O48   C208  1.282211 A    
C29   C47   1.409832 A    
C216  H38   1.112954 S    
C213  H30   1.109053 S    
C88   C104  1.404961 A    
C159  C167  1.405465 A    
C31   C45   1.409816 A    
C89   C105  1.408399 A    
C227  H71   1.114153 S    
C164  C180  1.428572 S    
C135  C143  1.396534 A    
C237  H102  1.111688 S    
C67   N19   1.433503 S    
O10   Zn6   1.990904 S    
C232  H88   1.109221 S    
N28   O104  1.300962 A    
C38   C52   1.418846 A    
O38   Zn10  1.991834 S    
C79   C115  1.411919 A    
O135  C215  1.412790 S    
O34   C202  1.282213 A    
O9    Zn5   1.990914 S    
C104  C112  1.408474 A    
C233  H89   1.114156 S    
C132  H12   1.083953 S    
C75   C91   1.404955 A    
C149  C161  1.405466 A    
N21   O89   1.300845 A    
O153  C233  1.410329 S    
C160  C166  1.405085 A    
C37   C61   1.416058 A    
C181  C189  1.196445 T    
C213  H31   1.110119 S    
