data_mof_unit_46542.cif
_audit_creation_date              2012-12-11T15:43:11-0500
_audit_creation_method            fapswitch 2.2
_symmetry_space_group_name_H-M    P1
_symmetry_Int_Tables_number       1
_space_group_crystal_system       triclinic
_cell_length_a                    19.389533
_cell_length_b                    11.12426
_cell_length_c                    18.732418
_cell_angle_alpha                 90.069799
_cell_angle_beta                  89.920649
_cell_angle_gamma                 90.013222
_cell_volume                      4040.46705482

loop_
_atom_site_label
_atom_site_type_symbol
_atom_type_description
_atom_site_fract_x
_atom_site_fract_y
_atom_site_fract_z
_atom_type_partial_charge
C1    C     C_R   0.711115 0.328923 0.139092 0.565998
C2    C     C_R   0.985804 0.990581 0.041364 -0.163327
C3    C     C_R   0.748282 0.433963 0.574820 0.021794
C4    C     C_R   0.727669 0.371360 0.354523 0.554549
C5    C     C_R   0.271719 0.374745 0.646662 0.552589
C6    C     C_R   0.227668 0.871358 0.354524 0.554567
C7    C     C_R   0.771719 0.874746 0.646662 0.552552
C8    C     C_R   0.531198 0.157494 0.352279 0.546259
C9    C     C_R   0.466483 0.156070 0.645823 0.539028
C10   C     C_R   0.031198 0.657494 0.352278 0.546242
C11   C     C_R   0.966483 0.656070 0.645823 0.539042
C12   C     C_R   0.741108 0.971076 0.353501 0.539305
C13   C     C_R   0.500677 0.495042 0.968705 -0.177521
C14   C     C_R   0.258492 0.973023 0.646525 0.537064
C15   C     C_R   0.241108 0.471076 0.353500 0.539311
C16   C     C_R   0.758492 0.473024 0.646524 0.537058
C17   C     C_R   0.499513 0.167342 0.923314 0.003309
C18   C     C_R   0.508816 0.161912 0.072488 -0.000813
C19   C     C_R   0.999497 0.667362 0.923328 0.003271
C20   C     C_R   0.008796 0.661877 0.072502 -0.000855
C21   C     C_R   0.498959 0.276736 0.962294 0.036920
C22   C     C_R   0.495500 0.272542 0.037837 0.019522
C23   C     C_R   0.998891 0.776739 0.962333 0.036915
C24   C     C_R   0.485933 0.490657 0.041248 -0.163475
C25   C     C_R   0.995435 0.772495 0.037875 0.019461
C26   C     C_R   0.517771 0.057654 0.031470 -0.164921
C27   C     C_R   0.511220 0.060233 0.958922 -0.182015
C28   C     C_R   0.017776 0.557639 0.031470 -0.164827
C29   C     C_R   0.011246 0.560250 0.958919 -0.181938
C30   C     C_3   0.649730 0.778419 0.425339 -0.266727
C31   C     C_3   0.573616 0.803019 0.436167 -0.440144
C32   C     C_3   0.294802 0.728466 0.596022 -0.248243
C33   C     C_3   0.371259 0.702783 0.605183 -0.432849
C34   C     C_3   0.149736 0.278411 0.425335 -0.266733
C35   C     C_R   0.781086 0.844031 0.938085 0.007149
C36   C     C_3   0.073623 0.303015 0.436161 -0.440141
C37   C     C_3   0.794802 0.228469 0.596020 -0.248245
C38   C     C_3   0.871259 0.202785 0.605181 -0.432847
C39   C     C_3   0.611573 0.807653 0.929021 -0.261157
C40   C     C_3   0.589112 0.745034 0.859732 -0.394136
C41   C     C_3   0.363787 0.949978 0.089597 -0.272460
C42   C     C_3   0.407103 0.925746 0.156130 -0.409890
C43   C     C_3   0.111616 0.307403 0.928850 -0.260867
C44   C     C_3   0.089018 0.244406 0.859727 -0.394373
C45   C     C_3   0.863718 0.450281 0.089576 -0.272478
C46   C     C_R   0.218860 0.838288 0.061263 -0.008017
C47   C     C_3   0.906989 0.426190 0.156158 -0.409894
C48   C     C_3   0.645892 0.656933 0.104649 -0.282704
C49   C     C_3   0.638886 0.692590 0.183111 -0.396300
C50   C     C_3   0.405623 0.745661 0.931228 -0.293914
C51   C     C_3   0.397399 0.732498 0.850482 -0.397732
C52   C     C_3   0.145833 0.156916 0.104586 -0.282716
C53   C     C_3   0.138771 0.192607 0.183036 -0.396279
C54   C     C_3   0.905685 0.245887 0.931265 -0.293922
C55   C     C_3   0.897427 0.232583 0.850530 -0.397741
C56   C     C_R   0.281139 0.343901 0.938090 0.007071
C57   C     C_R   0.718880 0.338328 0.061269 -0.008002
C58   C     C_R   0.733596 0.782319 0.981096 0.004522
C59   C     C_R   0.280131 0.808920 0.026592 0.020286
C60   C     C_R   0.233585 0.282309 0.981076 0.004458
C61   C     C_R   0.288468 0.329739 0.860917 0.575101
C62   C     C_R   0.780161 0.308998 0.026608 0.020268
C63   C     C_R   0.725894 0.810168 0.052600 0.003793
C64   C     C_R   0.289728 0.831786 0.954575 0.025337
C65   C     C_R   0.225851 0.310180 0.052568 0.003875
C66   C     C_R   0.789755 0.331857 0.954588 0.025314
C67   C     C_R   0.817913 0.951600 0.043975 -0.150254
C68   C     C_R   0.174446 0.904447 0.946018 -0.164439
C69   C     C_R   0.317985 0.451384 0.044015 -0.150316
C70   C     C_R   0.674471 0.404512 0.946032 -0.164433
C71   C     C_R   0.827732 0.919877 0.973220 -0.150518
C72   C     C_R   0.211109 0.828911 0.139093 0.565989
C73   C     C_R   0.163998 0.877167 0.018460 -0.172310
C74   C     C_R   0.327827 0.419626 0.973260 -0.150564
C75   C     C_R   0.664023 0.377221 0.018469 -0.172310
C76   C     C_3   0.661419 0.734454 0.975696 -0.103179
C77   C     C_3   0.353882 0.833913 0.044706 -0.109471
C78   C     C_3   0.161444 0.234338 0.975627 -0.103153
C79   C     C_3   0.853896 0.334149 0.044722 -0.109472
C80   C     C_3   0.653759 0.766580 0.055892 -0.131748
C81   C     C_3   0.365092 0.850418 0.963778 -0.111352
C82   C     C_3   0.153720 0.266539 0.055814 -0.131740
C83   C     C_R   0.788451 0.829778 0.860925 0.575056
C84   C     C_3   0.865107 0.350609 0.963792 -0.111292
C85   C     C_R   0.762056 0.905148 0.083249 0.011933
C86   C     C_R   0.240361 0.894915 0.915311 0.000082
C87   C     C_R   0.262057 0.405084 0.083253 0.011917
C88   C     C_R   0.740377 0.394950 0.915320 0.000091
C89   C     C_R   0.533139 0.154947 0.146257 0.528867
C90   C     C_R   0.468514 0.156089 0.852475 0.536588
C91   C     C_R   0.033137 0.654938 0.146261 0.528843
C92   C     C_R   0.968509 0.656094 0.852481 0.536589
C93   C     C_R   0.493566 0.158714 0.573005 0.012797
C94   C     C_R   0.503990 0.389726 0.928755 -0.107274
C95   C     C_R   0.499873 0.166604 0.422515 0.010922
C96   C     C_R   0.993567 0.658715 0.573005 0.012800
C97   C     C_R   0.999872 0.666604 0.422515 0.010917
C98   C     C_R   0.485900 0.055077 0.531094 0.023493
C99   C     C_R   0.488010 0.059821 0.457698 0.021287
C100  C     C_R   0.985905 0.555076 0.531095 0.023501
C101  C     C_R   0.988012 0.559821 0.457698 0.021279
C102  C     C_R   0.507043 0.271316 0.463175 -0.175398
C103  C     C_R   0.508581 0.266531 0.538155 -0.180732
C104  C     C_R   0.007040 0.771317 0.463175 -0.175399
C105  C     C_R   0.482176 0.380004 0.075765 -0.099011
C106  C     C_R   0.008579 0.766532 0.538154 -0.180732
C107  C     C_3   0.426056 0.971225 0.528701 -0.241712
C108  C     C_3   0.426756 0.980885 0.448754 -0.291045
C109  C     C_3   0.926065 0.471214 0.528702 -0.241715
C110  C     C_3   0.926762 0.480876 0.448755 -0.291046
C111  C     C_R   0.755985 0.908994 0.574064 -0.014281
C112  C     C_R   0.244955 0.900872 0.427761 -0.012280
C113  C     C_R   0.255986 0.408990 0.574063 -0.014275
C114  C     C_R   0.744957 0.400876 0.427760 -0.012280
C115  C     C_R   0.808865 0.959988 0.534294 -0.001786
C116  C     C_R   0.003874 0.889766 0.928831 -0.107254
C117  C     C_R   0.203855 0.986309 0.460226 -0.015246
C118  C     C_R   0.308866 0.459986 0.534293 -0.001791
C119  C     C_R   0.703857 0.486314 0.460224 -0.015246
C120  C     C_R   0.804072 0.975209 0.462226 0.009954
C121  C     C_R   0.208130 0.008190 0.532422 0.019174
C122  C     C_R   0.304073 0.475207 0.462225 0.009955
C123  C     C_R   0.708131 0.508194 0.532421 0.019172
C124  C     C_R   0.696381 0.865944 0.462735 -0.001229
C125  C     C_R   0.279846 0.831964 0.546530 -0.026439
C126  C     C_R   0.196385 0.365936 0.462733 -0.001244
C127  C     C_R   0.982076 0.879903 0.075839 -0.098845
C128  C     C_R   0.779847 0.331968 0.546529 -0.026440
C129  C     C_R   0.698540 0.862988 0.537882 -0.140204
C130  C     C_R   0.281255 0.818418 0.471657 -0.144838
C131  C     C_R   0.198543 0.362979 0.537879 -0.140193
C132  C     C_R   0.781256 0.318422 0.471656 -0.144835
C133  C     C_3   0.881350 0.919283 0.529185 -0.245350
C134  C     C_3   0.127364 0.974671 0.465254 -0.272464
C135  C     C_3   0.381351 0.419283 0.529185 -0.245352
C136  C     C_3   0.627366 0.474675 0.465253 -0.272463
C137  C     C_R   0.742492 0.967930 0.148724 0.536640
C138  C     C_R   0.000525 0.995039 0.968821 -0.177547
C139  C     C_R   0.257803 0.967005 0.851543 0.531289
C140  C     C_R   0.242490 0.467925 0.148719 0.536633
C141  C     C_R   0.757807 0.467014 0.851545 0.531293
C142  C     C_3   0.877348 0.942304 0.450250 -0.278323
C143  C     C_3   0.131754 0.012244 0.541526 -0.271873
C144  C     C_3   0.377350 0.442305 0.450250 -0.278322
C145  C     C_3   0.631756 0.512247 0.541525 -0.271872
C146  C     C_R   0.749284 0.926740 0.425161 0.020627
C147  C     C_R   0.248281 0.933959 0.574821 0.021802
C148  C     C_R   0.249287 0.426736 0.425160 0.020628
Cr1   Cr    Cr6+3 0.772010 0.169670 0.250090 0.982030
Cr2   Cr    Cr6+3 0.383290 0.010760 0.749160 0.964778
Cr3   Cr    Cr6+3 0.116710 0.510760 0.250840 0.968379
Cr4   Cr    Cr6+3 0.883290 0.510760 0.749160 0.964793
Cr5   Cr    Cr6+3 0.227990 0.169670 0.749910 0.976232
Cr6   Cr    Cr6+3 0.272010 0.669670 0.250090 0.982025
Cr7   Cr    Cr6+3 0.727990 0.669670 0.749910 0.976298
Cr8   Cr    Cr6+3 0.615000 0.323260 0.249260 0.973802
Cr9   Cr    Cr6+3 0.385000 0.323260 0.750740 0.977573
Cr10  Cr    Cr6+3 0.115000 0.823260 0.249260 0.973825
Cr11  Cr    Cr6+3 0.885000 0.823260 0.750740 0.977581
Cr12  Cr    Cr6+3 0.616710 0.010760 0.250840 0.968354
H1    H     H_    0.528595 0.971519 0.055270 0.132803
H2    H     H_    0.381384 0.029821 0.427003 0.135795
H3    H     H_    0.813928 0.489921 0.106860 0.163875
H4    H     H_    0.597513 0.760706 0.190034 0.144548
H5    H     H_    0.625022 0.612836 0.215591 0.161887
H6    H     H_    0.688539 0.728639 0.203334 0.162912
H7    H     H_    0.598969 0.607297 0.088803 0.151862
H8    H     H_    0.690962 0.596337 0.098071 0.180728
H9    H     H_    0.417856 0.812823 0.822659 0.184775
H10   H     H_    0.426864 0.652713 0.831966 0.115777
H11   H     H_    0.342489 0.718392 0.836010 0.175160
H12   H     H_    0.460052 0.760156 0.944530 0.127121
H13   H     H_    0.942151 0.381623 0.547362 0.136300
H14   H     H_    0.389227 0.660169 0.956162 0.149410
H15   H     H_    0.097399 0.260736 0.189918 0.144539
H16   H     H_    0.124879 0.112865 0.215515 0.161806
H17   H     H_    0.188413 0.228651 0.203293 0.162955
H18   H     H_    0.098924 0.107257 0.088713 0.151885
H19   H     H_    0.190914 0.096332 0.098050 0.180750
H20   H     H_    0.917855 0.312874 0.822650 0.184828
H21   H     H_    0.926902 0.152788 0.832047 0.115723
H22   H     H_    0.842515 0.218410 0.836089 0.175138
H23   H     H_    0.960114 0.260493 0.944519 0.127185
H24   H     H_    0.881387 0.529807 0.427007 0.135792
H25   H     H_    0.889347 0.160407 0.956252 0.149244
H26   H     H_    0.660078 0.812208 0.567014 0.132841
H27   H     H_    0.304180 0.738393 0.448790 0.151222
H28   H     H_    0.160081 0.312197 0.567011 0.132844
H29   H     H_    0.804181 0.238397 0.448788 0.151225
H30   H     H_    0.883582 0.822356 0.542772 0.165394
H31   H     H_    0.116316 0.878288 0.459460 0.169953
H32   H     H_    0.383584 0.322355 0.542771 0.165394
H33   H     H_    0.510771 0.976278 0.930544 0.139003
H34   H     H_    0.616318 0.378292 0.459459 0.169956
H35   H     H_    0.918392 0.978645 0.557175 0.133266
H36   H     H_    0.097260 0.034956 0.430028 0.137055
H37   H     H_    0.418394 0.478645 0.557176 0.133267
H38   H     H_    0.597262 0.534959 0.430026 0.137050
H39   H     H_    0.908696 0.020611 0.432651 0.132115
H40   H     H_    0.112407 0.104586 0.551917 0.133711
H41   H     H_    0.408697 0.520612 0.432651 0.132114
H42   H     H_    0.612407 0.604589 0.551917 0.133719
H43   H     H_    0.515538 0.398196 0.872524 0.129748
H44   H     H_    0.028608 0.471502 0.055264 0.132783
H45   H     H_    0.470025 0.379929 0.132091 0.133717
H46   H     H_    0.015403 0.898310 0.872600 0.129758
H47   H     H_    0.969920 0.879765 0.132164 0.133690
H48   H     H_    0.008283 0.079919 0.942918 0.113705
H49   H     H_    0.978512 0.073016 0.071194 0.096584
H50   H     H_    0.508515 0.579884 0.942764 0.113721
H51   H     H_    0.478658 0.573124 0.071050 0.096588
H52   H     H_    0.850404 0.022152 0.064989 0.142250
H53   H     H_    0.133457 0.946639 0.916518 0.134036
H54   H     H_    0.350524 0.521842 0.065060 0.142233
H55   H     H_    0.010845 0.476317 0.930520 0.138924
H56   H     H_    0.633494 0.446742 0.916537 0.134049
H57   H     H_    0.868551 0.963758 0.944488 0.163560
H58   H     H_    0.115261 0.897398 0.042715 0.163247
H59   H     H_    0.368698 0.463392 0.944546 0.163589
H60   H     H_    0.615294 0.397467 0.042729 0.163295
H61   H     H_    0.160591 0.136543 0.965562 0.154408
H62   H     H_    0.879366 0.253170 0.067609 0.137232
H63   H     H_    0.660490 0.636666 0.965602 0.154251
H64   H     H_    0.379298 0.752860 0.067565 0.137280
H65   H     H_    0.617103 0.840306 0.068197 0.152316
H66   H     H_    0.879218 0.510613 0.553179 0.170431
H67   H     H_    0.382649 0.940835 0.946490 0.165484
H68   H     H_    0.117045 0.340253 0.068071 0.152204
H69   H     H_    0.882624 0.441039 0.946482 0.165518
H70   H     H_    0.510704 0.356883 0.436314 0.125956
H71   H     H_    0.512434 0.348780 0.568424 0.118381
H72   H     H_    0.010701 0.856884 0.436314 0.125957
H73   H     H_    0.012431 0.848781 0.568423 0.118383
H74   H     H_    0.560547 0.813766 0.493502 0.139241
H75   H     H_    0.560536 0.884705 0.406770 0.216868
H76   H     H_    0.542607 0.728001 0.413893 0.107731
H77   H     H_    0.938473 0.394531 0.421582 0.134973
H78   H     H_    0.661399 0.765698 0.367893 0.157792
H79   H     H_    0.661732 0.693107 0.449301 0.154116
H80   H     H_    0.396466 0.689349 0.552536 0.133821
H81   H     H_    0.396199 0.776993 0.635058 0.162317
H82   H     H_    0.377855 0.621015 0.638103 0.161046
H83   H     H_    0.272538 0.742902 0.650038 0.144657
H84   H     H_    0.265901 0.651092 0.575798 0.151232
H85   H     H_    0.060547 0.313710 0.493497 0.139214
H86   H     H_    0.060552 0.384733 0.406790 0.216885
H87   H     H_    0.042611 0.228023 0.413856 0.107748
H88   H     H_    0.379210 0.010634 0.553175 0.170423
H89   H     H_    0.161406 0.265694 0.367889 0.157804
H90   H     H_    0.161736 0.193098 0.449295 0.154121
H91   H     H_    0.896465 0.189350 0.552534 0.133821
H92   H     H_    0.896199 0.276995 0.635055 0.162316
H93   H     H_    0.877855 0.121017 0.638101 0.161046
H94   H     H_    0.772538 0.242904 0.650036 0.144655
H95   H     H_    0.765901 0.151096 0.575796 0.151230
H96   H     H_    0.882894 0.860027 0.416936 0.135695
H97   H     H_    0.112627 0.943745 0.579721 0.139292
H98   H     H_    0.382897 0.360027 0.416936 0.135700
H99   H     H_    0.438464 0.894537 0.421583 0.134969
H100  H     H_    0.612629 0.443748 0.579720 0.139288
H101  H     H_    0.593563 0.645899 0.862890 0.147389
H102  H     H_    0.534948 0.767886 0.848286 0.102641
H103  H     H_    0.617273 0.778484 0.812619 0.192564
H104  H     H_    0.564641 0.818291 0.961510 0.109751
H105  H     H_    0.632109 0.898895 0.917363 0.170456
H106  H     H_    0.381527 0.861324 0.192453 0.178166
H107  H     H_    0.457644 0.886691 0.141033 0.146937
H108  H     H_    0.414749 0.010919 0.185954 0.155981
H109  H     H_    0.388664 0.021219 0.057641 0.146831
H110  H     H_    0.442136 0.881632 0.547362 0.136308
H111  H     H_    0.314024 0.989651 0.106943 0.163957
H112  H     H_    0.117451 0.276815 0.812546 0.193094
H113  H     H_    0.093000 0.145250 0.863268 0.146498
H114  H     H_    0.034997 0.267990 0.848062 0.102844
H115  H     H_    0.064730 0.318364 0.961361 0.109718
H116  H     H_    0.132212 0.398516 0.916961 0.170594
H117  H     H_    0.881375 0.361899 0.192532 0.178252
H118  H     H_    0.957525 0.387044 0.141126 0.147085
H119  H     H_    0.914645 0.511437 0.185904 0.155837
H120  H     H_    0.888601 0.521508 0.057611 0.146842
O1    O     O_R   0.787520 0.042810 0.170440 -0.539842
O2    O     O_R   0.454050 0.051210 0.669140 -0.523737
O3    O     O_R   0.045950 0.551210 0.330860 -0.529545
O4    O     O_R   0.954050 0.551210 0.669140 -0.523729
O5    O     O_R   0.681390 0.959480 0.325510 -0.508461
O6    O     O_R   0.318610 0.959480 0.674490 -0.515456
O7    O     O_R   0.181390 0.459480 0.325510 -0.508460
O8    O     O_R   0.818610 0.459480 0.674490 -0.515464
O9    O     O_3   0.667900 0.167900 0.250060 -0.261471
O10   O     O_3   0.332100 0.167900 0.749940 -0.265932
O11   O     O_3   0.167900 0.667900 0.250060 -0.261482
O12   O     O_R   0.212480 0.042810 0.829560 -0.540068
O13   O     O_3   0.832100 0.667900 0.749940 -0.265908
O14   O     O_R   0.765640 0.292100 0.175020 -0.507244
O15   O     O_R   0.234360 0.292100 0.824980 -0.506240
O16   O     O_R   0.265640 0.792100 0.175020 -0.507230
O17   O     O_R   0.734360 0.792100 0.824980 -0.506037
O18   O     O_R   0.670190 0.408840 0.168540 -0.544882
O19   O     O_R   0.329810 0.408840 0.831460 -0.531323
O20   O     O_R   0.170190 0.908840 0.168540 -0.544845
O21   O     O_R   0.829810 0.908840 0.831460 -0.531384
O22   O     O_R   0.556620 0.251410 0.175160 -0.523585
O23   O     O_R   0.287520 0.542810 0.170440 -0.539841
O24   O     O_R   0.443380 0.251410 0.824840 -0.523935
O25   O     O_R   0.056620 0.751410 0.175160 -0.523584
O26   O     O_R   0.943380 0.751410 0.824840 -0.523915
O27   O     O_R   0.545960 0.049620 0.170320 -0.540831
O28   O     O_R   0.454040 0.049620 0.829680 -0.537133
O29   O     O_R   0.045960 0.549620 0.170320 -0.540836
O30   O     O_R   0.954040 0.549620 0.829680 -0.537131
O31   O     O_R   0.681390 0.958010 0.176690 -0.510575
O32   O     O_R   0.318610 0.958010 0.823310 -0.513428
O33   O     O_R   0.181390 0.458010 0.176690 -0.510533
O34   O     O_R   0.712480 0.542810 0.829560 -0.540195
O35   O     O_R   0.818610 0.458010 0.823310 -0.513433
O36   O     O_R   0.787510 0.044390 0.330970 -0.523186
O37   O     O_R   0.212490 0.044390 0.669030 -0.523378
O38   O     O_R   0.287510 0.544390 0.330970 -0.523191
O39   O     O_R   0.712490 0.544390 0.669030 -0.523337
O40   O     O_R   0.765630 0.293570 0.323840 -0.510475
O41   O     O_R   0.234370 0.293570 0.676160 -0.507447
O42   O     O_R   0.265630 0.793570 0.323840 -0.510462
O43   O     O_R   0.734370 0.793570 0.676160 -0.507413
O44   O     O_R   0.670190 0.410420 0.329080 -0.523801
O45   O     O_R   0.556610 0.252880 0.323980 -0.511092
O46   O     O_R   0.329810 0.410420 0.670920 -0.526172
O47   O     O_R   0.170190 0.910420 0.329080 -0.523780
O48   O     O_R   0.829810 0.910420 0.670920 -0.526174
O49   O     O_R   0.443390 0.252880 0.676020 -0.512168
O50   O     O_R   0.056610 0.752880 0.323980 -0.511101
O51   O     O_R   0.943390 0.752880 0.676020 -0.512164
O52   O     O_R   0.545950 0.051210 0.330860 -0.529549

loop_
_geom_bond_atom_site_label_1
_geom_bond_atom_site_label_2
_ccdc_geom_bond_type
C44   H114  S    
C120  C146  A    
C106  H73   S    
C55   H20   S    
Cr6   O38   S    
C110  H77   S    
Cr5   O15   S    
Cr6   O16   S    
C1    O14   A    
C109  H13   S    
C72   O20   A    
C127  H47   S    
C49   H4    S    
C134  C143  S    
C15   O38   A    
C139  O32   A    
C123  C145  S    
C18   C26   A    
C121  C147  A    
C15   O7    A    
C122  C148  A    
C80   H65   S    
C42   H106  S    
C46   C72   S    
C95   C102  A    
C44   H112  S    
C134  H36   S    
C35   C71   A    
C100  C109  S    
C21   C22   A    
C63   C85   A    
Cr8   O22   S    
C11   O4    A    
C54   C84   S    
Cr8   O44   S    
C47   H119  S    
C65   C87   A    
C45   C47   S    
Cr10  O50   S    
C31   H74   S    
C67   C85   A    
C7    O43   A    
C2    C138  A    
C1    O18   A    
C51   H9    S    
Cr1   O40   S    
C43   H116  S    
C20   C28   A    
C101  C110  S    
C82   H68   S    
C17   C21   A    
Cr1   O14   S    
Cr3   O7    S    
C19   C23   A    
C43   C44   S    
C37   C38   S    
C78   C82   S    
Cr5   O10   S    
Cr4   O8    S    
C69   C74   A    
C34   H90   S    
C68   H53   S    
C72   O16   A    
C60   C65   A    
C145  H42   S    
C79   H62   S    
Cr2   O32   S    
C5    C113  S    
C130  H27   S    
C18   C89   S    
C69   H54   S    
Cr11  O13   S    
C53   H17   S    
C135  H37   S    
C39   H105  S    
C119  C123  A    
C26   H1    S    
C119  C136  S    
C13   C94   A    
C45   H3    S    
C49   H6    S    
C65   C82   S    
C30   C31   S    
C9    O49   A    
Cr6   O23   S    
C140  O33   A    
C95   C99   A    
C135  H32   S    
Cr11  O26   S    
C37   H94   S    
C102  H70   S    
Cr1   O1    S    
C54   H23   S    
C116  H46   S    
C47   H117  S    
C50   C81   S    
C141  O35   A    
C142  H39   S    
C33   H81   S    
C87   C140  S    
C93   C103  A    
C58   C76   S    
C99   C108  S    
C60   C78   S    
C133  C142  S    
C35   C58   A    
C66   C88   A    
C79   C84   S    
C29   H55   S    
Cr7   O43   S    
Cr5   O12   S    
Cr6   O11   S    
C142  H96   S    
Cr12  O5    S    
C118  C122  A    
C19   C92   S    
C38   H92   S    
C54   H25   S    
C107  C108  S    
C41   H109  S    
C4    O40   A    
C67   C71   A    
C114  C119  A    
C2    C127  A    
C32   H84   S    
C107  H110  S    
C36   H85   S    
C10   O50   A    
C8    C95   S    
C30   H78   S    
C24   H51   S    
C63   C80   S    
C83   O21   A    
C103  H71   S    
C62   C66   A    
C17   C27   A    
C107  H88   S    
C39   C40   S    
C138  H48   S    
C3    C128  A    
C124  C146  A    
C14   C147  S    
C134  H31   S    
C10   C97   S    
C136  H34   S    
C1    C57   S    
C40   H101  S    
Cr12  O31   S    
Cr9   O19   S    
Cr10  O20   S    
C8    O45   A    
C86   C139  S    
C91   O25   A    
Cr3   O29   S    
Cr2   O10   S    
Cr6   O42   S    
C31   H75   S    
C88   C141  S    
C52   C53   S    
C53   H15   S    
Cr1   O36   S    
C54   C55   S    
C2    H49   S    
C18   C22   A    
C136  H38   S    
Cr9   O10   S    
C76   C80   S    
C109  H66   S    
C22   C105  A    
C57   C75   A    
Cr4   O13   S    
C52   H19   S    
C33   H80   S    
C48   H7    S    
Cr7   O39   S    
C14   O6    A    
C96   C100  A    
C100  C101  A    
C55   H22   S    
C9    O2    A    
C41   H111  S    
C34   C36   S    
C102  C103  A    
C64   C81   S    
C110  H24   S    
C144  H41   S    
C90   O24   A    
Cr2   O28   S    
Cr9   O46   S    
C70   C75   A    
Cr3   O33   S    
C36   H87   S    
C108  H99   S    
C50   H12   S    
Cr2   O6    S    
C112  C130  A    
C42   H107  S    
C14   O37   A    
C46   C73   A    
C3    C16   S    
Cr4   O4    S    
Cr7   O34   S    
C11   C96   S    
Cr12  O52   S    
C61   O19   A    
C41   C42   S    
C143  H97   S    
C104  C106  A    
C43   C78   S    
C143  H40   S    
C26   C27   A    
Cr4   O35   S    
C4    C114  S    
C28   C29   A    
C39   H104  S    
C112  C117  A    
C40   H103  S    
C43   H115  S    
C20   C25   A    
C98   C99   A    
C36   H86   S    
C23   C116  A    
C111  C129  A    
C3    C123  A    
C113  C131  A    
C69   C87   A    
C37   C128  S    
C91   O29   A    
C44   H113  S    
C137  O1    A    
C129  H26   S    
Cr10  O11   S    
C117  C134  S    
C64   C86   A    
C139  O12   A    
C133  H30   S    
C76   H63   S    
C20   C91   S    
Cr9   O49   S    
C12   O36   A    
C6    O42   A    
C56   C74   A    
C125  C147  A    
C35   C83   S    
C115  C133  S    
Cr4   O30   S    
C98   C107  S    
C56   C60   A    
C10   O3    A    
C49   H5    S    
C77   H64   S    
C77   C81   S    
C133  H35   S    
C50   C51   S    
C67   H52   S    
C45   C79   S    
C84   H69   S    
C83   O17   A    
C48   C49   S    
Cr9   O24   S    
C19   C29   A    
C85   C137  S    
C8    O52   A    
C126  C148  A    
C141  O34   A    
C6    C112  S    
C51   H10   S    
C17   C90   S    
Cr12  O27   S    
C105  H45   S    
Cr7   O17   S    
Cr11  O51   S    
C71   H57   S    
Cr11  O21   S    
C32   C33   S    
C25   C127  A    
Cr5   O37   S    
C109  C110  S    
C15   C148  S    
C75   H60   S    
C7    C111  S    
C124  C129  A    
C34   H89   S    
Cr3   O11   S    
C6    O47   A    
C52   H18   S    
C97   C104  A    
C38   H93   S    
C56   C61   S    
C132  H29   S    
C118  C135  S    
C5    O46   A    
C46   C59   A    
C68   C86   A    
C121  C143  S    
C122  C144  S    
C30   H79   S    
C70   C88   A    
Cr12  O9    S    
C59   C77   S    
C57   C62   A    
C92   O30   A    
C59   C64   A    
C92   O26   A    
Cr7   O13   S    
Cr8   O18   S    
C89   O27   A    
C41   C77   S    
C90   O28   A    
C104  H72   S    
C21   C94   A    
Cr2   O2    S    
C12   C146  S    
C117  C121  A    
C40   H102  S    
C125  C130  A    
C61   O15   A    
C74   H59   S    
C73   H58   S    
C27   H33   S    
C16   O8    A    
C144  H98   S    
C136  C145  S    
C47   H118  S    
C34   C126  S    
C131  H28   S    
Cr10  O47   S    
C11   O51   A    
C145  H100  S    
C33   H82   S    
C128  C132  A    
C116  C138  A    
Cr1   O9    S    
C28   H44   S    
C62   C79   S    
C120  C142  S    
C37   H95   S    
C68   C73   A    
C108  H2    S    
C13   C24   A    
C32   C125  S    
C137  O31   A    
Cr3   O3    S    
C12   O5    A    
C38   H91   S    
C48   H8    S    
C45   H120  S    
C55   H21   S    
C39   C76   S    
C52   C82   S    
C89   O22   A    
C140  O23   A    
C5    O41   A    
C135  C144  S    
C30   C124  S    
C32   H83   S    
C42   H108  S    
C9    C93   S    
Cr5   O41   S    
C58   C63   A    
C96   C106  A    
C81   H67   S    
C114  C132  A    
C13   H50   S    
Cr8   O45   S    
C24   C105  A    
C16   O39   A    
C31   H76   S    
C50   H14   S    
C70   H56   S    
C48   C80   S    
C51   H11   S    
C126  C131  A    
Cr11  O48   S    
Cr10  O25   S    
Cr8   O9    S    
C23   C25   A    
C78   H61   S    
C66   C84   S    
C113  C118  A    
C115  C120  A    
C7    O48   A    
C4    O44   A    
C111  C115  A    
C94   H43   S    
C93   C98   A    
C97   C101  A    
C53   H16   S    
