data_mof_unit_13039.cif
_audit_creation_date              2012-12-10T17:02:30-0500
_audit_creation_method            fapswitch 2.2
_symmetry_space_group_name_H-M    P1
_symmetry_Int_Tables_number       1
_space_group_crystal_system       triclinic
_cell_length_a                    10.872332
_cell_length_b                    11.080835
_cell_length_c                    9.764305
_cell_angle_alpha                 111.241279
_cell_angle_beta                  96.579991
_cell_angle_gamma                 92.838029
_cell_volume                      1083.93350411

loop_
_atom_site_label
_atom_site_type_symbol
_atom_type_description
_atom_site_fract_x
_atom_site_fract_y
_atom_site_fract_z
_atom_type_partial_charge
C1    C     C_R   0.497773 0.254664 0.440701 0.934451
C2    C     C_R   0.509764 0.745911 0.559209 0.891083
C3    C     C_2   0.501283 0.116163 0.408333 -0.297639
C4    C     C_2   0.519598 0.885020 0.591432 -0.306625
C5    C     C_2   0.526810 0.070905 0.517444 0.511862
C6    C     C_2   0.521326 0.931399 0.482455 0.532125
C7    C     C_2   0.513378 0.508829 0.080680 0.054759
C8    C     C_2   0.495787 0.482803 0.917768 0.092644
C9    C     C_R   0.262008 0.483538 0.499733 0.825771
C10   C     C_R   0.737727 0.497050 0.495567 0.877731
C11   C     C_R   0.135692 0.552754 0.777885 0.511828
C12   C     C_R   0.836730 0.308583 0.233222 0.464245
C13   C     C_R   0.093157 0.644763 0.898586 0.512098
C14   C     C_R   0.886129 0.238831 0.105592 0.564753
C15   C     C_R   0.993339 0.712495 0.875153 0.148974
C16   C     C_R   0.012999 0.229494 0.111952 0.164013
C17   C     C_R   0.926520 0.675677 0.731899 0.152110
C18   C     C_R   0.088654 0.285279 0.249188 0.137265
C19   C     C_R   0.956502 0.564858 0.614945 -0.126202
C20   C     C_R   0.045742 0.382097 0.370005 -0.084703
C21   C     C_R   0.074975 0.523718 0.631955 -0.164670
C22   C     C_R   0.915721 0.394723 0.363042 -0.172715
C23   C     C_R   0.871538 0.489936 0.486566 -0.009027
C24   C     C_R   0.126930 0.455939 0.502624 0.028337
Cu1   Cu    Cu3+1 0.521920 0.521810 0.644910 1.083084
Cu2   Cu    Cu3+1 0.478080 0.478190 0.355090 1.110389
H1    H     H_    0.525822 0.950405 0.706598 0.205707
H2    H     H_    0.479979 0.050071 0.293161 0.207820
H3    H     H_    0.431265 0.401566 0.843714 0.222894
H4    H     H_    0.585328 0.582926 0.153491 0.175779
H5    H     H_    0.615060 0.631667 0.935691 0.227050
H6    H     H_    0.377680 0.375247 0.065815 0.243717
N1    N     N_2   0.445130 0.445420 0.137360 -0.247587
N2    N     N_2   0.554870 0.554580 0.862640 -0.283485
O1    O     O_R   0.511700 0.332340 0.577400 -0.532629
O2    O     O_R   0.488300 0.667660 0.422600 -0.513209
O3    O     O_R   0.474680 0.295500 0.332650 -0.517789
O4    O     O_R   0.525320 0.704500 0.667350 -0.558575
O5    O     O_R   0.338170 0.518410 0.622370 -0.539623
O6    O     O_R   0.661830 0.481590 0.377630 -0.540440
O7    O     O_R   0.301150 0.481570 0.377630 -0.558954
O8    O     O_R   0.698850 0.518430 0.622370 -0.572762
Br1   Br    Br    0.077099 0.121437 0.937593 -0.250286
Br2   Br    Br    0.946495 0.849344 0.041944 -0.248381
F1    F     F_    0.223774 0.479521 0.806355 -0.628652
F2    F     F_    0.714273 0.277217 0.229482 -0.606856
F3    F     F_    0.151863 0.670749 0.037999 -0.565471
F4    F     F_    0.808463 0.167682 0.979451 -0.533810
Br3   Br    Br    0.818809 0.794831 0.690925 -0.350139
Br4   Br    Br    0.213378 0.181011 0.285674 -0.401089
F5    F     F_    0.515834 0.850628 0.337693 -0.642234
F6    F     F_    0.554718 0.152538 0.662451 -0.626937

loop_
_geom_bond_atom_site_label_1
_geom_bond_atom_site_label_2
_ccdc_geom_bond_type
Cu1   O8    S    
C19   C23   A    
C5    F6    S    
C15   C17   A    
C10   C23   S    
C10   O8    A    
C11   C13   A    
C2    O4    A    
Cu2   N1    S    
C2    C4    S    
C1    O3    A    
Cu1   N2    S    
C3    C5    D    
H6    N1    S    
H5    N2    S    
C7    C8    S    
Cu2   O3    S    
C7    H4    S    
C8    N2    D    
Cu1   O5    S    
C7    N1    D    
C16   Br1   S    
Cu2   O6    S    
Cu1   O1    S    
C9    C24   S    
C8    H3    S    
C4    C6    D    
C3    H2    S    
C19   C21   A    
C12   C14   A    
C15   Br2   S    
C18   C20   A    
C13   C15   A    
C5    C6    S    
Cu1   O4    S    
C14   C16   A    
C11   F1    S    
C2    O2    A    
C12   C22   A    
C9    O5    A    
C4    H1    S    
C18   Br4   S    
C12   F2    S    
C21   C24   A    
C17   Br3   S    
C13   F3    S    
C1    O1    A    
C20   C24   A    
C22   C23   A    
C10   O6    A    
C14   F4    S    
C17   C19   A    
Cu1   Cu2   S    
C9    O7    A    
C11   C21   A    
C16   C18   A    
Cu2   O2    S    
Cu2   O7    S    
C20   C22   A    
C1    C3    S    
C6    F5    S    
