data_mof_unit_42330.cif
_audit_creation_date              2012-12-10T16:51:16-0500
_audit_creation_method            fapswitch 2.2
_symmetry_space_group_name_H-M    P1
_symmetry_Int_Tables_number       1
_space_group_crystal_system       triclinic
_cell_length_a                    27.813229
_cell_length_b                    8.669795
_cell_length_c                    7.455885
_cell_angle_alpha                 103.151224
_cell_angle_beta                  94.688061
_cell_angle_gamma                 92.786856
_cell_volume                      1740.67484308

loop_
_atom_site_label
_atom_site_type_symbol
_atom_type_description
_atom_site_fract_x
_atom_site_fract_y
_atom_site_fract_z
_atom_type_partial_charge
C1    C     C_R   0.498517 0.199599 0.453024 0.847460
C2    C     C_R   0.501482 0.800401 0.546975 0.847454
C3    C     C_R   0.102082 0.497428 0.505140 -0.136887
C4    C     C_R   0.897918 0.502566 0.494860 -0.136886
C5    C     C_R   0.124183 0.353169 0.450149 -0.154827
C6    C     C_R   0.875816 0.646825 0.549850 -0.154830
C7    C     C_R   0.095043 0.212779 0.379272 0.651511
C8    C     C_R   0.904956 0.787215 0.620728 0.651510
C9    C     C_R   0.131320 0.640376 0.560188 -0.117090
C10   C     C_R   0.868679 0.359618 0.439812 -0.117086
C11   C     C_R   0.354467 0.498042 0.504944 -0.289132
C12   C     C_R   0.645533 0.501954 0.495055 -0.289139
C13   C     C_R   0.970772 0.353441 0.447907 -0.029827
C14   C     C_R   0.029228 0.646554 0.552094 -0.029827
C15   C     C_R   0.978147 0.646123 0.557637 -0.008162
C16   C     C_R   0.021852 0.353871 0.442363 -0.008162
C17   C     C_R   0.949156 0.500795 0.498379 0.006368
C18   C     C_R   0.050843 0.499200 0.501621 0.006368
C19   C     C_R   0.940160 0.211149 0.412571 0.594128
C20   C     C_R   0.059840 0.788846 0.587430 0.594129
C21   C     C_R   0.890243 0.215537 0.402159 -0.112151
C22   C     C_R   0.109757 0.784458 0.597842 -0.112150
C23   C     C_R   0.407452 0.499344 0.501476 0.858025
C24   C     C_R   0.592547 0.500655 0.498524 0.858025
C25   C     C_R   0.045076 0.214713 0.370020 -0.129984
C26   C     C_R   0.954924 0.785281 0.629980 -0.129982
C27   C     C_2   0.497828 0.031488 0.426730 -0.307950
C28   C     C_2   0.502172 0.968512 0.573270 -0.307948
C29   C     C_R   0.174966 0.354978 0.459920 0.642797
C30   C     C_R   0.825033 0.645016 0.540080 0.642817
C31   C     C_R   0.181767 0.636682 0.566775 0.678688
C32   C     C_R   0.818232 0.363312 0.433224 0.678669
C33   C     C_R   0.273760 0.475115 0.345755 -0.222794
C34   C     C_R   0.726239 0.524838 0.654238 -0.222810
C35   C     C_R   0.323664 0.476402 0.339795 0.644314
C36   C     C_R   0.676335 0.523552 0.660198 0.644328
C37   C     C_R   0.334031 0.518041 0.674657 -0.300479
C38   C     C_R   0.665970 0.481993 0.325348 -0.300491
C39   C     C_R   0.283983 0.516928 0.679650 0.720699
C40   C     C_R   0.716017 0.483106 0.320356 0.720704
C41   C     C_R   0.253804 0.495362 0.514922 0.089983
C42   C     C_R   0.746196 0.504632 0.485077 0.089986
Cu1   Cu    Cu3+1 0.505380 0.517380 0.684380 1.163353
Cu2   Cu    Cu3+1 0.494620 0.482620 0.315620 1.163354
H1    H     H_    0.356709 0.534716 0.803694 0.259380
H2    H     H_    0.643292 0.465351 0.196317 0.259405
H3    H     H_    0.749631 0.541069 0.781535 0.231992
H4    H     H_    0.250368 0.458851 0.218453 0.231981
H5    H     H_    0.868475 0.103926 0.371285 0.236562
H6    H     H_    0.131525 0.896068 0.628716 0.236561
H7    H     H_    0.025742 0.105339 0.296775 0.248531
H8    H     H_    0.974258 0.894656 0.703224 0.248532
H9    H     H_    0.493756 0.959287 0.285794 0.205836
H10   H     H_    0.506244 0.040712 0.714206 0.205837
N1    N     N_R   0.202408 0.495344 0.517909 -0.445744
N2    N     N_R   0.797591 0.504649 0.482090 -0.445743
N3    N     N_2   0.486510 0.456430 0.038510 0.233946
N4    N     N_2   0.513490 0.543570 0.961490 0.233945
O1    O     O_R   0.503500 0.286120 0.619780 -0.554636
O2    O     O_R   0.496500 0.713880 0.380220 -0.554639
O3    O     O_R   0.494410 0.256780 0.308360 -0.575329
O4    O     O_R   0.505590 0.743220 0.691640 -0.575333
O5    O     O_R   0.434810 0.514700 0.655690 -0.562736
O6    O     O_R   0.565190 0.485300 0.344310 -0.562736
O7    O     O_R   0.425720 0.485350 0.344280 -0.511248
O8    O     O_R   0.574280 0.514650 0.655720 -0.511245
O9    O     O_2   0.196936 0.218206 0.411759 -0.415905
O10   O     O_2   0.803064 0.781787 0.588242 -0.415903
O11   O     O_2   0.789976 0.226656 0.380844 -0.467740
O12   O     O_2   0.210023 0.773338 0.619154 -0.467730
F1    F     F_    0.453604 0.355340 0.924693 -0.528774
F2    F     F_    0.546396 0.644660 0.075307 -0.528784
F3    F     F_    0.264815 0.536193 0.844283 -0.606191
F4    F     F_    0.735186 0.463879 0.155729 -0.606195
F5    F     F_    0.114372 0.072825 0.311415 -0.598855
F6    F     F_    0.885628 0.927169 0.688583 -0.598856
F7    F     F_    0.658599 0.543708 0.827683 -0.589720
F8    F     F_    0.341400 0.456203 0.172303 -0.589709
F9    F     F_    0.957051 0.065943 0.403539 -0.647417
F10   F     F_    0.042948 0.934052 0.596464 -0.647417

loop_
_geom_bond_atom_site_label_1
_geom_bond_atom_site_label_2
_ccdc_geom_bond_type
C8    C26   A    
C14   C18   A    
C34   C42   A    
C21   H5    S    
Cu1   O5    S    
C39   C41   A    
Cu2   O6    S    
C19   C21   A    
C36   F7    S    
C1    O1    A    
C2    O2    A    
C9    C22   A    
C8    F6    S    
C3    C18   A    
C11   C37   A    
C41   N1    S    
Cu1   N4    S    
C42   N2    S    
C29   O9    S    
C31   O12   S    
C12   C36   A    
Cu1   O1    S    
C22   H6    S    
C23   O5    A    
C24   O6    A    
Cu2   O7    S    
C5    C29   A    
C10   C21   A    
C20   F10   S    
C13   C19   A    
C14   C20   A    
C4    C6    A    
C5    C7    A    
C28   H10   S    
C15   C26   A    
C6    C8    A    
C29   N1    A    
C30   N2    A    
Cu1   Cu2   S    
C25   H7    S    
C3    C9    A    
C26   H8    S    
Cu2   N3    S    
N3    F1    S    
C19   F9    S    
C4    C17   A    
C6    C30   A    
C20   C22   A    
C37   H1    S    
C16   C25   A    
C15   C17   A    
C40   C42   A    
C3    C5    A    
C1    O3    A    
C7    F5    S    
C27   H9    S    
C32   O11   S    
C24   O8    A    
Cu2   O3    S    
C12   C24   S    
C35   F8    S    
C7    C25   A    
C13   C17   A    
C33   C41   A    
C23   O7    A    
C11   C35   A    
C37   C39   A    
C38   C40   A    
N4    F2    S    
N3    N4    D    
Cu2   O2    S    
Cu1   O8    S    
C11   C23   S    
C33   C35   A    
C40   F4    S    
C34   C36   A    
C39   F3    S    
C12   C38   A    
C38   H2    S    
C9    C31   A    
C10   C32   A    
C16   C18   A    
C13   C16   A    
C27   C28   D    
C1    C27   S    
C33   H4    S    
C14   C15   A    
C2    C28   S    
C34   H3    S    
C31   N1    A    
C4    C10   A    
C32   N2    A    
C30   O10   S    
C2    O4    A    
Cu1   O4    S    
