data_mof_unit_44037.cif
_audit_creation_date              2012-12-10T20:28:41-0500
_audit_creation_method            fapswitch 2.2
_symmetry_space_group_name_H-M    P1
_symmetry_Int_Tables_number       1
_space_group_crystal_system       triclinic
_cell_length_a                    10.662732
_cell_length_b                    10.612794
_cell_length_c                    9.921364
_cell_angle_alpha                 90.255171
_cell_angle_beta                  91.559003
_cell_angle_gamma                 89.901974
_cell_volume                      1122.28708807

loop_
_atom_site_label
_atom_site_type_symbol
_atom_type_description
_atom_site_fract_x
_atom_site_fract_y
_atom_site_fract_z
_atom_type_partial_charge
C1    C     C_R   0.505505 0.260766 0.500265 0.937487
C2    C     C_R   0.058384 0.467158 0.612394 -0.016655
C3    C     C_R   0.122644 0.490973 0.491597 -0.180042
C4    C     C_R   0.057468 0.542174 0.376777 0.149543
C5    C     C_R   0.930846 0.571655 0.387067 0.060070
C6    C     C_R   0.871076 0.549011 0.508214 -0.154757
C7    C     C_R   0.598205 0.062970 0.568221 0.103551
C8    C     C_R   0.502100 0.128966 0.502878 -0.076883
C9    C     C_R   0.392353 0.067776 0.460085 -0.173350
C10   C     C_R   0.387625 0.937680 0.463080 0.172606
C11   C     C_R   0.495651 0.871452 0.505027 -0.122435
C12   C     C_R   0.258769 0.493332 0.497464 0.947419
C13   C     C_R   0.595125 0.934303 0.568718 0.035085
C14   C     C_3   0.733534 0.921615 0.552427 -0.515481
C15   C     C_3   0.737611 0.065531 0.552760 -0.106535
C16   C     C_R   0.491362 0.388910 0.069760 0.137584
C17   C     C_R   0.493588 0.609623 0.072070 -0.081266
C18   C     C_R   0.492730 0.609573 0.928685 -0.120842
C19   C     C_R   0.495681 0.389785 0.927829 0.171837
C20   C     C_3   0.587002 0.282539 0.922695 0.045672
C21   C     C_3   0.577805 0.276068 0.077739 0.146356
C22   C     C_R   0.499033 0.739457 0.500654 0.906652
C23   C     C_R   0.738104 0.520036 0.502312 0.898558
C24   C     C_R   0.103728 0.389326 0.719566 0.183184
C25   C     C_R   0.051134 0.398367 0.847770 0.137177
C26   C     C_R   0.952580 0.482959 0.867497 -0.183154
C27   C     C_R   0.895803 0.542470 0.757150 -0.148758
C28   C     C_R   0.941405 0.522923 0.626530 0.033722
H1    H     H_    0.757838 0.876194 0.455242 0.209018
H2    H     H_    0.788255 0.107482 0.641567 0.174855
H3    H     H_    0.491893 0.698506 0.125582 0.182375
H4    H     H_    0.490130 0.698420 0.875852 0.168086
H5    H     H_    0.912811 0.494757 0.965896 0.150947
H6    H     H_    0.815370 0.602220 0.774315 0.170096
H7    H     H_    0.312630 0.120675 0.420438 0.190692
H8    H     H_    0.780396 0.879556 0.643034 0.200473
N1    N     N_R   0.499160 0.499140 0.142800 -0.107626
N2    N     N_R   0.499160 0.499180 0.857150 -0.109442
O1    O     O_R   0.500020 0.316790 0.614690 -0.603478
O2    O     O_R   0.500000 0.316760 0.385350 -0.580426
O3    O     O_R   0.316770 0.500020 0.614690 -0.595073
O4    O     O_R   0.316760 0.499980 0.385350 -0.572879
O5    O     O_R   0.500000 0.683240 0.614650 -0.630901
O6    O     O_R   0.499980 0.683210 0.385310 -0.609653
O7    O     O_R   0.683240 0.500020 0.614650 -0.652845
O8    O     O_R   0.683230 0.499980 0.385310 -0.583547
Zn1   Zn    Zn3+2 0.500010 0.500020 0.653130 0.966026
Zn2   Zn    Zn3+2 0.499990 0.499980 0.346870 1.009004
I1    I     I_    0.136623 0.573572 0.181192 -0.395983
N3    N     N_3   0.774922 0.119775 0.424423 -0.432594
H9    H     H_    0.729808 0.072671 0.343989 0.230752
H10   H     H_    0.871164 0.104182 0.415370 0.218532
N4    N     N_3   0.536942 0.173963 0.846742 -0.420745
H11   H     H_    0.589616 0.093949 0.872260 0.201988
H12   H     H_    0.443005 0.157760 0.868487 0.241365
N5    N     N_3   0.710177 0.320040 0.875386 -0.459549
H13   H     H_    0.705686 0.322656 0.770325 0.251066
H14   H     H_    0.773889 0.248006 0.899265 0.178813
I2    I     I_    0.487854 0.108140 0.148218 -0.429264
N6    N     N_3   0.694314 0.303036 0.154415 -0.386613
H15   H     H_    0.735237 0.386130 0.120468 0.186186
H16   H     H_    0.757392 0.229402 0.138171 0.186671
I3    I     I_    0.212429 0.226579 0.682237 -0.394159
N7    N     N_3   0.093981 0.316735 0.954616 -0.419924
H17   H     H_    0.185044 0.344291 0.983026 0.225204
H18   H     H_    0.038245 0.327263 0.039047 0.197089
N8    N     N_3   0.861681 0.628458 0.276737 -0.435597
H19   H     H_    0.862369 0.567819 0.193592 0.196562
H20   H     H_    0.904384 0.713602 0.252136 0.219922
I4    I     I_    0.216068 0.851377 0.406463 -0.321766

loop_
_geom_bond_atom_site_label_1
_geom_bond_atom_site_label_2
_ccdc_geom_bond_type
N3    H10   S    
C24   C25   A    
C12   O3    A    
C23   O7    A    
C19   N2    A    
C17   N1    A    
C1    C8    S    
C2    C28   A    
C9    C10   A    
C4    I1    S    
C11   C22   S    
C19   C20   S    
C18   N2    A    
C5    N8    S    
C16   N1    A    
C20   N5    S    
N7    H17   S    
C7    C15   S    
C17   C18   A    
O3    Zn1   S    
C7    C8    A    
C23   O8    A    
O4    Zn2   S    
N4    H11   S    
N5    H13   S    
N1    Zn2   S    
C14   H8    S    
C4    C5    A    
C11   C13   A    
C26   C27   A    
C16   C21   S    
N2    Zn1   S    
C15   H2    S    
C16   C19   A    
C6    C23   S    
C10   I4    S    
O1    Zn1   S    
N5    H14   S    
C22   O6    A    
C21   I2    S    
C24   I3    S    
C2    C3    A    
O7    Zn1   S    
C27   H6    S    
C2    C24   A    
C5    C6    A    
C17   H3    S    
O8    Zn2   S    
C18   H4    S    
C10   C11   A    
C1    O1    A    
N4    H12   S    
N8    H19   S    
C7    C13   A    
C20   C21   S    
C21   N6    S    
N6    H16   S    
C15   N3    S    
C27   C28   A    
C9    H7    S    
O2    Zn2   S    
C14   C15   S    
C8    C9    A    
C12   O4    A    
C3    C12   S    
C26   H5    S    
C1    O2    A    
N3    H9    S    
C25   C26   A    
C13   C14   S    
O5    Zn1   S    
C25   N7    S    
N6    H15   S    
C6    C28   A    
C3    C4    A    
O6    Zn2   S    
C14   H1    S    
C20   N4    S    
N8    H20   S    
C22   O5    A    
N7    H18   S    
