data_mof_unit_44177.cif
_audit_creation_date              2012-12-11T16:22:13-0500
_audit_creation_method            fapswitch 2.2
_symmetry_space_group_name_H-M    P1
_symmetry_Int_Tables_number       1
_space_group_crystal_system       triclinic
_cell_length_a                    19.577592
_cell_length_b                    6.942918
_cell_length_c                    17.771544
_cell_angle_alpha                 89.770903
_cell_angle_beta                  108.005161
_cell_angle_gamma                 90.272247
_cell_volume                      2297.27847983

loop_
_atom_site_label
_atom_site_type_symbol
_atom_type_description
_atom_site_fract_x
_atom_site_fract_y
_atom_site_fract_z
_atom_type_partial_charge
O1    O     O_R   0.561700 0.369960 0.440190 -0.555389
O2    O     O_R   0.061700 0.630040 0.940190 -0.556895
O3    O     O_R   0.413790 0.033680 0.407460 -0.538925
O4    O     O_R   0.913790 0.966320 0.907460 -0.541226
O5    O     O_R   0.438300 0.869760 0.559810 -0.546336
O6    O     O_R   0.938300 0.130240 0.059810 -0.513922
C1    C     C_R   0.387116 0.203980 0.384362 0.810829
C2    C     C_R   0.886914 0.795966 0.884619 0.815913
O7    O     O_R   0.559630 0.039830 0.430710 -0.538126
O8    O     O_R   0.059630 0.960170 0.930710 -0.516708
O9    O     O_R   0.585190 0.875950 0.583220 -0.509657
O10   O     O_R   0.085190 0.124050 0.083220 -0.503164
C3    C     C_R   0.580493 0.209536 0.415504 0.755755
C4    C     C_R   0.081882 0.791941 0.916072 0.723026
O11   O     O_R   0.414810 0.363770 0.416780 -0.539769
O12   O     O_R   0.914810 0.636230 0.916780 -0.546177
O13   O     O_3   0.508210 0.205480 0.550010 -0.365749
O14   O     O_3   0.008210 0.794520 0.050010 -0.341025
V1    V     V_3+5 0.498480 0.928140 0.490720 1.493628
V2    V     V_3+5 0.998480 0.071860 0.990720 1.550179
O15   O     O_R   0.586210 0.546600 0.592540 -0.545922
O16   O     O_R   0.086210 0.453400 0.092540 -0.551502
C5    C     C_R   0.613237 0.716950 0.616044 0.769494
C6    C     C_R   0.113597 0.283162 0.115622 0.736749
O17   O     O_R   0.440370 0.540460 0.569290 -0.528905
O18   O     O_R   0.940370 0.459540 0.069290 -0.509153
C7    C     C_R   0.419598 0.708649 0.584813 0.875804
C8    C     C_R   0.918393 0.289986 0.084286 0.824750
V3    V     V_3+5 0.501520 0.428910 0.509280 1.490880
V4    V     V_3+5 0.001520 0.571090 0.009280 1.531844
O19   O     O_3   0.491790 0.701440 0.449990 -0.387514
O20   O     O_3   0.991790 0.298560 0.949990 -0.388561
C9    C     C_R   0.249357 0.711624 0.644399 0.318480
C10   C     C_R   0.774908 0.111923 0.174367 0.386569
C11   C     C_R   0.295951 0.704051 0.597913 0.297231
C12   C     C_R   0.821024 0.120866 0.127369 0.295327
C13   C     C_R   0.370745 0.717580 0.633716 -0.351792
C14   C     C_R   0.870230 0.276590 0.135485 -0.370494
C15   C     C_R   0.398977 0.737408 0.716502 0.312121
C16   C     C_R   0.872256 0.421278 0.192619 0.371446
C17   C     C_R   0.352448 0.746462 0.763279 0.387694
C18   C     C_R   0.822448 0.416908 0.235911 0.372098
C19   C     C_R   0.277116 0.737425 0.727054 -0.164812
C20   C     C_R   0.773910 0.261848 0.226968 -0.227955
C21   C     C_R   0.202840 0.589995 0.804415 -0.150908
C22   C     C_R   0.749036 0.232705 0.355922 -0.145361
H1    H     H_    0.222222 0.450815 0.794472 0.203915
H2    H     H_    0.806261 0.221194 0.384960 0.135457
C23   C     C_R   0.152692 0.603816 0.845603 -0.263091
C24   C     C_R   0.702590 0.217297 0.401498 -0.271713
H3    H     H_    0.130614 0.473942 0.861877 0.218077
H4    H     H_    0.724802 0.198805 0.464926 0.126536
C25   C     C_R   0.131997 0.783152 0.867194 -0.212432
C26   C     C_R   0.628174 0.222857 0.365727 -0.178659
C27   C     C_R   0.161684 0.950618 0.843570 0.373671
C28   C     C_R   0.599940 0.248420 0.283165 0.365961
C29   C     C_R   0.203345 0.935960 0.791348 0.372545
C30   C     C_R   0.646782 0.267131 0.236828 0.448698
C31   C     C_R   0.227402 0.754694 0.775419 0.079405
C32   C     C_R   0.722245 0.257125 0.273587 0.094865
C33   C     C_2   0.712244 0.903738 0.712997 0.484012
C34   C     C_2   0.214209 0.096305 0.210101 0.502677
C35   C     C_2   0.679321 0.732360 0.685675 -0.388043
C36   C     C_2   0.179923 0.267101 0.185034 -0.397680
H5    H     H_    0.700468 0.598513 0.715063 0.114618
H6    H     H_    0.199877 0.399395 0.216496 0.118481
C37   C     C_2   0.776979 0.919366 0.784957 -0.193439
C38   C     C_2   0.277993 0.080291 0.283235 -0.195576
C39   C     C_2   0.822280 0.774452 0.815008 -0.360988
C40   C     C_2   0.323118 0.225571 0.314012 -0.341236
H7    H     H_    0.788624 0.060100 0.812585 0.162119
H8    H     H_    0.289134 0.939545 0.311140 0.174257
H9    H     H_    0.812327 0.632674 0.788405 0.125887
H10   H     H_    0.313644 0.367447 0.287109 0.125918
Cl1   Cl    Cl    0.155984 0.680600 0.598858 -0.627689
Cl2   Cl    Cl    0.717582 0.910641 0.166893 -0.554527
Cl3   Cl    Cl    0.260484 0.675212 0.494243 -0.581857
Cl4   Cl    Cl    0.812335 0.938478 0.055433 -0.544735
O21   O     O_3   0.472456 0.728428 0.752693 -0.536486
C41   C     C_3   0.501068 0.916835 0.760900 -0.142253
H11   H     H_    0.485327 0.998072 0.806527 0.144210
H12   H     H_    0.560531 0.907047 0.780845 0.171684
H13   H     H_    0.485033 0.998137 0.704106 0.123742
O22   O     O_3   0.919081 0.576088 0.202930 -0.508897
C42   C     C_3   0.988133 0.517597 0.250370 -0.138244
H14   H     H_    0.014263 0.422821 0.217355 0.108270
H15   H     H_    0.986955 0.442960 0.305471 0.100372
H16   H     H_    0.022385 0.647672 0.268089 0.176142
O23   O     O_3   0.381949 0.741073 0.844846 -0.530393
C43   C     C_3   0.379356 0.925252 0.877391 -0.162519
H17   H     H_    0.336973 0.926424 0.906765 0.129614
H18   H     H_    0.370463 0.046672 0.834106 0.137213
H19   H     H_    0.431291 0.952398 0.923799 0.168466
O24   O     O_3   0.814151 0.575466 0.279426 -0.507153
C44   C     C_3   0.871078 0.587316 0.351033 -0.107849
H20   H     H_    0.912388 0.689971 0.344269 0.172644
H21   H     H_    0.849661 0.646440 0.397084 0.142475
H22   H     H_    0.896184 0.445928 0.373324 0.074912
O25   O     O_3   0.151427 0.128615 0.872294 -0.553177
C45   C     C_3   0.208360 0.161991 0.942647 -0.235166
H23   H     H_    0.258988 0.193766 0.928996 0.148742
H24   H     H_    0.216316 0.039347 0.985081 0.112316
H25   H     H_    0.195354 0.289442 0.973012 0.140077
O26   O     O_3   0.526503 0.237213 0.246923 -0.543780
C46   C     C_3   0.497411 0.424465 0.238521 -0.221388
H26   H     H_    0.508949 0.501965 0.189087 0.157931
H27   H     H_    0.516791 0.510449 0.293877 0.128139
H28   H     H_    0.438191 0.412207 0.223594 0.146379
O27   O     O_3   0.225710 0.099374 0.761034 -0.576811
C47   C     C_3   0.168518 0.164532 0.696105 -0.197886
H29   H     H_    0.124185 0.223214 0.715934 0.165432
H30   H     H_    0.147579 0.050043 0.651414 0.195521
H31   H     H_    0.188697 0.282191 0.666217 0.203890
O28   O     O_3   0.617359 0.277994 0.155346 -0.532550
C48   C     C_3   0.627241 0.465284 0.129168 -0.098350
H32   H     H_    0.679940 0.477365 0.118361 0.184091
H33   H     H_    0.622025 0.580334 0.170610 0.144832
H34   H     H_    0.585205 0.491583 0.071841 0.170504
O29   O     O_3   0.681066 0.074492 0.678199 -0.533996
C49   C     C_3   0.728794 0.172118 0.645684 -0.225332
H35   H     H_    0.750610 0.075210 0.608875 0.108893
H36   H     H_    0.773219 0.240993 0.692774 0.119877
H37   H     H_    0.698921 0.288417 0.606351 0.153760
O30   O     O_3   0.184582 0.926964 0.171890 -0.530067
C50   C     C_3   0.236917 0.820658 0.150323 -0.236510
H38   H     H_    0.270610 0.736046 0.201402 0.129267
H39   H     H_    0.271238 0.913804 0.125456 0.111373
H40   H     H_    0.209001 0.716617 0.103571 0.148734

loop_
_geom_bond_atom_site_label_1
_geom_bond_atom_site_label_2
_ccdc_geom_bond_type
C17   O23   S    
C35   H5    S    
O6    C8    A    
C33   O29   S    
O13   V3    S    
C16   O22   S    
C44   H20   S    
O4    C2    A    
V1    O19   S    
C1    C40   S    
C34   O30   S    
O28   C48   S    
C44   H22   S    
C15   C17   A    
C42   H14   S    
C46   H27   S    
O9    V1    S    
C2    C39   S    
C24   C26   A    
C10   Cl2   S    
C11   C13   A    
O7    V1    S    
O3    C1    A    
C5    C35   S    
C29   C31   A    
O12   V4    S    
C48   H32   S    
C21   H1    S    
C33   C35   D    
O7    C3    A    
C47   H29   S    
C34   C36   D    
C9    C11   A    
O5    C7    A    
C9    Cl1   S    
C29   O27   S    
O8    V2    S    
C23   H3    S    
C40   H10   S    
C50   H40   S    
C24   H4    S    
O3    V1    S    
O14   V4    S    
C21   C23   A    
O14   V2    S    
C49   H37   S    
C19   C31   S    
C42   H15   S    
C2    O12   A    
C14   C16   A    
C17   C19   A    
C18   C20   A    
C41   H13   S    
C45   H24   S    
O26   C46   S    
C49   H36   S    
O11   V3    S    
C22   H2    S    
C25   C27   A    
O17   V3    S    
C46   H28   S    
C26   C28   A    
C9    C19   A    
C10   C20   A    
O22   C42   S    
C28   O26   S    
C41   H12   S    
O8    C4    A    
C41   H11   S    
C1    O11   A    
C48   H33   S    
O15   V3    S    
C11   Cl3   S    
C45   H25   S    
C37   C39   D    
C36   H6    S    
C33   C37   S    
C43   H18   S    
O25   C45   S    
C8    C14   S    
C38   H8    S    
C48   H34   S    
O10   V2    S    
O1    V3    S    
C20   C32   S    
C39   H9    S    
C47   H31   S    
C38   C40   D    
O18   V4    S    
C27   C29   A    
C50   H38   S    
O16   C6    A    
O1    C3    A    
C12   C14   A    
C49   H35   S    
C43   H19   S    
C50   H39   S    
C3    C26   S    
V2    O20   S    
C42   H16   S    
C22   C24   A    
C21   C31   A    
O16   V4    S    
C22   C32   A    
C18   O24   S    
C16   C18   A    
O29   C49   S    
C44   H21   S    
O5    V1    S    
O17   C7    A    
O6    V2    S    
C46   H26   S    
O10   C6    A    
O18   C8    A    
C34   C38   S    
O2    V4    S    
O15   C5    A    
V3    O19   S    
C12   Cl4   S    
O27   C47   S    
V4    O20   S    
C43   H17   S    
C7    C13   S    
C23   C25   A    
O9    C5    A    
C45   H23   S    
O13   V1    S    
C10   C12   A    
C28   C30   A    
C6    C36   S    
C37   H7    S    
O24   C44   S    
O2    C4    A    
C47   H30   S    
O21   C41   S    
O4    V2    S    
C4    C25   S    
C13   C15   A    
C27   O25   S    
C30   O28   S    
O23   C43   S    
C30   C32   A    
C15   O21   S    
O30   C50   S    
