data_mof_unit_8472.cif
_audit_creation_date              2012-12-11T14:08:23-0500
_audit_creation_method            fapswitch 2.2
_symmetry_space_group_name_H-M    P1
_symmetry_Int_Tables_number       1
_space_group_crystal_system       triclinic
_cell_length_a                    10.993166
_cell_length_b                    10.987885
_cell_length_c                    18.676788
_cell_angle_alpha                 89.289011
_cell_angle_beta                  89.43333
_cell_angle_gamma                 59.86622
_cell_volume                      1950.94645365

loop_
_atom_site_label
_atom_site_type_symbol
_atom_type_description
_atom_site_fract_x
_atom_site_fract_y
_atom_site_fract_z
_atom_type_partial_charge
C1    C     C_R   0.235084 0.644930 0.608230 0.613309
C2    C     C_3   0.720410 0.533232 0.802400 -0.210442
C3    C     C_3   0.698084 0.681705 0.812658 -0.038652
C4    C     C_3   0.672084 0.644719 0.677736 0.059570
C5    C     C_3   0.789835 0.684799 0.685780 0.403200
C6    C     C_3   0.710176 0.507274 0.723346 0.256634
C7    C     C_2   0.674826 0.141907 0.666978 -0.062764
C8    C     C_2   0.699386 0.149397 0.823165 -0.059811
C9    C     C_2   0.809804 0.079569 0.778165 -0.120375
C10   C     C_2   0.796430 0.103780 0.699712 -0.095366
C11   C     C_2   0.175341 0.658081 0.679751 -0.014513
C12   C     C_R   0.653081 0.619809 0.602333 0.610815
C13   C     C_2   0.180301 0.667172 0.835866 -0.046419
C14   C     C_2   0.187414 0.557778 0.800199 0.180607
C15   C     C_2   0.219891 0.542715 0.722638 0.255849
C16   C     C_2   0.668475 0.677988 0.328916 -0.030283
C17   C     C_2   0.724448 0.738573 0.180644 0.138675
C18   C     C_2   0.818200 0.636642 0.223956 -0.115147
C19   C     C_2   0.797455 0.630438 0.301445 -0.092661
C20   C     C_2   0.578815 0.313291 0.311817 0.111124
C21   C     C_2   0.642066 0.182490 0.170153 -0.016601
C22   C     C_2   0.511044 0.264342 0.194644 -0.088830
C23   C     C_R   0.630951 0.220394 0.599261 0.615923
C24   C     C_2   0.488373 0.295408 0.271408 -0.122581
C25   C     C_2   0.246956 0.635629 0.319737 -0.123689
C26   C     C_2   0.193634 0.637216 0.170035 -0.080267
C27   C     C_2   0.279939 0.680030 0.195080 0.170604
C28   C     C_2   0.325052 0.652157 0.269603 -0.121825
C29   C     C_R   0.705388 0.098447 0.896269 0.547852
C30   C     C_R   0.725238 0.691527 0.887863 0.579846
C31   C     C_R   0.115799 0.707853 0.906490 0.587330
C32   C     C_R   0.673554 0.110897 0.102595 0.553370
C33   C     C_R   0.738143 0.722432 0.102942 0.604875
C34   C     C_R   0.289290 0.620720 0.392927 0.532614
C35   C     C_R   0.101950 0.703725 0.109653 0.565234
C36   C     C_R   0.645943 0.627586 0.396492 0.539423
C37   C     C_R   0.574525 0.305519 0.389863 0.569464
C38   C     C_3   0.545952 0.794835 0.787361 0.259262
C39   C     C_3   0.529609 0.766781 0.708510 -0.228325
C40   C     C_3   0.808635 0.698621 0.767092 -0.177610
Cr1   Cr    Cr6+3 0.393010 0.398050 0.501480 1.093266
Cr2   Cr    Cr6+3 0.398820 0.707980 0.501630 1.064821
Cr3   Cr    Cr6+3 0.708140 0.393940 0.496850 1.108619
Cr4   Cr    Cr6+3 0.937950 0.938450 0.008940 1.101253
Cr5   Cr    Cr6+3 0.626180 0.937030 0.994750 1.158478
Cr6   Cr    Cr6+3 0.937790 0.625760 0.001410 1.078761
H1    H     H_    0.915479 0.615919 0.783612 0.182689
H2    H     H_    0.911921 0.001386 0.798912 0.146360
H3    H     H_    0.885014 0.095048 0.669400 0.192612
H4    H     H_    0.596686 0.226631 0.803037 0.165961
H5    H     H_    0.592801 0.134869 0.696111 0.149318
H6    H     H_    0.199750 0.742172 0.807806 0.109975
H7    H     H_    0.108889 0.763549 0.700242 0.036584
H8    H     H_    0.909607 0.545865 0.201233 0.147220
H9    H     H_    0.889493 0.562938 0.333552 0.151193
H10   H     H_    0.575258 0.733938 0.296682 0.171467
H11   H     H_    0.421230 0.286926 0.161577 0.158055
H12   H     H_    0.402800 0.287545 0.296248 0.154505
H13   H     H_    0.732090 0.147050 0.204989 0.175178
H14   H     H_    0.443664 0.742260 0.703825 0.192308
H15   H     H_    0.417723 0.656363 0.284731 0.159545
H16   H     H_    0.180139 0.558059 0.198641 0.054882
H17   H     H_    0.150162 0.636246 0.307931 0.110467
H18   H     H_    0.492349 0.863310 0.675088 0.167728
H19   H     H_    0.802932 0.800415 0.778749 0.116405
H20   H     H_    0.824686 0.452510 0.823590 0.189577
H21   H     H_    0.643698 0.519369 0.835650 0.184495
O1    O     O_R   0.507110 0.256280 0.580300 -0.457416
O2    O     O_R   0.524640 0.695370 0.425100 -0.516013
O3    O     O_R   0.735890 0.504390 0.415980 -0.487598
O4    O     O_R   0.690560 0.277820 0.422350 -0.457102
O5    O     O_3   0.499990 0.499990 0.499980 -0.321332
O6    O     O_R   0.089190 0.825870 0.932320 -0.481879
O7    O     O_R   0.819070 0.053960 0.931440 -0.500610
O8    O     O_R   0.607070 0.076440 0.916460 -0.452457
O9    O     O_R   0.647110 0.806550 0.917690 -0.425017
O10   O     O_R   0.837080 0.593860 0.915300 -0.513069
O11   O     O_R   0.064770 0.636080 0.932550 -0.442906
O12   O     O_R   0.280830 0.527190 0.577940 -0.412081
O13   O     O_R   0.068250 0.829200 0.092940 -0.447341
O14   O     O_R   0.799650 0.057040 0.080330 -0.493630
O15   O     O_R   0.586130 0.079760 0.077080 -0.481783
O16   O     O_R   0.627700 0.809630 0.066580 -0.415048
O17   O     O_R   0.816140 0.597180 0.075920 -0.501967
O18   O     O_R   0.045360 0.639170 0.081440 -0.542180
O19   O     O_3   0.833980 0.833750 0.001700 -0.342110
O20   O     O_R   0.261360 0.738990 0.584270 -0.515238
O21   O     O_R   0.532590 0.694780 0.574370 -0.508621
O22   O     O_R   0.744470 0.503750 0.577000 -0.453124
O23   O     O_R   0.698520 0.277230 0.571620 -0.452891
O24   O     O_R   0.498530 0.256920 0.419280 -0.520374
O25   O     O_R   0.272880 0.527780 0.428680 -0.522878
O26   O     O_R   0.252780 0.739630 0.423250 -0.473960
Br1   Br    Br    0.500498 0.990399 0.793277 -0.503604
Br2   Br    Br    0.890588 0.339169 0.697918 -0.426158
O27   O     O_3   0.919584 0.578796 0.658438 -0.622146
H22   H     H_    0.919112 0.590725 0.605642 0.372079
O28   O     O_3   0.167717 0.457760 0.836043 -0.651898
H23   H     H_    0.153174 0.400271 0.800361 0.362916
O29   O     O_3   0.301166 0.408983 0.694758 -0.616226
H24   H     H_    0.345572 0.340557 0.734599 0.352795
Br3   Br    Br    0.403850 0.789142 0.847888 -0.446565
Br4   Br    Br    0.583116 0.920931 0.215840 -0.496694
Br5   Br    Br    0.705623 0.369676 0.270787 -0.525965
Br6   Br    Br    0.343673 0.785092 0.138586 -0.360237
O30   O     O_3   0.754162 0.810903 0.648356 -0.711975
H25   H     H_    0.679658 0.891112 0.674922 0.327622
Br7   Br    Br    0.562014 0.460584 0.714939 -0.546461

loop_
_geom_bond_atom_site_label_1
_geom_bond_atom_site_label_2
_ccdc_geom_bond_type
C1    O20   A    
C7    C10   D    
Cr3   O5    S    
C40   H1    S    
Cr2   O26   S    
Cr5   O15   S    
C1    C11   S    
C34   O26   A    
C15   O29   S    
C22   H11   S    
Cr5   O16   S    
C25   C28   D    
C32   O14   A    
C26   C27   D    
Cr3   O22   S    
Cr5   O9    S    
C8    C29   S    
C21   H13   S    
C38   C39   S    
C31   O6    A    
O30   H25   S    
C27   Br6   S    
O28   H23   S    
C35   O13   A    
C18   C19   S    
C25   H17   S    
C30   O10   A    
C11   C15   D    
C20   C24   D    
C3    C38   S    
C8    C9    D    
C4    C12   S    
C9    C10   S    
C11   H7    S    
C25   C34   S    
Cr6   O18   S    
C28   H15   S    
C21   C22   D    
C2    C6    S    
C17   C33   S    
Cr4   O19   S    
C36   O3    A    
C14   O28   S    
Cr1   O1    S    
C5    O30   S    
C21   C32   S    
Cr3   O23   S    
C12   O21   A    
C12   O22   A    
Cr4   O13   S    
C4    C6    S    
Cr4   O14   S    
Cr6   O11   S    
C37   O24   A    
C29   O7    A    
Cr2   O2    S    
C23   O1    A    
C3    C30   S    
C16   H10   S    
C39   H18   S    
C13   H6    S    
C30   O9    A    
C4    C39   S    
O27   H22   S    
C38   Br1   S    
Cr2   O5    S    
C17   C18   D    
C23   O23   A    
Cr4   O7    S    
C33   O16   A    
Cr1   O5    S    
Cr6   O17   S    
Cr1   O24   S    
C3    C40   S    
C2    H21   S    
Cr3   O3    S    
C40   H19   S    
C37   O4    A    
C1    O12   A    
C22   C24   S    
Cr2   O21   S    
C8    H4    S    
C5    O27   S    
C36   O2    A    
C31   O11   A    
C19   H9    S    
Cr3   O4    S    
C13   C31   S    
C4    C5    S    
C2    H20   S    
Cr1   O12   S    
Cr6   O10   S    
C29   O8    A    
C32   O15   A    
Cr5   O8    S    
Cr5   O19   S    
C26   H16   S    
C7    H5    S    
C38   Br3   S    
C16   C36   S    
C20   C37   S    
C35   O18   A    
C16   C19   D    
C7    C23   S    
C39   H14   S    
O29   H24   S    
C2    C3    S    
C17   Br4   S    
Cr4   O6    S    
C33   O17   A    
C34   O25   A    
C20   Br5   S    
C18   H8    S    
C26   C35   S    
Cr1   O25   S    
C9    H2    S    
C24   H12   S    
C6    Br2   S    
C5    C40   S    
C27   C28   S    
C6    Br7   S    
C14   C15   S    
Cr2   O20   S    
C13   C14   D    
C10   H3    S    
Cr6   O19   S    
