data_mof_unit_58726.cif
_audit_creation_date              2012-12-10T19:07:37-0500
_audit_creation_method            fapswitch 2.2
_symmetry_space_group_name_H-M    P1
_symmetry_Int_Tables_number       1
_space_group_crystal_system       triclinic
_cell_length_a                    10.906476
_cell_length_b                    10.831592
_cell_length_c                    9.569161
_cell_angle_alpha                 89.006816
_cell_angle_beta                  89.544501
_cell_angle_gamma                 91.516606
_cell_volume                      1129.84227337

loop_
_atom_site_label
_atom_site_type_symbol
_atom_type_description
_atom_site_fract_x
_atom_site_fract_y
_atom_site_fract_z
_atom_type_partial_charge
C1    C     C_R   0.508525 0.262499 0.500091 0.918512
C2    C     C_R   0.936113 0.465785 0.621026 0.038140
C3    C     C_3   0.927118 0.359645 0.726961 0.245370
C4    C     C_3   0.065084 0.340054 0.698341 0.140325
C5    C     C_R   0.524438 0.060470 0.623107 0.194064
C6    C     C_R   0.530324 0.129554 0.498382 -0.113625
C7    C     C_R   0.560625 0.065974 0.373375 0.001425
C8    C     C_R   0.552392 0.936067 0.374350 -0.164077
C9    C     C_R   0.523130 0.870278 0.498136 -0.133272
C10   C     C_R   0.522811 0.933842 0.622968 0.109517
C11   C     C_3   0.439132 0.922090 0.746473 -0.431959
C12   C     C_R   0.262543 0.499491 0.499902 0.872778
C13   C     C_3   0.440020 0.062025 0.746595 -0.368434
C14   C     C_R   0.551415 0.596829 0.070735 0.237770
C15   C     C_R   0.436145 0.413232 0.079240 -0.022886
C16   C     C_R   0.433184 0.413331 0.930795 0.080597
C17   C     C_R   0.550245 0.597538 0.923847 0.208505
C18   C     C_3   0.678272 0.647462 0.913715 -0.419165
C19   C     C_3   0.681369 0.643134 0.072605 -0.463524
C20   C     C_R   0.504594 0.737504 0.499062 0.808054
C21   C     C_R   0.737481 0.500280 0.500238 0.857653
C22   C     C_R   0.061409 0.456283 0.612395 -0.052172
C23   C     C_R   0.129500 0.501434 0.498676 -0.069149
C24   C     C_R   0.066212 0.555086 0.386537 -0.169694
C25   C     C_R   0.937613 0.554809 0.387565 -0.186403
C26   C     C_R   0.870681 0.504404 0.502616 -0.065067
Cu1   Cu    Cu3+1 0.499990 0.499980 0.640670 0.995234
Cu2   Cu    Cu3+1 0.500010 0.500020 0.359330 0.969454
H1    H     H_    0.115600 0.594564 0.297106 0.180779
H2    H     H_    0.484939 0.881115 0.839009 0.213330
H3    H     H_    0.349281 0.099204 0.720803 0.262095
H4    H     H_    0.485356 0.100873 0.840217 0.248275
H5    H     H_    0.385949 0.343550 0.140510 0.202973
H6    H     H_    0.740844 0.582628 0.863515 0.246742
H7    H     H_    0.682556 0.742983 0.869245 0.206271
H8    H     H_    0.744613 0.572971 0.114234 0.221779
H9    H     H_    0.690774 0.735992 0.119552 0.203930
H10   H     H_    0.890907 0.593112 0.298138 0.166472
H11   H     H_    0.122700 0.351446 0.791973 0.118491
H12   H     H_    0.567570 0.886567 0.278565 0.189294
H13   H     H_    0.348209 0.879793 0.720808 0.226473
N1    N     N_R   0.500790 0.500930 0.147930 -0.225608
N2    N     N_R   0.500790 0.500890 0.852020 -0.220628
O1    O     O_R   0.500000 0.319640 0.618810 -0.552024
O2    O     O_R   0.500010 0.319680 0.381230 -0.618097
O3    O     O_R   0.319650 0.499970 0.618810 -0.612946
O4    O     O_R   0.319660 0.500010 0.381230 -0.578076
O5    O     O_R   0.499990 0.680320 0.618770 -0.586306
O6    O     O_R   0.500000 0.680360 0.381190 -0.588675
O7    O     O_R   0.680340 0.499990 0.618770 -0.555340
O8    O     O_R   0.680350 0.500030 0.381190 -0.604612
C27   C     C_2   0.350770 0.320385 0.867316 0.323381
H14   H     H_    0.330309 0.323036 0.758626 0.165983
O9    O     O_2   0.299420 0.239565 0.938748 -0.551464
C28   C     C_2   0.908496 0.405128 0.874630 0.264409
H15   H     H_    0.855090 0.350156 0.950161 0.121507
O10   O     O_2   0.957782 0.501173 0.913245 -0.561998
S1    S     S_3+6 0.817529 0.236477 0.690940 0.024397
O11   O     O_2   0.789568 0.230441 0.537841 -0.294358
O12   O     O_2   0.864086 0.113952 0.739984 -0.218997
O13   O     O_3   0.687416 0.263511 0.779411 -0.558463
H16   H     H_    0.690985 0.212590 0.866175 0.353526
S2    S     S_3+6 0.108157 0.210083 0.593443 0.053065
O14   O     O_2   0.236707 0.229723 0.539289 -0.390555
O15   O     O_2   0.104013 0.094312 0.682230 -0.190403
O16   O     O_3   0.016245 0.190973 0.454934 -0.416466
H17   H     H_    0.036192 0.261945 0.391404 0.351500
C29   C     C_2   0.603165 0.130115 0.242491 0.426316
H18   H     H_    0.649938 0.219571 0.245818 0.106526
O17   O     O_2   0.589516 0.081901 0.129021 -0.570468

loop_
_geom_bond_atom_site_label_1
_geom_bond_atom_site_label_2
_ccdc_geom_bond_type
Cu1   O5    S    
C2    C22   A    
C23   C24   A    
S2    O15   D    
Cu2   O4    S    
C20   O6    A    
C8    C9    A    
C25   H10   S    
C18   H6    S    
C9    C10   A    
C9    C20   S    
C5    C13   S    
C14   C17   A    
C4    H11   S    
C21   O8    A    
C14   N1    A    
C1    O1    A    
S1    O13   S    
C17   N2    A    
C17   C18   S    
C25   C26   A    
S2    O16   S    
C5    C10   A    
C2    C26   A    
C24   C25   A    
C11   C13   S    
C4    S2    S    
C1    O2    A    
C20   O5    A    
C12   O4    A    
C5    C6    A    
Cu1   O1    S    
Cu1   O3    S    
Cu2   N1    S    
C21   O7    A    
C21   C26   S    
C13   H3    S    
C11   H13   S    
C6    C7    A    
C2    C3    S    
C19   H8    S    
C28   O10   D    
O13   H16   S    
Cu2   O2    S    
Cu2   O8    S    
S1    O11   D    
C28   H15   S    
C16   N2    A    
C19   H9    S    
C10   C11   S    
S1    O12   D    
C1    C6    S    
C3    S1    S    
Cu1   N2    S    
C7    C8    A    
O16   H17   S    
C27   H14   S    
C15   N1    A    
Cu1   O7    S    
C12   O3    A    
C18   C19   S    
C18   H7    S    
Cu1   Cu2   S    
C29   O17   D    
C4    C22   S    
C24   H1    S    
C29   H18   S    
C12   C23   S    
C8    H12   S    
C7    C29   S    
C22   C23   A    
C13   H4    S    
C3    C28   S    
C14   C19   S    
C15   H5    S    
C15   C16   A    
C3    C4    S    
C16   C27   S    
C11   H2    S    
C27   O9    D    
S2    O14   D    
Cu2   O6    S    
