data_mof_unit_67621.cif
_audit_creation_date              2013-03-05T16:14:30-0500
_audit_creation_method            fapswitch 2.2
_symmetry_space_group_name_H-M    P1
_symmetry_Int_Tables_number       1
_space_group_crystal_system       triclinic
_cell_length_a                    10.823467
_cell_length_b                    10.830899
_cell_length_c                    9.56244
_cell_angle_alpha                 88.930408
_cell_angle_beta                  91.294646
_cell_angle_gamma                 90.486747
_cell_volume                      1120.46656894

loop_
_atom_site_label
_atom_site_type_symbol
_atom_site_description
_atom_site_fract_x
_atom_site_fract_y
_atom_site_fract_z
_atom_type_partial_charge
O1    O     O_R   0.500060 0.316850 0.620870 -0.529033
O2    O     O_R   0.499940 0.683150 0.379130 -0.529701
O3    O     O_R   0.500000 0.316860 0.379090 -0.567193
O4    O     O_R   0.500000 0.683140 0.620910 -0.570899
C1    C     C_R   0.500694 0.259415 0.500743 0.820754
C2    C     C_R   0.501850 0.740250 0.498683 0.820318
O5    O     O_R   0.316880 0.499960 0.620870 -0.541385
O6    O     O_R   0.683120 0.500040 0.379130 -0.546944
O7    O     O_R   0.316830 0.499970 0.379090 -0.559983
O8    O     O_R   0.683170 0.500030 0.620910 -0.562587
C3    C     C_R   0.259417 0.500868 0.499237 0.814266
C4    C     C_R   0.740304 0.503243 0.501009 0.812923
Cu1   Cu    Cu3+1 0.500030 0.499990 0.643150 1.053518
Cu2   Cu    Cu3+1 0.499970 0.500010 0.356850 1.054473
C5    C     C_3   0.038757 0.401854 0.560020 0.523698
C6    C     C_3   0.960177 0.608867 0.442523 0.527828
C7    C     C_3   0.954290 0.408105 0.428334 -0.338226
C8    C     C_3   0.044849 0.602560 0.574107 -0.322160
C9    C     C_3   0.877614 0.505865 0.502146 -0.067171
C10   C     C_3   0.121664 0.504301 0.499724 -0.076280
C11   C     C_3   0.961272 0.497676 0.634685 -0.296496
C12   C     C_3   0.037602 0.512901 0.367471 -0.303332
C13   C     C_3   0.558056 0.037767 0.618611 -0.325006
C14   C     C_3   0.449975 0.959789 0.376704 -0.327158
C15   C     C_3   0.618189 0.959875 0.504190 0.549346
C16   C     C_3   0.388738 0.038408 0.488677 0.523505
C17   C     C_3   0.503177 0.877395 0.495271 -0.063211
C18   C     C_3   0.503081 0.121641 0.500890 -0.088353
C19   C     C_3   0.440097 0.954491 0.607435 -0.268886
C20   C     C_3   0.565583 0.044971 0.387652 -0.274586
C21   C     C_3   0.531780 0.606678 0.048673 0.294622
C22   C     C_3   0.467929 0.393490 0.951782 0.298659
C23   C     C_3   0.424065 0.580965 0.946454 0.306361
C24   C     C_3   0.575745 0.419110 0.053578 0.306193
N1    N     N_3   0.500090 0.499970 0.858290 -0.259220
N2    N     N_3   0.499910 0.500030 0.141710 -0.257931
C25   C     C_3   0.608851 0.526058 0.954838 0.280490
C26   C     C_3   0.391272 0.474220 0.045544 0.285186
H1    H     H_    0.912894 0.328977 0.371850 0.158458
H2    H     H_    0.083259 0.683460 0.629915 0.152872
O9    O     O_3   0.088115 0.294300 0.624107 -0.548116
C27   C     C_3   0.990910 0.218559 0.672870 0.092577
H3    H     H_    0.930959 0.187176 0.584662 0.110155
H4    H     H_    0.931995 0.267513 0.747000 0.119913
C28   C     C_3   0.045412 0.106796 0.749272 -0.807672
H5    H     H_    0.111131 0.137527 0.831351 0.257732
H6    H     H_    0.971911 0.052612 0.801285 0.181469
H7    H     H_    0.094038 0.047353 0.675331 0.272662
O10   O     O_3   0.911091 0.717129 0.379860 -0.547258
C29   C     C_3   0.008511 0.794540 0.334574 0.093068
H8    H     H_    0.075726 0.744256 0.270774 0.113752
H9    H     H_    0.058779 0.835260 0.425604 0.135661
C30   C     C_3   0.955059 0.898154 0.243350 -0.790155
H10   H     H_    0.907306 0.966067 0.307911 0.259625
H11   H     H_    0.028946 0.945326 0.184314 0.183410
H12   H     H_    0.888406 0.860022 0.166539 0.259705
H13   H     H_    0.923185 0.482505 0.739541 0.178157
H14   H     H_    0.075280 0.526021 0.262077 0.177314
O11   O     O_3   0.737029 0.910030 0.489202 -0.565537
C31   C     C_3   0.813921 0.937702 0.604550 0.049217
H15   H     H_    0.797034 0.030607 0.646973 0.106330
H16   H     H_    0.910905 0.938344 0.569955 0.182054
C32   C     C_3   0.800723 0.838759 0.717127 -0.777204
H17   H     H_    0.843872 0.751638 0.684468 0.276682
H18   H     H_    0.846495 0.871794 0.814151 0.184504
H19   H     H_    0.701530 0.820957 0.735842 0.247840
O12   O     O_3   0.267429 0.084924 0.482304 -0.567141
C33   C     C_3   0.227803 0.091907 0.340828 0.055512
H20   H     H_    0.208673 0.997586 0.301824 0.125468
H21   H     H_    0.297747 0.138875 0.274211 0.145701
C34   C     C_3   0.110799 0.165373 0.326849 -0.760975
H22   H     H_    0.133510 0.263645 0.344375 0.279488
H23   H     H_    0.070893 0.155607 0.220363 0.188270
H24   H     H_    0.042402 0.130044 0.402042 0.252271
H25   H     H_    0.600836 0.071224 0.717577 0.157584
H26   H     H_    0.407539 0.923205 0.279069 0.151386
H27   H     H_    0.387321 0.913015 0.694301 0.173767
H28   H     H_    0.617713 0.087672 0.301061 0.176915
O13   O     O_3   0.342845 0.666592 0.880562 -0.562350
C35   C     C_3   0.285681 0.739608 0.981281 0.050518
H29   H     H_    0.352479 0.805001 0.028957 0.177358
H30   H     H_    0.245393 0.683418 0.067604 0.159797
C36   C     C_3   0.182575 0.813463 0.909841 -0.881177
H31   H     H_    0.117201 0.750896 0.855993 0.257216
H32   H     H_    0.132540 0.867181 0.987878 0.213746
H33   H     H_    0.220186 0.877528 0.829904 0.256590
O14   O     O_3   0.656231 0.332454 0.118610 -0.564466
C37   C     C_3   0.714284 0.261237 0.016775 0.052012
H34   H     H_    0.753251 0.318645 0.930646 0.160972
H35   H     H_    0.648737 0.194782 0.968704 0.177396
C38   C     C_3   0.819116 0.189462 0.087110 -0.899889
H36   H     H_    0.782996 0.121285 0.163453 0.256716
H37   H     H_    0.873074 0.140865 0.007982 0.219701
H38   H     H_    0.879935 0.253336 0.145462 0.260618
O15   O     O_3   0.561934 0.720598 0.109699 -0.547776
C39   C     C_3   0.605363 0.803206 0.006621 0.045493
H39   H     H_    0.537980 0.816372 0.918245 0.167895
H40   H     H_    0.692768 0.770875 0.965589 0.200444
C40   C     C_3   0.632679 0.926055 0.072022 -0.878056
H41   H     H_    0.690858 0.913043 0.167648 0.295087
H42   H     H_    0.681154 0.985608 0.995146 0.208813
H43   H     H_    0.545927 0.969886 0.102031 0.252517
O16   O     O_3   0.435355 0.279587 0.892257 -0.546900
C41   C     C_3   0.396403 0.196126 0.997337 0.049676
H44   H     H_    0.311012 0.227213 0.045577 0.191439
H45   H     H_    0.467250 0.182652 0.081941 0.166287
C42   C     C_3   0.368169 0.073484 0.931413 -0.877994
H46   H     H_    0.454411 0.030826 0.897194 0.254360
H47   H     H_    0.322274 0.012923 0.009316 0.199227
H48   H     H_    0.307567 0.086533 0.837794 0.290262
O17   O     O_3   0.728555 0.556377 0.907691 -0.586792
C43   C     C_3   0.811554 0.562940 0.025142 0.079431
H49   H     H_    0.846175 0.470279 0.053976 0.181384
H50   H     H_    0.769626 0.601510 0.120022 0.216599
C44   C     C_3   0.922290 0.643581 0.991434 -0.875619
H51   H     H_    0.896305 0.741200 0.982838 0.239178
H52   H     H_    0.993478 0.634583 0.075525 0.225392
H53   H     H_    0.962501 0.617099 0.892218 0.249725
O18   O     O_3   0.272653 0.443765 0.094782 -0.585934
C45   C     C_3   0.188470 0.436153 0.979040 0.082829
H54   H     H_    0.229222 0.397978 0.883251 0.219178
H55   H     H_    0.152592 0.528489 0.951140 0.178706
C46   C     C_3   0.080017 0.354113 0.016070 -0.878654
H56   H     H_    0.044854 0.377520 0.119134 0.254918
H57   H     H_    0.005005 0.366500 0.937010 0.224236
H58   H     H_    0.107449 0.256323 0.018720 0.238030

loop_
_geom_bond_atom_site_label_1
_geom_bond_atom_site_label_2
_geom_bond_distance
_ccdc_geom_bond_type
O14   C37   1.414910 S    
C32   H18   1.105827 S    
C17   C19   1.545966 S    
C8    C11   1.557554 S    
O9    C27   1.410852 S    
O17   C43   1.424690 S    
C14   C17   1.534566 S    
C41   H45   1.110525 S    
C46   H56   1.099235 S    
C30   H10   1.107771 S    
O5    C3    1.306417 A    
C31   C32   1.512938 S    
O1    C1    1.316684 A    
C16   O12   1.409939 S    
C13   C19   1.559753 S    
C9    C11   1.542520 S    
C14   C16   1.544848 S    
Cu1   N1    2.057244 S    
C6    C9    1.533141 S    
Cu2   N2    2.057246 S    
C46   H57   1.104101 S    
C44   H51   1.097501 S    
C24   C25   1.526126 S    
C39   C40   1.504978 S    
C31   H16   1.107635 S    
C7    H1    1.107598 S    
O4    Cu1   1.991097 S    
C8    H2    1.107532 S    
C43   H49   1.102294 S    
C23   N1    1.492859 S    
C36   H31   1.101552 S    
C33   H20   1.110289 S    
C44   H52   1.104592 S    
C39   H40   1.095014 S    
C29   H9    1.112247 S    
C42   H46   1.103907 S    
C21   C23   1.531454 S    
C22   C26   1.527094 S    
C8    C10   1.549121 S    
C45   C46   1.510675 S    
C30   H12   1.101287 S    
C28   H6    1.106214 S    
C32   H19   1.107128 S    
O11   C31   1.402033 S    
Cu1   Cu2   2.737708 S    
C42   H47   1.106747 S    
O2    C2    1.309565 A    
C27   H4    1.109259 S    
C35   C36   1.520608 S    
C43   H50   1.113364 S    
C41   H44   1.100322 S    
C45   H55   1.101866 S    
C30   H11   1.105418 S    
C5    C10   1.533438 S    
C3    C10   1.491865 S    
C29   C30   1.518794 S    
C32   H17   1.109553 S    
O12   C33   1.410808 S    
C22   N1    1.489699 S    
C6    O10   1.409332 S    
C5    O9    1.409643 S    
C35   H30   1.111261 S    
C13   H25   1.109702 S    
C38   H36   1.104043 S    
C34   H23   1.103622 S    
C14   H26   1.109493 S    
C46   H58   1.102095 S    
C28   H5    1.101493 S    
C21   C25   1.529338 S    
C6    C12   1.538666 S    
C31   H15   1.110043 S    
C27   C28   1.518782 S    
C22   C24   1.529559 S    
O7    Cu2   1.998352 S    
C11   H13   1.101669 S    
C38   H37   1.109369 S    
C1    C18   1.492630 S    
C2    C17   1.485106 S    
C37   C38   1.518251 S    
C5    C11   1.536134 S    
O6    C4    1.308099 A    
C44   H53   1.096695 S    
C39   H39   1.111679 S    
C40   H43   1.101908 S    
C29   H8    1.112327 S    
C22   O16   1.407128 S    
C13   C18   1.545071 S    
C41   C42   1.506939 S    
O7    C3    1.318706 A    
O3    Cu2   1.991097 S    
O8    C4    1.314676 A    
C26   O18   1.411787 S    
O4    C2    1.312605 A    
C36   H32   1.108362 S    
C37   H35   1.105267 S    
C42   H48   1.105424 S    
O1    Cu1   1.998934 S    
C27   H3    1.109178 S    
O16   C41   1.408295 S    
C45   H54   1.113563 S    
N1    C25   1.507616 S    
C28   H7    1.109494 S    
C15   C20   1.535386 S    
C5    C7    1.540108 S    
O6    Cu2   1.988941 S    
C40   H42   1.107114 S    
C23   O13   1.413120 S    
C23   C26   1.525713 S    
C10   C12   1.543014 S    
C35   H29   1.104836 S    
O3    C1    1.308854 A    
O8    Cu1   1.998353 S    
C12   H14   1.102021 S    
C34   H24   1.104724 S    
O18   C45   1.420743 S    
C15   C17   1.527763 S    
C16   C18   1.528528 S    
C7    C12   1.556219 S    
C40   H41   1.105991 S    
N2    C26   1.503835 S    
C34   H22   1.105329 S    
C38   H38   1.101519 S    
C33   C34   1.503419 S    
C21   O15   1.407442 S    
C4    C9    1.485994 S    
C18   C20   1.547881 S    
C7    C9    1.541863 S    
C24   N2    1.491016 S    
C24   O14   1.412135 S    
C13   C15   1.551926 S    
O2    Cu2   1.998934 S    
C14   C20   1.551100 S    
C25   O17   1.415392 S    
O13   C35   1.414034 S    
C20   H28   1.104648 S    
O5    Cu1   1.988941 S    
C36   H33   1.104969 S    
C19   H27   1.105093 S    
C37   H34   1.111276 S    
C16   C19   1.538266 S    
C6    C8    1.540617 S    
O10   C29   1.412219 S    
O15   C39   1.404960 S    
C33   H21   1.113929 S    
C21   N2    1.487773 S    
C15   O11   1.410491 S    
C43   C44   1.514080 S    
