data_mof_unit_65614.cif
_audit_creation_date              2012-10-26T17:56:05-0400
_audit_creation_method            fapswitch 2.2
_symmetry_space_group_name_H-M    P1
_symmetry_Int_Tables_number       1
_space_group_crystal_system       triclinic
_cell_length_a                    21.681278
_cell_length_b                    21.681314
_cell_length_c                    30.409568
_cell_angle_alpha                 89.999955
_cell_angle_beta                  90.013784
_cell_angle_gamma                 90.0
_cell_volume                      14294.886624

loop_
_atom_site_label
_atom_site_type_symbol
_atom_type_description
_atom_site_fract_x
_atom_site_fract_y
_atom_site_fract_z
_atom_type_partial_charge
C1    C     C_R   0.118908 0.500000 0.499997 0.551014
C2    C     C_R   0.380970 0.500003 0.499996 0.548617
C3    C     C_R   0.053708 0.515237 0.843456 -0.138599
C4    C     C_R   0.511752 0.054815 0.156580 -0.151957
C5    C     C_R   0.054600 0.487711 0.156646 -0.144725
C6    C     C_R   0.486335 0.946011 0.156767 -0.139451
C7    C     C_R   0.945915 0.513839 0.156707 -0.137155
C8    C     C_R   0.000337 0.500176 0.366541 -0.078110
C9    C     C_R   0.499907 0.000185 0.366551 -0.079977
C10   C     C_R   0.999987 0.500001 0.633368 -0.080770
C11   C     C_R   0.500018 0.000004 0.633369 -0.080760
C12   C     C_R   0.500013 0.000002 0.866631 -0.080771
C13   C     C_R   0.500000 0.619029 0.500000 0.548602
C14   C     C_R   0.999982 0.500004 0.866631 -0.080761
C15   C     C_R   0.499663 0.000176 0.133459 -0.078106
C16   C     C_R   0.000092 0.500185 0.133449 -0.079975
C17   C     C_R   0.000839 0.500671 0.274220 0.079208
C18   C     C_R   0.499612 0.000929 0.274219 0.078102
C19   C     C_R   0.999963 0.500008 0.725748 0.051632
C20   C     C_R   0.500033 0.000007 0.725748 0.051632
C21   C     C_R   0.500037 0.000008 0.774252 0.051633
C22   C     C_R   0.999967 0.500007 0.774252 0.051632
C23   C     C_R   0.499159 0.000672 0.225780 0.079200
C24   C     C_R   0.619029 0.500001 0.500004 0.548636
C25   C     C_R   0.000387 0.500928 0.225780 0.078112
C26   C     C_3   0.978311 0.358032 0.264559 0.003081
C27   C     C_3   0.998412 0.294673 0.247951 -0.242964
C28   C     C_3   0.943022 0.255640 0.234356 -0.489484
C29   C     C_3   0.642243 0.979641 0.264271 0.002515
C30   C     C_3   0.705484 0.000298 0.247791 -0.243316
C31   C     C_3   0.744765 0.945307 0.233760 -0.488985
C32   C     C_3   0.022719 0.655137 0.285235 0.000051
C33   C     C_3   0.029598 0.699567 0.246562 -0.250271
C34   C     C_3   0.077506 0.749331 0.256178 -0.488860
C35   C     C_R   0.000001 0.880972 0.999999 0.548671
C36   C     C_3   0.355914 0.032744 0.273225 0.003254
C37   C     C_3   0.308618 0.027701 0.236180 -0.247705
C38   C     C_3   0.270699 0.086699 0.231936 -0.490571
C39   C     C_3   0.019895 0.357562 0.734987 0.007867
C40   C     C_3   0.999371 0.294613 0.752112 -0.243089
C41   C     C_3   0.054519 0.255277 0.765762 -0.490359
C42   C     C_3   0.357591 0.980071 0.734967 0.007855
C43   C     C_3   0.294641 0.000590 0.752086 -0.243095
C44   C     C_3   0.255311 0.945438 0.765720 -0.490356
C45   C     C_3   0.980019 0.642446 0.734978 0.007849
C46   C     C_R   0.880970 0.000001 0.999995 0.548636
C47   C     C_3   0.000529 0.705405 0.752100 -0.243099
C48   C     C_3   0.945373 0.744729 0.765729 -0.490355
C49   C     C_3   0.642475 0.019939 0.735000 0.007863
C50   C     C_3   0.705432 0.999420 0.752127 -0.243094
C51   C     C_3   0.744763 0.054570 0.765775 -0.490362
C52   C     C_3   0.519982 0.142445 0.765021 0.007849
C53   C     C_3   0.499472 0.205405 0.747900 -0.243100
C54   C     C_3   0.554629 0.244729 0.734271 -0.490356
C55   C     C_3   0.857526 0.519941 0.764999 0.007865
C56   C     C_3   0.794568 0.499422 0.747873 -0.243093
C57   C     C_R   0.999999 0.119029 1.000000 0.548602
C58   C     C_3   0.755238 0.554573 0.734223 -0.490361
C59   C     C_3   0.480103 0.857562 0.765013 0.007865
C60   C     C_3   0.500626 0.794613 0.747889 -0.243089
C61   C     C_3   0.445477 0.755279 0.734238 -0.490359
C62   C     C_3   0.142410 0.480070 0.765034 0.007855
C63   C     C_3   0.205360 0.500589 0.747914 -0.243094
C64   C     C_3   0.244690 0.445437 0.734280 -0.490355
C65   C     C_3   0.477299 0.155146 0.214757 0.000047
C66   C     C_3   0.470408 0.199573 0.253430 -0.250273
C67   C     C_3   0.422514 0.249347 0.243806 -0.488857
C68   C     C_R   0.119030 0.000003 0.000004 0.548617
C69   C     C_3   0.144096 0.532735 0.226762 0.003251
C70   C     C_3   0.191374 0.527711 0.263820 -0.247709
C71   C     C_3   0.229308 0.586701 0.268047 -0.490573
C72   C     C_3   0.521682 0.858031 0.235441 0.003083
C73   C     C_3   0.501578 0.794674 0.252051 -0.242963
C74   C     C_3   0.556966 0.755638 0.265645 -0.489484
C75   C     C_3   0.857755 0.479644 0.235729 0.002515
C76   C     C_3   0.794514 0.500304 0.252208 -0.243315
C77   C     C_3   0.755232 0.445314 0.266240 -0.488986
C78   C     C_R   0.314064 0.500011 0.499987 0.025601
C79   C     C_R   0.500000 0.685935 0.500001 0.025729
C80   C     C_R   0.685935 0.500008 0.500012 0.025780
C81   C     C_R   0.500000 0.881092 0.500001 0.550930
C82   C     C_R   0.500000 0.314069 0.500004 0.025677
C83   C     C_R   0.814065 0.000008 0.999988 0.025780
C84   C     C_R   1.000000 0.185935 0.999999 0.025729
C85   C     C_R   0.185936 0.000011 0.000012 0.025601
C86   C     C_R   1.000000 0.814069 0.999996 0.025677
C87   C     C_R   0.281973 0.538493 0.529032 -0.134510
C88   C     C_R   0.538501 0.718035 0.529039 -0.134502
C89   C     C_R   0.718046 0.461523 0.529055 -0.134436
C90   C     C_R   0.461399 0.281971 0.528962 -0.134410
C91   C     C_R   0.281953 0.461529 0.470943 -0.134510
C92   C     C_R   0.881092 0.500000 0.500002 0.551122
C93   C     C_R   0.538608 0.281970 0.471052 -0.134154
C94   C     C_R   0.718026 0.538492 0.470969 -0.134501
C95   C     C_R   0.461499 0.718036 0.470963 -0.134537
C96   C     C_R   0.781973 0.038492 0.029031 -0.134501
C97   C     C_R   0.038501 0.218036 0.029037 -0.134537
C98   C     C_R   0.218046 0.961529 0.029057 -0.134511
C99   C     C_R   0.961392 0.781970 0.028948 -0.134154
C100  C     C_R   0.781954 0.961523 0.970945 -0.134436
C101  C     C_R   0.038601 0.781971 0.971038 -0.134410
C102  C     C_R   0.218027 0.038493 0.970968 -0.134510
C103  C     C_R   0.500000 0.118909 0.500004 0.551177
C104  C     C_R   0.961499 0.218035 0.970960 -0.134502
C105  C     C_R   0.000026 0.500017 0.414901 0.557600
C106  C     C_R   0.499986 0.999999 0.414904 0.557326
C107  C     C_R   0.999998 0.500000 0.585068 0.556693
C108  C     C_R   0.500006 0.000001 0.585068 0.556497
C109  C     C_R   0.500002 0.000000 0.914932 0.556692
C110  C     C_R   0.999994 0.500001 0.914932 0.556496
C111  C     C_R   0.499974 0.000017 0.085099 0.557600
C112  C     C_R   0.000014 0.499999 0.085096 0.557328
C113  C     C_R   0.185774 0.500004 0.499992 0.026918
C114  C     C_R   0.618908 0.000000 0.999997 0.551122
C115  C     C_R   0.500000 0.814225 0.500002 0.027067
C116  C     C_R   0.814226 0.500002 0.500007 0.027136
C117  C     C_R   0.500002 0.185779 0.500007 0.026891
C118  C     C_R   0.685774 0.000002 0.999993 0.027136
C119  C     C_R   0.000000 0.314225 0.999998 0.027067
C120  C     C_R   0.314226 0.000004 0.000008 0.026918
C121  C     C_R   0.999998 0.685779 0.999993 0.026891
C122  C     C_R   0.217856 0.539256 0.528506 -0.134021
C123  C     C_R   0.539267 0.782152 0.528511 -0.133996
C124  C     C_R   0.782163 0.460754 0.528524 -0.133924
C125  C     C_R   0.000000 0.381092 0.999999 0.550930
C126  C     C_R   0.460635 0.217854 0.528433 -0.133950
C127  C     C_R   0.217837 0.460760 0.471473 -0.134113
C128  C     C_R   0.539373 0.217853 0.471584 -0.133515
C129  C     C_R   0.782143 0.539256 0.471495 -0.134093
C130  C     C_R   0.460732 0.782152 0.471492 -0.134036
C131  C     C_R   0.717857 0.039256 0.028505 -0.134093
C132  C     C_R   0.039268 0.282152 0.028507 -0.134035
C133  C     C_R   0.282163 0.960760 0.028527 -0.134113
C134  C     C_R   0.960627 0.717853 0.028416 -0.133515
C135  C     C_R   0.717837 0.960754 0.971476 -0.133924
C136  C     C_R   0.381092 0.000001 0.000003 0.551014
C137  C     C_R   0.039365 0.717854 0.971567 -0.133950
C138  C     C_R   0.282144 0.039256 0.971494 -0.134021
C139  C     C_R   0.960733 0.282152 0.971489 -0.133996
C140  C     C_R   0.013460 0.445668 0.297321 0.233381
C141  C     C_R   0.554499 0.013878 0.297361 0.237635
C142  C     C_R   0.989831 0.555767 0.297320 0.250636
C143  C     C_R   0.444797 0.988898 0.297424 0.251006
C144  C     C_R   0.985346 0.445574 0.702428 0.239493
C145  C     C_R   0.445597 0.014628 0.702426 0.239502
C146  C     C_R   0.014587 0.554440 0.702433 0.239511
C147  C     C_R   1.000000 0.618909 0.999996 0.551177
C148  C     C_R   0.554462 0.985385 0.702436 0.239501
C149  C     C_R   0.485414 0.054440 0.797566 0.239511
C150  C     C_R   0.945537 0.485385 0.797564 0.239501
C151  C     C_R   0.514653 0.945573 0.797571 0.239494
C152  C     C_R   0.054403 0.514628 0.797574 0.239503
C153  C     C_R   0.510171 0.055767 0.202679 0.250633
C154  C     C_R   0.055202 0.488896 0.202576 0.251011
C155  C     C_R   0.486536 0.945670 0.202679 0.233379
C156  C     C_R   0.945501 0.513879 0.202638 0.237628
C157  C     C_R   0.013663 0.446010 0.343233 -0.139449
C158  C     C_R   0.499999 0.380972 0.500001 0.548672
C159  C     C_R   0.554085 0.013838 0.343293 -0.137154
C160  C     C_R   0.988251 0.554815 0.343419 -0.151957
C161  C     C_R   0.445399 0.987712 0.343354 -0.144715
C162  C     C_R   0.984748 0.446273 0.656545 -0.138634
C163  C     C_R   0.446292 0.015237 0.656543 -0.138599
C164  C     C_R   0.015210 0.553734 0.656551 -0.138598
C165  C     C_R   0.553752 0.984773 0.656553 -0.138619
C166  C     C_R   0.484791 0.053734 0.843449 -0.138598
C167  C     C_R   0.946247 0.484774 0.843447 -0.138618
C168  C     C_R   0.515251 0.946273 0.843454 -0.138634
Cu1   Cu    Cu3+1 0.000000 0.438210 0.500000 0.921679
Cu2   Cu    Cu3+1 0.500000 0.500000 0.455940 0.918959
Cu3   Cu    Cu3+1 0.000000 0.000000 0.044060 0.918959
Cu4   Cu    Cu3+1 0.000000 0.000000 0.955940 0.917736
Cu5   Cu    Cu3+1 0.438210 0.000000 0.500000 0.920951
Cu6   Cu    Cu3+1 0.000000 0.561790 0.500000 0.918448
Cu7   Cu    Cu3+1 0.561790 0.000000 0.500000 0.921680
Cu8   Cu    Cu3+1 0.500000 0.938210 0.000000 0.921679
Cu9   Cu    Cu3+1 0.938210 0.500000 0.000000 0.921679
Cu10  Cu    Cu3+1 0.500000 0.061790 0.000000 0.918446
Cu11  Cu    Cu3+1 0.061790 0.500000 0.000000 0.920948
Cu12  Cu    Cu3+1 0.500000 0.500000 0.544060 0.917736
H1    H     H_    0.024714 0.403756 0.360535 0.151952
H2    H     H_    0.904534 0.472086 0.860842 0.151363
H3    H     H_    0.698999 0.968596 0.780987 0.184502
H4    H     H_    0.729911 0.973181 0.726021 0.169049
H5    H     H_    0.752643 0.085564 0.737235 0.146391
H6    H     H_    0.790121 0.038130 0.778031 0.148879
H7    H     H_    0.721608 0.080816 0.792456 0.147475
H8    H     H_    0.546298 0.118992 0.738484 0.117160
H9    H     H_    0.550386 0.149573 0.794208 0.115001
H10   H     H_    0.468651 0.198976 0.719032 0.184510
H11   H     H_    0.473234 0.229887 0.774004 0.169029
H12   H     H_    0.585621 0.252605 0.762819 0.146358
H13   H     H_    0.527933 0.904555 0.860855 0.151382
H14   H     H_    0.538196 0.290088 0.722019 0.148887
H15   H     H_    0.580875 0.221570 0.707592 0.147502
H16   H     H_    0.880975 0.546256 0.738460 0.117152
H17   H     H_    0.850396 0.550347 0.794178 0.115027
H18   H     H_    0.800999 0.468597 0.719014 0.184502
H19   H     H_    0.770088 0.473185 0.773980 0.169048
H20   H     H_    0.747359 0.585569 0.762763 0.146390
H21   H     H_    0.709879 0.538133 0.721969 0.148879
H22   H     H_    0.778393 0.580817 0.707542 0.147476
H23   H     H_    0.453777 0.881015 0.738472 0.117145
H24   H     H_    0.095428 0.527923 0.860858 0.151386
H25   H     H_    0.449705 0.850420 0.794191 0.115039
H26   H     H_    0.531443 0.801057 0.719031 0.184496
H27   H     H_    0.526873 0.770130 0.773998 0.169070
H28   H     H_    0.414490 0.747388 0.762777 0.146392
H29   H     H_    0.461921 0.709926 0.721985 0.148881
H30   H     H_    0.419224 0.778438 0.707555 0.147481
H31   H     H_    0.118953 0.453744 0.738495 0.117150
H32   H     H_    0.149553 0.449675 0.794219 0.115021
H33   H     H_    0.198915 0.531404 0.719048 0.184495
H34   H     H_    0.229846 0.526837 0.774020 0.169057
H35   H     H_    0.522561 0.096820 0.138943 0.136658
H36   H     H_    0.252582 0.414452 0.762826 0.146370
H37   H     H_    0.290042 0.461877 0.722030 0.148884
H38   H     H_    0.221527 0.419182 0.707600 0.147501
H39   H     H_    0.430963 0.135053 0.207420 0.112493
H40   H     H_    0.493622 0.181311 0.185534 0.135480
H41   H     H_    0.456036 0.173374 0.283146 0.165589
H42   H     H_    0.515574 0.221826 0.260342 0.181055
H43   H     H_    0.436251 0.276580 0.214458 0.148457
H44   H     H_    0.418909 0.280962 0.272415 0.150732
H45   H     H_    0.376620 0.228107 0.237907 0.143516
H46   H     H_    0.096971 0.477316 0.139298 0.146471
H47   H     H_    0.114576 0.573894 0.233377 0.122844
H48   H     H_    0.168608 0.539542 0.194975 0.131029
H49   H     H_    0.166995 0.519007 0.295389 0.176691
H50   H     H_    0.222805 0.488274 0.257237 0.177107
H51   H     H_    0.254592 0.596053 0.236988 0.148860
H52   H     H_    0.263330 0.581453 0.295086 0.151291
H53   H     H_    0.198822 0.626461 0.275717 0.140836
H54   H     H_    0.547534 0.881380 0.262259 0.115350
H55   H     H_    0.552411 0.851511 0.206360 0.115979
H56   H     H_    0.470486 0.800450 0.280830 0.182554
H57   H     H_    0.475281 0.903757 0.139465 0.151949
H58   H     H_    0.475747 0.770321 0.225670 0.169907
H59   H     H_    0.588231 0.748397 0.237174 0.146605
H60   H     H_    0.540828 0.709983 0.277528 0.148818
H61   H     H_    0.582820 0.778667 0.292583 0.147371
H62   H     H_    0.881001 0.454080 0.262731 0.115865
H63   H     H_    0.851055 0.448516 0.206878 0.115330
H64   H     H_    0.800472 0.531807 0.280747 0.182113
H65   H     H_    0.770254 0.525844 0.225642 0.169840
H66   H     H_    0.747813 0.413646 0.238012 0.146679
H67   H     H_    0.709666 0.461850 0.278013 0.149080
H68   H     H_    0.903769 0.525147 0.139349 0.151945
H69   H     H_    0.778167 0.419768 0.293366 0.147685
H70   H     H_    0.193287 0.569556 0.550774 0.120670
H71   H     H_    0.569584 0.806728 0.550773 0.120655
H72   H     H_    0.806748 0.430449 0.550788 0.120688
H73   H     H_    0.596232 0.025145 0.360650 0.151945
H74   H     H_    0.430240 0.193280 0.550631 0.120770
H75   H     H_    0.193252 0.430457 0.449207 0.121222
H76   H     H_    0.569772 0.193279 0.449388 0.121956
H77   H     H_    0.806711 0.569560 0.449229 0.120207
H78   H     H_    0.430414 0.806728 0.449231 0.120732
H79   H     H_    0.693289 0.069559 0.050771 0.120207
H80   H     H_    0.069586 0.306728 0.050768 0.120731
H81   H     H_    0.306748 0.930457 0.050792 0.121221
H82   H     H_    0.930228 0.693279 0.050611 0.121955
H83   H     H_    0.693252 0.930449 0.949212 0.120688
H84   H     H_    0.977444 0.596821 0.361057 0.136666
H85   H     H_    0.069760 0.693280 0.949369 0.120770
H86   H     H_    0.306713 0.069556 0.949226 0.120670
H87   H     H_    0.930416 0.306728 0.949227 0.120654
H88   H     H_    0.306526 0.568564 0.551472 0.121716
H89   H     H_    0.568587 0.693488 0.551474 0.121685
H90   H     H_    0.693507 0.431450 0.551493 0.121720
H91   H     H_    0.431236 0.306520 0.551332 0.121691
H92   H     H_    0.306493 0.431458 0.448503 0.122168
H93   H     H_    0.568774 0.306518 0.448683 0.122269
H94   H     H_    0.693472 0.568565 0.448531 0.121575
H95   H     H_    0.403028 0.977318 0.360702 0.146481
H96   H     H_    0.431413 0.693489 0.448528 0.121595
H97   H     H_    0.806527 0.068565 0.051469 0.121575
H98   H     H_    0.068587 0.193489 0.051472 0.121596
H99   H     H_    0.193507 0.931458 0.051497 0.122168
H100  H     H_    0.931226 0.806518 0.051317 0.122269
H101  H     H_    0.806493 0.931450 0.948506 0.121720
H102  H     H_    0.068764 0.806520 0.948668 0.121691
H103  H     H_    0.193474 0.068564 0.948528 0.121716
H104  H     H_    0.931413 0.193489 0.948525 0.121685
H105  H     H_    0.952461 0.381381 0.237740 0.115351
H106  H     H_    0.972065 0.404555 0.639145 0.151382
H107  H     H_    0.947580 0.351515 0.293639 0.115978
H108  H     H_    0.029506 0.300445 0.219172 0.182554
H109  H     H_    0.024239 0.270319 0.274332 0.169907
H110  H     H_    0.911755 0.248402 0.262827 0.146605
H111  H     H_    0.959158 0.209983 0.222474 0.148818
H112  H     H_    0.917171 0.278669 0.207417 0.147371
H113  H     H_    0.618996 0.954077 0.237269 0.115866
H114  H     H_    0.648942 0.948512 0.293121 0.115330
H115  H     H_    0.699528 0.031801 0.219252 0.182113
H116  H     H_    0.729746 0.025838 0.274357 0.169840
H117  H     H_    0.404573 0.027924 0.639142 0.151387
H118  H     H_    0.752183 0.913639 0.261988 0.146680
H119  H     H_    0.790331 0.961841 0.221986 0.149080
H120  H     H_    0.721829 0.919762 0.206633 0.147685
H121  H     H_    0.069055 0.635034 0.292558 0.112505
H122  H     H_    0.006417 0.681301 0.314463 0.135473
H123  H     H_    0.043952 0.673369 0.216841 0.165595
H124  H     H_    0.984434 0.721828 0.239663 0.181055
H125  H     H_    0.063787 0.776563 0.285531 0.148460
H126  H     H_    0.081103 0.780949 0.227570 0.150733
H127  H     H_    0.123399 0.728083 0.262064 0.143511
H128  H     H_    0.027900 0.595450 0.639155 0.151368
H129  H     H_    0.385442 0.073889 0.266585 0.122862
H130  H     H_    0.331418 0.039583 0.305015 0.131018
H131  H     H_    0.332980 0.018962 0.204610 0.176711
H132  H     H_    0.277178 0.988279 0.242788 0.177095
H133  H     H_    0.245433 0.096086 0.262997 0.148859
H134  H     H_    0.236662 0.081437 0.204908 0.151292
H135  H     H_    0.301194 0.126443 0.224241 0.140838
H136  H     H_    0.046223 0.381015 0.761527 0.117143
H137  H     H_    0.050291 0.350417 0.705808 0.115040
H138  H     H_    0.968555 0.301059 0.780971 0.184495
H139  H     H_    0.595466 0.972085 0.639158 0.151363
H140  H     H_    0.973121 0.270130 0.726005 0.169070
H141  H     H_    0.085504 0.247384 0.737223 0.146392
H142  H     H_    0.038074 0.209926 0.778016 0.148881
H143  H     H_    0.080775 0.278437 0.792444 0.147480
H144  H     H_    0.381047 0.953745 0.761505 0.117150
H145  H     H_    0.350447 0.949675 0.705782 0.115021
H146  H     H_    0.301086 0.031405 0.780952 0.184496
H147  H     H_    0.270155 0.026838 0.725980 0.169058
H148  H     H_    0.247419 0.914453 0.737174 0.146370
H149  H     H_    0.209958 0.961878 0.777970 0.148885
H150  H     H_    0.472101 0.095450 0.860845 0.151368
H151  H     H_    0.278473 0.919184 0.792401 0.147502
H152  H     H_    0.953702 0.618993 0.761515 0.117159
H153  H     H_    0.949616 0.649574 0.705791 0.115001
H154  H     H_    0.031351 0.698975 0.780968 0.184509
H155  H     H_    0.026769 0.729887 0.725996 0.169028
H156  H     H_    0.914381 0.752606 0.737180 0.146358
H157  H     H_    0.961807 0.790089 0.777981 0.148886
H158  H     H_    0.919126 0.721571 0.792407 0.147502
H159  H     H_    0.619026 0.046257 0.761539 0.117151
H160  H     H_    0.649606 0.050344 0.705821 0.115028
O1    O     O_R   0.090160 0.447820 0.500030 -0.509419
O2    O     O_R   0.947820 0.409840 0.000030 -0.509913
O3    O     O_R   0.409840 0.052180 0.000030 -0.510179
O4    O     O_R   0.052180 0.590160 0.000030 -0.509876
O5    O     O_R   0.590160 0.052180 0.999970 -0.509845
O6    O     O_R   0.947820 0.590160 0.999970 -0.509560
O7    O     O_R   0.409840 0.947820 0.999970 -0.509419
O8    O     O_R   0.052180 0.409840 0.999970 -0.509674
O9    O     O_R   0.999980 0.447820 0.435750 -0.512009
O10   O     O_R   0.447820 0.000020 0.435750 -0.511995
O11   O     O_R   0.000020 0.552180 0.435750 -0.512680
O12   O     O_R   0.447820 0.909840 0.500030 -0.509674
O13   O     O_R   0.552180 0.999980 0.435750 -0.512008
O14   O     O_R   0.999980 0.552180 0.564250 -0.511875
O15   O     O_R   0.447820 0.999980 0.564250 -0.511991
O16   O     O_R   0.000020 0.447820 0.564250 -0.511849
O17   O     O_R   0.552180 0.000020 0.564250 -0.511973
O18   O     O_R   0.499980 0.947820 0.935750 -0.511849
O19   O     O_R   0.947820 0.500020 0.935750 -0.511973
O20   O     O_R   0.500020 0.052180 0.935750 -0.511874
O21   O     O_R   0.052180 0.499980 0.935750 -0.511990
O22   O     O_R   0.499980 0.052180 0.064250 -0.512681
O23   O     O_R   0.909840 0.552180 0.500030 -0.509844
O24   O     O_R   0.947820 0.499980 0.064250 -0.512010
O25   O     O_R   0.500020 0.947820 0.064250 -0.512010
O26   O     O_R   0.052180 0.500020 0.064250 -0.511996
O27   O     O_R   0.499980 0.409740 0.537200 -0.511749
O28   O     O_R   0.409740 0.500020 0.537200 -0.511720
O29   O     O_R   0.500020 0.590260 0.537200 -0.511740
O30   O     O_R   0.590260 0.499980 0.537200 -0.511771
O31   O     O_R   0.499980 0.590260 0.462800 -0.511748
O32   O     O_R   0.409740 0.499980 0.462800 -0.511642
O33   O     O_R   0.500020 0.409740 0.462800 -0.511310
O34   O     O_R   0.552180 0.090160 0.500030 -0.509560
O35   O     O_R   0.590260 0.500020 0.462800 -0.511596
O36   O     O_R   0.999980 0.909740 0.037200 -0.511310
O37   O     O_R   0.909740 0.000020 0.037200 -0.511596
O38   O     O_R   0.000020 0.090260 0.037200 -0.511748
O39   O     O_R   0.090260 0.999980 0.037200 -0.511642
O40   O     O_R   0.999980 0.090260 0.962800 -0.511740
O41   O     O_R   0.909740 0.999980 0.962800 -0.511771
O42   O     O_R   0.000020 0.909740 0.962800 -0.511749
O43   O     O_R   0.090260 0.000020 0.962800 -0.511720
O44   O     O_3   0.031254 0.392619 0.275484 -0.532653
O45   O     O_R   0.090160 0.552180 0.499970 -0.510179
O46   O     O_3   0.607410 0.032248 0.275603 -0.531865
O47   O     O_3   0.978670 0.609637 0.274077 -0.534971
O48   O     O_3   0.390573 0.977620 0.274934 -0.534007
O49   O     O_3   0.967161 0.392434 0.723990 -0.525942
O50   O     O_3   0.392459 0.032808 0.723985 -0.525945
O51   O     O_3   0.032760 0.607583 0.724001 -0.525953
O52   O     O_3   0.607606 0.967203 0.724005 -0.525950
O53   O     O_3   0.467241 0.107583 0.775999 -0.525953
O54   O     O_3   0.892393 0.467204 0.775995 -0.525949
O55   O     O_3   0.532837 0.892434 0.776011 -0.525943
O56   O     O_R   0.447820 0.090160 0.499970 -0.509876
O57   O     O_3   0.107542 0.532807 0.776015 -0.525945
O58   O     O_3   0.521334 0.109636 0.225923 -0.534972
O59   O     O_3   0.109424 0.477619 0.225067 -0.534009
O60   O     O_3   0.468740 0.892621 0.224517 -0.532652
O61   O     O_3   0.892590 0.532250 0.224397 -0.531867
O62   O     O_R   0.909840 0.447820 0.499970 -0.509692
O63   O     O_R   0.552180 0.909840 0.499970 -0.509913
O64   O     O_R   0.590160 0.947820 0.000030 -0.509692

loop_
_geom_bond_atom_site_label_1
_geom_bond_atom_site_label_2
_ccdc_geom_bond_type
C13   C79   S    
C140  O44   S    
C23   C155  A    
Cu1   O1    S    
C59   O55   S    
C66   H42   S    
C136  O3    A    
C22   C150  A    
C68   O43   A    
C91   C127  A    
C101  H102  S    
C97   C132  A    
C98   H99   S    
C35   C86   S    
Cu7   O63   S    
C103  O34   A    
C110  O19   A    
C125  O8    A    
C120  C133  A    
C24   O35   A    
C118  C131  A    
C27   H108  S    
C32   H122  S    
Cu5   O56   S    
C113  C122  A    
C76   H65   S    
Cu1   Cu6   S    
C121  C147  S    
C41   H142  S    
C69   O59   S    
C117  C126  A    
C6    C155  A    
C100  C135  A    
C87   H88   S    
C34   H126  S    
C4    C153  A    
C57   O38   A    
C59   C60   S    
C10   C162  A    
C3    H24   S    
C103  C117  S    
C1    C113  S    
C8    C157  A    
C30   H115  S    
C56   H18   S    
C45   C47   S    
C44   H149  S    
Cu2   O35   S    
C115  C123  A    
Cu12  O28   S    
C37   H131  S    
C28   H112  S    
C33   H124  S    
C101  C137  A    
C47   H154  S    
C32   O47   S    
C95   H96   S    
C154  O59   S    
C17   C142  A    
C77   H67   S    
Cu8   O7    S    
C75   C76   S    
C37   C38   S    
C2    C78   S    
C108  O15   A    
C55   H17   S    
C46   O41   A    
C164  H128  S    
Cu3   O36   S    
C90   C126  A    
C75   O61   S    
C67   H43   S    
C86   C99   A    
C92   C116  S    
C162  H106  S    
C83   C100  A    
C23   C153  A    
Cu4   O41   S    
C120  C138  A    
C84   C97   A    
C145  O50   S    
C139  H87   S    
C25   C154  A    
C38   H134  S    
C102  H103  S    
C50   H4    S    
C72   C73   S    
C87   C122  A    
C104  C139  A    
C60   H27   S    
Cu11  O8    S    
C125  O2    A    
C149  O53   S    
C17   C25   S    
Cu6   O45   S    
C106  O13   A    
C119  C139  A    
C26   H107  S    
Cu6   O23   S    
C42   H144  S    
Cu3   O38   S    
C111  O25   A    
Cu2   O32   S    
C33   C34   S    
C52   H9    S    
C1    O1    A    
C69   C70   S    
C117  C128  A    
Cu1   O16   S    
C61   H28   S    
C88   H89   S    
C20   C21   S    
C58   H22   S    
C166  H150  S    
C136  O7    A    
C81   O12   A    
C71   H51   S    
C143  C161  A    
C42   H145  S    
C78   C87   A    
C44   H151  S    
C141  O46   S    
Cu2   O33   S    
C54   H14   S    
Cu12  O30   S    
C92   O23   A    
C8    C105  S    
C132  H80   S    
C147  O6    A    
C26   O44   S    
C53   C54   S    
C133  H81   S    
C54   H12   S    
C64   H37   S    
C105  O9    A    
C144  O49   S    
C18   C143  A    
C43   H146  S    
C129  H77   S    
C108  O17   A    
C82   C158  S    
C39   O49   S    
C121  C137  A    
C73   H56   S    
C161  H95   S    
C141  C159  A    
C7    C156  A    
Cu9   Cu11  S    
C95   C130  A    
C20   C148  A    
Cu4   O43   S    
C21   C149  A    
C61   H30   S    
C107  O16   A    
C49   H159  S    
Cu8   Cu10  S    
C55   H16   S    
C114  O64   A    
C146  O51   S    
C25   C156  A    
C74   H60   S    
C68   C85   S    
C130  H78   S    
C48   H158  S    
C119  C132  A    
Cu5   Cu7   S    
C19   C146  A    
C45   O51   S    
C89   H90   S    
C26   H105  S    
C91   H92   S    
C29   H113  S    
C39   C40   S    
C65   H39   S    
C145  C163  A    
C146  C164  A    
C99   C134  A    
C90   H91   S    
C93   H93   S    
C29   C30   S    
C122  H70   S    
C150  O54   S    
C47   H155  S    
C11   C163  A    
C126  H74   S    
C9    C161  A    
C55   O54   S    
C96   C131  A    
Cu9   O24   S    
C1    O45   A    
C168  H13   S    
C84   C104  A    
C69   H48   S    
C40   H138  S    
C52   C53   S    
C11   C165  A    
C147  O4    A    
C53   H10   S    
C14   C110  S    
C62   H32   S    
C36   H129  S    
C105  O11   A    
C2    O32   A    
Cu4   O40   S    
C18   C141  A    
C46   O37   A    
C89   C124  A    
C152  O57   S    
Cu11  O21   S    
C93   C128  A    
C73   H58   S    
C124  H72   S    
C51   H6    S    
C59   H25   S    
C156  O61   S    
Cu10  O3    S    
C83   C96   A    
C151  O55   S    
C128  H76   S    
C56   C58   S    
C155  O60   S    
C71   H53   S    
C63   H34   S    
C31   H120  S    
C118  C135  A    
C63   C64   S    
C107  O14   A    
Cu3   O39   S    
C111  O22   A    
C49   C50   S    
C11   C108  S    
C160  H84   S    
C41   H141  S    
C52   H8    S    
Cu9   O2    S    
C85   C102  A    
C115  C130  A    
Cu11  O4    S    
C55   C56   S    
C19   C144  A    
C148  C165  A    
C35   O42   A    
C73   C74   S    
C29   O46   S    
Cu7   O13   S    
C52   O53   S    
C30   H116  S    
C98   C133  A    
C26   C27   S    
C96   H97   S    
C49   O52   S    
C30   C31   S    
C33   H123  S    
C167  H2    S    
C67   H45   S    
C62   O57   S    
C5    C154  A    
C77   H66   S    
C80   C89   A    
C43   H147  S    
C100  H101  S    
Cu10  O20   S    
C70   C71   S    
C121  C134  A    
C40   H140  S    
Cu9   O6    S    
C42   O50   S    
C48   H156  S    
C82   C93   A    
C112  O24   A    
C148  O52   S    
C65   O58   S    
Cu4   O42   S    
C157  H1    S    
C66   H41   S    
C79   C88   A    
C44   H148  S    
C6    H57   S    
C38   H135  S    
Cu7   O34   S    
C13   O29   A    
Cu6   O11   S    
C60   C61   S    
C120  C136  S    
C24   O30   A    
C62   C63   S    
C31   H118  S    
C32   H121  S    
Cu3   O37   S    
C50   C51   S    
C57   C84   S    
C41   H143  S    
C13   O31   A    
C27   H109  S    
C53   H11   S    
C34   H127  S    
C3    C14   A    
C131  H79   S    
Cu5   O10   S    
C119  C125  S    
C7    C16   A    
C36   O48   S    
C127  H75   S    
C77   H69   S    
C42   C43   S    
C159  H73   S    
C80   C94   A    
C8    C160  A    
C16   C112  S    
C36   C37   S    
C54   H15   S    
C116  C124  A    
Cu12  O27   S    
C37   H132  S    
C28   H111  S    
C81   O63   A    
C94   H94   S    
C109  O18   A    
Cu10  O5    S    
C153  O58   S    
C82   C90   A    
C72   H55   S    
C64   H38   S    
C142  O47   S    
Cu8   O18   S    
C32   C33   S    
C75   H62   S    
C104  H104  S    
C35   O36   A    
C163  H117  S    
C150  C167  A    
C68   O39   A    
Cu11  O26   S    
C67   H44   S    
C39   H137  S    
Cu1   O9    S    
C70   H49   S    
C51   H7    S    
C114  O5    A    
C92   O62   A    
C46   C83   S    
C59   H23   S    
C20   C145  A    
C14   C167  A    
C143  O48   S    
Cu9   O19   S    
Cu3   Cu4   S    
C135  H83   S    
C158  O33   A    
C38   H133  S    
C50   H3    S    
C158  O27   A    
C43   C44   S    
C60   H26   S    
C79   C95   A    
C58   H20   S    
C106  O10   A    
C76   H64   S    
C12   C166  A    
C9    C159  A    
C151  C168  A    
Cu2   O31   S    
C5    H46   S    
Cu10  O22   S    
C102  C138  A    
C74   H59   S    
C72   O60   S    
C34   H125  S    
C85   C98   A    
C6    C15   A    
C74   H61   S    
C137  H85   S    
C24   C80   S    
C116  C129  A    
C58   H21   S    
C5    C16   A    
C71   H52   S    
Cu7   O17   S    
C56   H19   S    
C21   C151  A    
C134  H82   S    
C4    H35   S    
Cu12  O29   S    
Cu5   O12   S    
C10   C107  S    
C88   C123  A    
C39   H136  S    
C69   H47   S    
C12   C109  S    
C109  O20   A    
C22   C152  A    
C94   C129  A    
C36   H130  S    
C18   C23   S    
C15   C111  S    
C19   C22   S    
C76   C77   S    
C45   H153  S    
C138  H86   S    
C9    C106  S    
C7    H68   S    
Cu2   Cu12  S    
C61   H29   S    
C97   H98   S    
C70   H50   S    
C123  H71   S    
C51   H5    S    
C140  C157  A    
C99   H100  S    
C47   C48   S    
C110  O21   A    
C62   H31   S    
C81   C115  S    
Cu8   O25   S    
Cu6   O14   S    
C63   H33   S    
C2    O28   A    
C114  C118  S    
C31   H119  S    
C45   H152  S    
C49   H160  S    
C40   C41   S    
C165  H139  S    
Cu8   O64   S    
C48   H157  S    
Cu5   O15   S    
C3    C152  A    
C10   C164  A    
C144  C162  A    
C64   H36   S    
C149  C166  A    
C142  C160  A    
C29   H114  S    
C12   C168  A    
C65   H40   S    
C113  C127  A    
C78   C91   A    
C4    C15   A    
C28   H110  S    
C72   H54   S    
C66   C67   S    
C17   C140  A    
C112  O26   A    
C75   H63   S    
C65   C66   S    
C27   C28   S    
C103  O56   A    
C86   C101  A    
Cu1   O62   S    
C57   O40   A    
