data_mof_unit_36396.cif
_audit_creation_date              2012-12-11T14:50:46-0500
_audit_creation_method            fapswitch 2.2
_symmetry_space_group_name_H-M    P1
_symmetry_Int_Tables_number       1
_space_group_crystal_system       triclinic
_cell_length_a                    10.937927
_cell_length_b                    10.926713
_cell_length_c                    18.845351
_cell_angle_alpha                 89.779248
_cell_angle_beta                  89.423811
_cell_angle_gamma                 60.022082
_cell_volume                      1950.89391428

loop_
_atom_site_label
_atom_site_type_symbol
_atom_type_description
_atom_site_fract_x
_atom_site_fract_y
_atom_site_fract_z
_atom_type_partial_charge
C1    C     C_R   0.286886 0.623959 0.615770 0.546250
C2    C     C_R   0.596973 0.096336 0.777645 -0.133521
C3    C     C_R   0.576997 0.131157 0.707463 -0.154985
C4    C     C_R   0.648862 0.615850 0.604020 0.545997
C5    C     C_R   0.675083 0.152305 0.669762 0.015207
C6    C     C_R   0.277690 0.518224 0.732585 -0.126923
C7    C     C_R   0.249763 0.532649 0.805895 0.064436
C8    C     C_R   0.195358 0.666868 0.837838 0.020126
C9    C     C_R   0.176736 0.781422 0.796038 -0.179057
C10   C     C_R   0.191736 0.769251 0.723535 -0.170029
C11   C     C_R   0.245788 0.637404 0.690876 -0.014529
C12   C     C_3   0.738695 0.504665 0.798197 0.005824
C13   C     C_R   0.719191 0.521039 0.269952 -0.108935
C14   C     C_R   0.719085 0.535185 0.197119 -0.110517
C15   C     C_R   0.646920 0.669487 0.166504 0.025838
C16   C     C_R   0.629513 0.225176 0.601875 0.531029
C17   C     C_R   0.559301 0.787326 0.209050 -0.135815
C18   C     C_R   0.555575 0.771705 0.282391 -0.145341
C19   C     C_R   0.641939 0.639737 0.313403 0.027702
C20   C     C_R   0.537281 0.162045 0.285897 -0.024057
C21   C     C_R   0.538410 0.165913 0.212840 -0.115632
C22   C     C_R   0.653371 0.156931 0.176315 -0.010082
C23   C     C_3   0.694440 0.661789 0.816349 0.046451
C24   C     C_R   0.766992 0.150681 0.213351 -0.123183
C25   C     C_R   0.766767 0.151741 0.286686 0.043284
C26   C     C_R   0.647186 0.167839 0.323786 0.050024
C27   C     C_R   0.227103 0.741181 0.282484 -0.113731
C28   C     C_R   0.228025 0.647120 0.399319 0.567284
C29   C     C_R   0.215186 0.739097 0.210451 -0.144625
C30   C     C_R   0.162387 0.658598 0.180054 0.035289
C31   C     C_R   0.143648 0.561357 0.222009 0.076648
C32   C     C_R   0.155467 0.564792 0.295091 -0.115191
C33   C     C_R   0.192195 0.658189 0.325482 0.019207
C34   C     C_3   0.663869 0.638579 0.680000 0.032019
C35   C     C_R   0.727978 0.042382 0.888992 0.548946
C36   C     C_R   0.718393 0.682660 0.891248 0.543412
C37   C     C_R   0.124812 0.703295 0.907744 0.535621
C38   C     C_R   0.674621 0.107822 0.103804 0.563596
C39   C     C_R   0.693335 0.689225 0.096738 0.549934
C40   C     C_R   0.637822 0.617368 0.389504 0.548870
C41   C     C_R   0.096430 0.706103 0.111643 0.562879
C42   C     C_R   0.618279 0.226106 0.395452 0.562047
C43   C     C_3   0.536045 0.748906 0.798995 -0.267734
C44   C     C_3   0.515288 0.731601 0.719129 -0.137220
C45   C     C_3   0.750107 0.711457 0.687871 -0.208845
C46   C     C_3   0.769008 0.724518 0.767600 -0.122917
C47   C     C_3   0.922077 0.672955 0.783903 -0.358525
C48   C     C_3   0.417826 0.149531 0.320034 -0.351534
C49   C     C_3   0.415911 0.881350 0.688380 -0.381820
C50   C     C_3   0.748496 0.487530 0.717008 -0.002959
C51   C     C_R   0.802027 0.123054 0.702274 -0.130046
C52   C     C_R   0.823657 0.084373 0.774056 -0.126751
C53   C     C_R   0.717677 0.077388 0.813099 0.021589
Cr1   Cr    Cr6+3 0.392930 0.397900 0.502230 1.030785
Cr2   Cr    Cr6+3 0.398240 0.708600 0.501260 1.018946
Cr3   Cr    Cr6+3 0.708800 0.393470 0.496460 1.073484
Cr4   Cr    Cr6+3 0.937620 0.938540 0.007640 1.051953
Cr5   Cr    Cr6+3 0.625150 0.937450 0.994520 1.043176
Cr6   Cr    Cr6+3 0.937990 0.625080 0.001190 1.102708
H1    H     H_    0.495465 0.861778 0.812965 0.153634
H2    H     H_    0.164914 0.863746 0.693426 0.153826
H3    H     H_    0.780327 0.416603 0.292235 0.175547
H4    H     H_    0.784585 0.442222 0.165253 0.158410
H5    H     H_    0.501340 0.892241 0.186454 0.138304
H6    H     H_    0.488650 0.862173 0.315052 0.121202
H7    H     H_    0.453161 0.165301 0.184270 0.166151
H8    H     H_    0.860735 0.135564 0.185555 0.167553
H9    H     H_    0.265487 0.807275 0.304179 0.165540
H10   H     H_    0.461129 0.669699 0.715871 0.137974
H11   H     H_    0.237701 0.808978 0.179027 0.149511
H12   H     H_    0.852236 0.652436 0.658845 0.169881
H13   H     H_    0.138196 0.493304 0.328029 0.144873
H14   H     H_    0.714695 0.838182 0.778558 0.131638
H15   H     H_    0.697963 0.817101 0.662403 0.110394
H16   H     H_    0.649648 0.488976 0.815345 0.109900
H17   H     H_    0.698016 0.424411 0.702581 0.118971
H18   H     H_    0.972560 0.701542 0.740664 0.141318
H19   H     H_    0.922147 0.731406 0.831108 0.143837
H20   H     H_    0.981321 0.557428 0.792951 0.233099
H21   H     H_    0.369826 0.107987 0.282340 0.124428
H22   H     H_    0.457457 0.075063 0.365463 0.148432
H23   H     H_    0.881180 0.134849 0.673176 0.165469
H24   H     H_    0.332187 0.254634 0.337659 0.179928
H25   H     H_    0.471473 0.940941 0.679294 0.130181
H26   H     H_    0.363531 0.880308 0.638914 0.193011
H27   H     H_    0.327813 0.944308 0.726136 0.137045
H28   H     H_    0.920013 0.064011 0.799168 0.154725
H29   H     H_    0.517089 0.080906 0.803684 0.164255
H30   H     H_    0.479090 0.149718 0.684217 0.148257
H31   H     H_    0.321907 0.415092 0.708186 0.159157
H32   H     H_    0.140097 0.885004 0.818492 0.156478
H33   H     H_    0.473473 0.714800 0.832086 0.119780
I1    I     I_    0.970760 0.358847 0.681127 -0.384906
I2    I     I_    0.282785 0.351941 0.863660 -0.313321
I3    I     I_    0.958609 0.110838 0.335654 -0.386173
I4    I     I_    0.104629 0.402016 0.182557 -0.381406
I5    I     I_    0.900050 0.324797 0.857979 -0.306314
O1    O     O_R   0.507430 0.255570 0.581420 -0.532925
O2    O     O_R   0.837200 0.593290 0.915250 -0.466473
O3    O     O_R   0.065330 0.635370 0.931590 -0.477633
O4    O     O_R   0.280190 0.527390 0.578910 -0.482106
O5    O     O_R   0.068300 0.828790 0.091860 -0.524990
O6    O     O_R   0.798730 0.057480 0.079370 -0.497291
O7    O     O_R   0.584680 0.080480 0.076790 -0.505224
O8    O     O_R   0.626790 0.809640 0.067050 -0.508458
O9    O     O_R   0.816010 0.596460 0.076500 -0.481619
O10   O     O_R   0.045680 0.638310 0.081070 -0.460083
O11   O     O_3   0.833590 0.833690 0.001120 -0.291470
O12   O     O_R   0.524460 0.695920 0.424060 -0.510334
O13   O     O_R   0.260310 0.739740 0.584580 -0.526368
O14   O     O_R   0.532250 0.695150 0.573830 -0.529277
O15   O     O_R   0.744930 0.503430 0.576380 -0.479303
O16   O     O_R   0.699250 0.276390 0.571950 -0.495943
O17   O     O_R   0.499020 0.256400 0.419850 -0.534675
O18   O     O_R   0.272400 0.528160 0.429140 -0.504402
O19   O     O_R   0.251910 0.740570 0.423020 -0.500348
O20   O     O_R   0.736530 0.504260 0.414810 -0.496094
O21   O     O_R   0.691460 0.277160 0.422180 -0.471331
O22   O     O_3   0.499990 0.499990 0.499980 -0.283721
O23   O     O_R   0.089490 0.825610 0.930610 -0.533515
O24   O     O_R   0.818370 0.054540 0.929880 -0.474229
O25   O     O_R   0.605870 0.077310 0.915530 -0.488641
O26   O     O_R   0.646440 0.806700 0.917570 -0.540197

loop_
_geom_bond_atom_site_label_1
_geom_bond_atom_site_label_2
_ccdc_geom_bond_type
C44   C49   S    
C39   O9    A    
C21   H7    S    
C45   H12   S    
Cr6   O2    S    
Cr3   O20   S    
Cr1   O4    S    
C1    C11   S    
C47   H20   S    
C16   O16   A    
C9    H32   S    
C7    C8    A    
C32   H13   S    
Cr2   O22   S    
C45   C46   S    
C27   C33   A    
C18   H6    S    
Cr4   O5    S    
C12   C23   S    
Cr5   O26   S    
C29   C30   A    
C49   H25   S    
Cr1   O22   S    
C17   H5    S    
C30   C31   A    
C35   C53   S    
Cr2   O19   S    
C31   I4    S    
C22   C38   S    
C23   C43   S    
C27   C29   A    
C15   C17   A    
C18   C19   A    
C5    C16   S    
C38   O7    A    
C27   H9    S    
C28   O19   A    
C24   H8    S    
C42   O17   A    
C13   H3    S    
C8    C9    A    
Cr3   O16   S    
C30   C41   S    
C2    H29   S    
C9    C10   A    
C40   O20   A    
C4    O15   A    
C23   C46   S    
C13   C14   A    
Cr2   O12   S    
Cr6   O3    S    
C6    C7    A    
C35   O25   A    
Cr4   O6    S    
C4    C34   S    
Cr5   O25   S    
Cr6   O9    S    
C34   C50   S    
C13   C19   A    
C51   C52   A    
C49   H26   S    
C35   O24   A    
C36   O26   A    
C34   C44   S    
C24   C25   A    
C10   C11   A    
C6    C11   A    
C42   O21   A    
C25   C26   A    
C6    H31   S    
Cr6   O10   S    
C45   H15   S    
C43   C44   S    
C38   O6    A    
C28   O18   A    
C50   H17   S    
C1    O13   A    
C31   C32   A    
Cr1   O18   S    
C17   C18   A    
C44   H10   S    
C34   C45   S    
C51   H23   S    
C15   C39   S    
C12   I5    S    
C20   C48   S    
C43   H1    S    
Cr4   O23   S    
C4    O14   A    
C28   C33   S    
C25   I3    S    
Cr2   O13   S    
Cr3   O22   S    
C22   C24   A    
C10   H2    S    
Cr5   O7    S    
C8    C37   S    
C47   H18   S    
C41   O5    A    
C1    O4    A    
C52   C53   A    
C26   C42   S    
C29   H11   S    
C39   O8    A    
C7    I2    S    
C46   C47   S    
C41   O10   A    
Cr2   O14   S    
Cr3   O21   S    
C49   H27   S    
C52   H28   S    
C5    C51   A    
C43   H33   S    
C3    C5    A    
C2    C53   A    
C12   C50   S    
C50   I1    S    
C40   O12   A    
Cr6   O11   S    
C48   H24   S    
C3    H30   S    
Cr5   O8    S    
C32   C33   A    
C48   H21   S    
C48   H22   S    
C16   O1    A    
C37   O23   A    
C20   C26   A    
C14   H4    S    
Cr1   O17   S    
C2    C3    A    
C36   O2    A    
Cr5   O11   S    
C46   H14   S    
C19   C40   S    
Cr4   O24   S    
Cr4   O11   S    
C20   C21   A    
C23   C36   S    
C12   H16   S    
C14   C15   A    
Cr1   O1    S    
C47   H19   S    
C21   C22   A    
Cr3   O15   S    
C37   O3    A    
