data_mof_unit_55349.cif
_audit_creation_date              2012-12-11T17:20:12-0500
_audit_creation_method            fapswitch 2.2
_symmetry_space_group_name_H-M    P1
_symmetry_Int_Tables_number       1
_space_group_crystal_system       triclinic
_cell_length_a                    8.238565
_cell_length_b                    16.415663
_cell_length_c                    22.888662
_cell_angle_alpha                 95.914997
_cell_angle_beta                  89.508061
_cell_angle_gamma                 93.215635
_cell_volume                      3074.15613494

loop_
_atom_site_label
_atom_site_type_symbol
_atom_type_description
_atom_site_fract_x
_atom_site_fract_y
_atom_site_fract_z
_atom_type_partial_charge
Ba1   Ba    Ba6+2 0.848660 0.538140 0.472240 1.691245
Ba2   Ba    Ba6+2 0.341160 0.461930 0.527770 1.664579
C1    C     C_3   0.631182 0.839406 0.320819 0.547131
C2    C     C_R   0.093900 0.568517 0.939577 -0.041983
C3    C     C_R   0.047542 0.563773 0.879588 0.623595
C4    C     C_3   0.092795 0.712697 0.312349 0.296199
C5    C     C_R   0.963564 0.421607 0.881181 0.571988
C6    C     C_R   0.007989 0.424643 0.940962 -0.017832
C7    C     C_R   0.073508 0.498461 0.970313 -0.049763
C8    C     C_R   0.159705 0.641894 0.969757 -0.048971
C9    C     C_R   0.204246 0.645507 0.028943 -0.052201
C10   C     C_R   0.184410 0.575898 0.060151 -0.024356
C11   C     C_R   0.118678 0.502144 0.030670 -0.051212
C12   C     C_3   0.618430 0.754262 0.341676 0.362957
C13   C     C_R   0.988629 0.354936 0.972040 -0.060619
C14   C     C_R   0.033428 0.358466 0.031055 -0.045264
C15   C     C_R   0.098766 0.431885 0.061192 -0.031590
C16   C     C_3   0.066810 0.736139 0.250737 -0.264423
C17   C     C_R   0.145336 0.436247 0.120965 0.622122
C18   C     C_R   0.228556 0.578641 0.120102 0.582353
C19   C     C_2   0.794388 0.447024 0.769370 -0.072453
C20   C     C_3   0.770736 0.420710 0.704757 -0.056188
C21   C     C_1   0.002081 0.514849 0.685844 0.045652
C22   C     C_2   0.048232 0.519253 0.742140 -0.054369
C23   C     C_3   0.506543 0.342117 0.349622 0.306968
C24   C     C_2   0.937031 0.485807 0.788188 0.202618
C25   C     C_R   0.405807 0.548216 0.232084 -0.055176
C26   C     C_R   0.447559 0.553892 0.291699 -0.014849
C27   C     C_R   0.191441 0.484963 0.314623 0.017892
C28   C     C_3   0.188232 0.711639 0.596500 0.317318
C29   C     C_R   0.146061 0.480955 0.254897 -0.109446
C30   C     C_R   0.252378 0.513382 0.212671 0.192636
C31   C     C_2   0.868512 0.473143 0.665730 -0.310451
C32   C     C_R   0.385685 0.732501 0.474413 -0.300505
C33   C     C_R   0.526964 0.758824 0.505189 0.032408
C34   C     C_3   0.460844 0.314460 0.285814 0.356283
C35   C     C_R   0.579163 0.841924 0.510712 -0.124685
C36   C     C_R   0.487299 0.899757 0.485841 0.236767
C37   C     C_R   0.339519 0.872512 0.457720 -0.159538
C38   C     C_R   0.287878 0.789091 0.453030 -0.010441
C39   C     C_R   0.620107 0.147151 0.490479 -0.111195
C40   C     C_3   0.198632 0.804170 0.611864 -0.338153
C41   C     C_R   0.668982 0.230246 0.494235 -0.000613
C42   C     C_R   0.713880 0.091562 0.517085 0.254566
C43   C     C_R   0.807706 0.259688 0.525422 -0.294359
C44   C     C_R   0.908154 0.205837 0.548509 -0.008833
C45   C     C_3   0.096589 0.287188 0.688370 0.331325
C46   C     C_R   0.860519 0.121695 0.545287 -0.161226
C47   C     C_3   0.006227 0.288267 0.403885 0.312988
C48   C     C_3   0.997561 0.195678 0.388808 -0.342286
C49   C     C_3   0.680766 0.640605 0.648419 0.287336
C50   C     C_3   0.639071 0.651996 0.713828 0.349243
C51   C     C_3   0.119293 0.264004 0.750272 -0.300687
C52   C     C_3   0.556875 0.243484 0.662364 0.342527
C53   C     C_3   0.522981 0.160280 0.684985 -0.341128
C54   C     C_R   0.339368 0.523972 0.332423 -0.316656
F1    F     F_    0.545459 0.839382 0.269119 -0.654865
H1    H     H_    0.685706 0.756799 0.383776 -0.016802
H2    H     H_    0.813266 0.636683 0.642617 0.012857
H3    H     H_    0.617945 0.582023 0.630079 -0.005630
H4    H     H_    0.760563 0.858371 0.313330 0.042473
H5    H     H_    0.665975 0.595854 0.734191 -0.046276
H6    H     H_    0.507187 0.661604 0.719475 0.045889
H7    H     H_    0.487817 0.737485 0.349044 -0.081263
H8    H     H_    0.579817 0.884195 0.354692 -0.043255
H9    H     H_    0.396471 0.366309 0.371955 -0.082596
H10   H     H_    0.603367 0.392089 0.350951 0.056794
H11   H     H_    0.359177 0.266898 0.284397 0.047577
H12   H     H_    0.286406 0.821090 0.648250 0.146578
H13   H     H_    0.419635 0.367458 0.264676 -0.057799
H14   H     H_    0.067543 0.680496 0.218974 0.112266
H15   H     H_    0.171237 0.344709 0.683690 0.087743
H16   H     H_    0.966303 0.297561 0.682288 -0.054078
H17   H     H_    0.237934 0.236488 0.754574 0.150667
H18   H     H_    0.117669 0.319870 0.781728 0.118214
H19   H     H_    0.020478 0.219237 0.761252 0.129495
H20   H     H_    0.691068 0.255407 0.661751 -0.061127
H21   H     H_    0.509426 0.240370 0.616829 0.076050
H22   H     H_    0.587504 0.112920 0.657051 0.086030
H23   H     H_    0.239638 0.835489 0.573349 0.047885
H24   H     H_    0.390844 0.143114 0.683534 0.154326
H25   H     H_    0.013555 0.657195 0.317964 0.090309
H26   H     H_    0.566620 0.162079 0.730899 0.132969
H27   H     H_    0.016334 0.303267 0.053072 0.148504
H28   H     H_    0.938712 0.297055 0.950759 0.136980
H29   H     H_    0.254358 0.703325 0.050252 0.143844
H30   H     H_    0.492901 0.570555 0.200989 0.125513
H31   H     H_    0.177180 0.696999 0.947659 0.143921
H32   H     H_    0.167678 0.546047 0.754919 0.124035
H33   H     H_    0.706904 0.424220 0.800334 0.122059
H34   H     H_    0.077180 0.825447 0.625684 0.152686
H35   H     H_    0.029234 0.452475 0.241337 0.157334
H36   H     H_    0.374124 0.527483 0.378124 0.085614
H37   H     H_    0.222057 0.698398 0.316879 -0.014902
H38   H     H_    0.844946 0.462376 0.618925 0.082220
H39   H     H_    0.511468 0.126319 0.465786 0.112225
H40   H     H_    0.263900 0.916288 0.440501 0.104841
H41   H     H_    0.689007 0.861031 0.535187 0.122489
H42   H     H_    0.938140 0.079755 0.563607 0.098365
H43   H     H_    0.345506 0.668296 0.470985 0.076074
H44   H     H_    0.844473 0.324271 0.527614 0.067241
H45   H     H_    0.884429 0.308426 0.416579 0.002787
H46   H     H_    0.947499 0.763553 0.247604 0.155147
H47   H     H_    0.164678 0.781146 0.239336 0.176485
H48   H     H_    0.310278 0.691008 0.584530 -0.011278
H49   H     H_    0.103911 0.696421 0.558921 0.058115
H50   H     H_    0.007334 0.768089 0.769741 0.381640
H51   H     H_    0.883220 0.309589 0.235999 0.376157
H52   H     H_    0.091672 0.304111 0.441013 0.062132
H53   H     H_    0.907747 0.177960 0.353222 0.179910
H54   H     H_    0.960317 0.164350 0.427749 0.049988
H55   H     H_    0.118764 0.175128 0.374009 0.129103
N1    N     N_R   0.983519 0.490669 0.850515 -0.429362
N2    N     N_R   0.207123 0.509502 0.150503 -0.428070
N3    N     N_2   0.535155 0.985236 0.489563 -0.228206
N4    N     N_2   0.668493 0.005690 0.514284 -0.227772
O1    O     O_2   0.899090 0.455560 0.360740 -0.430914
O2    O     O_2   0.245042 0.209937 0.539338 -0.479830
O3    O     O_3   0.146646 0.223576 0.647762 -0.596850
O4    O     O_3   0.139470 0.456390 0.431790 -0.497128
O5    O     O_3   0.555510 0.597400 0.529070 -0.487939
O6    O     O_2   0.384010 0.302440 0.472310 -0.455839
O7    O     O_3   0.560800 0.275378 0.376356 -0.613596
O8    O     O_2   0.438727 0.462630 0.709635 -0.505901
O9    O     O_3   0.479681 0.304225 0.698846 -0.592524
O10   O     O_2   0.062073 0.625202 0.853663 -0.537642
O11   O     O_2   0.907875 0.356740 0.856391 -0.612516
O12   O     O_3   0.630153 0.707752 0.621472 -0.610295
O13   O     O_2   0.133337 0.374227 0.146343 -0.570263
O14   O     O_2   0.285503 0.643042 0.145198 -0.584110
O15   O     O_3   0.652060 0.602710 0.395680 -0.491573
O16   O     O_2   0.784934 0.548617 0.292764 -0.477295
O17   O     O_3   0.058848 0.324887 0.354166 -0.618472
O18   O     O_3   0.687195 0.698197 0.299243 -0.593597
O19   O     O_2   0.805680 0.697590 0.527730 -0.462288
O20   O     O_3   0.061950 0.644310 0.424380 -0.498716
O21   O     O_2   0.951358 0.790752 0.462011 -0.482989
O22   O     O_2   0.726893 0.813789 0.723648 -0.269601
O23   O     O_3   0.051505 0.777885 0.353360 -0.598610
O24   O     O_2   0.697758 0.747182 0.814591 -0.247221
O25   O     O_3   0.951804 0.718136 0.749429 -0.496502
O26   O     O_2   0.666588 0.192931 0.264893 -0.259075
O27   O     O_2   0.584561 0.261968 0.180660 -0.240031
O28   O     O_3   0.791914 0.339856 0.254261 -0.523808
O29   O     O_2   0.290610 0.544470 0.639300 -0.473398
O30   O     O_3   0.050220 0.543670 0.568220 -0.503730
O31   O     O_3   0.537630 0.397360 0.604330 -0.475077
O32   O     O_3   0.132406 0.675122 0.645855 -0.581989
O33   O     O_3   0.634180 0.402670 0.470930 -0.478123
O34   O     O_3   0.127750 0.355750 0.575620 -0.494561
P1    P     P_3+3 0.070660 0.431690 0.369620 1.020668
P2    P     P_3+3 0.630590 0.685720 0.544880 1.006799
P3    P     P_3+3 0.087596 0.751142 0.423923 0.951684
P4    P     P_3+3 0.119040 0.568370 0.630390 1.017671
P5    P     P_3+3 0.107004 0.248502 0.577045 0.953063
P6    P     P_3+3 0.644152 0.599175 0.319073 0.979256
P7    P     P_3+3 0.565748 0.300602 0.452485 0.971063
P8    P     P_3+3 0.555526 0.399838 0.680389 0.945813
S1    S     S_3+6 0.753293 0.736742 0.751693 -0.031048
S2    S     S_3+6 0.628582 0.273994 0.244659 -0.020461

loop_
_geom_bond_atom_site_label_1
_geom_bond_atom_site_label_2
_ccdc_geom_bond_type
Ba2   O34   S    
C19   C24   D    
C40   H23   S    
C4    H25   S    
C17   O13   D    
C51   H17   S    
O17   P1    S    
C14   H27   S    
C22   H32   S    
C26   C54   A    
O27   S2    D    
C51   H18   S    
C43   C44   A    
Ba2   O29   S    
C44   P5    S    
C8    H31   S    
C20   P8    S    
C32   C38   A    
C49   O12   S    
O15   P6    S    
C33   C35   A    
C22   C24   S    
C32   C33   A    
O24   S1    D    
C36   C37   A    
C37   H40   S    
C39   H39   S    
O23   P3    S    
C9    H29   S    
C13   C14   A    
C48   H53   S    
Ba1   P2    S    
Ba1   Ba2   S    
C4    O23   S    
C46   H42   S    
C7    C11   A    
O16   P6    D    
O22   S1    D    
O12   P2    S    
O18   P6    S    
C34   H13   S    
C14   C15   A    
C21   C31   D    
O8    P8    D    
C3    O10   D    
Ba2   O6    S    
C32   H43   S    
C21   C22   D    
Ba1   O33   S    
C53   H24   S    
Ba1   O20   S    
C13   H28   S    
C52   H20   S    
C50   S1    S    
C45   O3    S    
Ba2   P4    S    
C19   C20   S    
C28   H49   S    
C39   C41   A    
Ba1   O30   S    
C1    H8    S    
O32   P4    S    
C12   H1    S    
C31   H38   S    
C35   H41   S    
O25   S1    S    
C19   H33   S    
C1    H4    S    
C54   H36   S    
C4    C16   S    
C52   O9    S    
C44   C46   A    
C49   C50   S    
C5    C6    A    
C45   H16   S    
H50   O25   S    
C18   O14   D    
C47   H45   S    
Ba2   O4    S    
O9    P8    S    
C6    C7    A    
C16   H47   S    
O7    P7    S    
C17   N2    Am   
C4    H37   S    
Ba2   O31   S    
C23   O7    S    
C40   H12   S    
C23   H10   S    
Ba1   O4    S    
C35   C36   A    
C27   P1    S    
C53   H22   S    
O19   P2    D    
C29   C30   A    
O30   P4    S    
C12   H7    S    
C10   C18   A    
C48   H55   S    
O21   P3    D    
O2    P5    D    
O1    P1    D    
Ba1   O1    S    
C25   H30   S    
C41   C43   A    
C1    C12   S    
C43   H44   S    
O29   P4    D    
C1    F1    S    
O20   P3    S    
C29   H35   S    
C6    C13   A    
O34   P5    S    
C28   H48   S    
C39   C42   A    
C38   P3    S    
C51   H19   S    
O28   S2    S    
C33   P2    S    
C53   H26   S    
H51   O28   S    
C47   H52   S    
Ba2   O5    S    
C16   H14   S    
C20   C31   S    
C47   O17   S    
C52   C53   S    
O4    P1    S    
O3    P5    S    
C3    N1    Am   
C25   C30   A    
C23   H9    S    
O26   S2    D    
C2    C3    A    
Ba1   O15   S    
C50   H6    S    
C9    C10   A    
C34   H11   S    
C28   O32   S    
C27   C54   A    
Ba2   O30   S    
C12   O18   S    
O5    P2    S    
C11   C15   A    
C30   N2    S    
C5    N1    Am   
C24   N1    S    
C27   C29   A    
C50   H5    S    
C18   N2    Am   
C36   N3    S    
N3    N4    D    
O33   P7    S    
Ba2   O33   S    
C45   C51   S    
C48   H54   S    
C15   C17   A    
O6    P7    D    
Ba1   P1    S    
C16   H46   S    
C41   P7    S    
Ba1   O5    S    
C45   H15   S    
C8    C9    A    
C34   S2    S    
C23   C34   S    
C37   C38   A    
C42   C46   A    
C49   H2    S    
C10   C11   A    
C42   N4    S    
C47   C48   S    
C21   P4    S    
C25   C26   A    
C26   P6    S    
C28   C40   S    
C49   H3    S    
C5    O11   D    
C2    C7    A    
Ba1   O19   S    
O31   P8    S    
C2    C8    A    
C40   H34   S    
C52   H21   S    
