data_mof_unit_47796.cif
_audit_creation_date              2012-12-10T19:07:37-0500
_audit_creation_method            fapswitch 2.2
_symmetry_space_group_name_H-M    P1
_symmetry_Int_Tables_number       1
_space_group_crystal_system       triclinic
_cell_length_a                    10.984428
_cell_length_b                    10.785792
_cell_length_c                    9.703829
_cell_angle_alpha                 87.419084
_cell_angle_beta                  88.641689
_cell_angle_gamma                 91.36525
_cell_volume                      1147.82282247

loop_
_atom_site_label
_atom_site_type_symbol
_atom_type_description
_atom_site_fract_x
_atom_site_fract_y
_atom_site_fract_z
_atom_type_partial_charge
C1    C     C_R   0.501757 0.262893 0.502337 0.828858
C2    C     C_R   0.931746 0.456356 0.611088 -0.083979
C3    C     C_3   0.920062 0.482358 0.760425 0.482496
C4    C     C_3   0.060589 0.491326 0.758105 0.020230
C5    C     C_R   0.435870 0.056656 0.597341 -0.059627
C6    C     C_R   0.511382 0.129351 0.507090 -0.088456
C7    C     C_R   0.595519 0.070141 0.420497 0.236661
C8    C     C_R   0.591483 0.939996 0.416599 -0.257256
C9    C     C_R   0.504364 0.870273 0.496258 -0.056481
C10   C     C_R   0.432792 0.929447 0.591888 -0.001939
C11   C     C_3   0.299176 0.917868 0.623868 0.055988
C12   C     C_R   0.262617 0.493988 0.500270 0.900826
C13   C     C_3   0.301503 0.059497 0.627840 0.036650
C14   C     C_R   0.560936 0.592262 0.065833 0.242199
C15   C     C_R   0.452424 0.403349 0.081088 -0.102324
C16   C     C_R   0.450532 0.403145 0.933204 0.318425
C17   C     C_R   0.554457 0.594021 0.920639 0.189026
C18   C     C_3   0.531250 0.729195 0.904389 -0.489342
C19   C     C_3   0.552230 0.733726 0.058856 0.397698
C20   C     C_R   0.501118 0.736915 0.497763 0.864905
C21   C     C_R   0.737179 0.502658 0.498224 0.856321
C22   C     C_R   0.056864 0.453737 0.612892 -0.119951
C23   C     C_R   0.128848 0.480911 0.495153 -0.119642
C24   C     C_R   0.065955 0.493119 0.368976 0.234584
C25   C     C_R   0.940256 0.514934 0.370682 0.246505
C26   C     C_R   0.870278 0.495932 0.494110 -0.175439
Cu1   Cu    Cu3+1 0.499990 0.499980 0.640670 1.012866
Cu2   Cu    Cu3+1 0.500010 0.500020 0.359330 1.024881
H1    H     H_    0.281607 0.871936 0.727208 0.109981
H2    H     H_    0.281033 0.090948 0.731985 0.141707
H3    H     H_    0.411780 0.325888 0.141678 0.188211
H4    H     H_    0.601781 0.779385 0.837980 0.248945
H5    H     H_    0.436587 0.746759 0.872591 0.181058
H6    H     H_    0.105370 0.424246 0.828452 0.157904
H7    H     H_    0.656518 0.893632 0.353166 0.207530
N1    N     N_R   0.500790 0.500930 0.147930 -0.220338
N2    N     N_R   0.500790 0.500890 0.852020 -0.200516
O1    O     O_R   0.500000 0.319640 0.618810 -0.581082
O2    O     O_R   0.500010 0.319680 0.381230 -0.573626
O3    O     O_R   0.319650 0.499970 0.618810 -0.545820
O4    O     O_R   0.319660 0.500010 0.381230 -0.543928
O5    O     O_R   0.499990 0.680320 0.618770 -0.589011
O6    O     O_R   0.500000 0.680360 0.381190 -0.535085
O7    O     O_R   0.680340 0.499990 0.618770 -0.542967
O8    O     O_R   0.680350 0.500030 0.381190 -0.541355
Br1   Br    Br    0.140711 0.468556 0.191809 -0.632384
N3    N     N_2   0.236260 0.124703 0.518928 -0.396301
H8    H     H_    0.256669 0.100872 0.419343 0.298014
C27   C     C_3   0.108350 0.143533 0.547260 -0.619874
H9    H     H_    0.070720 0.202981 0.462974 0.227535
H10   H     H_    0.095710 0.190759 0.645578 0.205198
H11   H     H_    0.057121 0.053490 0.554057 0.266155
N4    N     N_2   0.395223 0.300613 0.870118 -0.377823
H12   H     H_    0.453973 0.228693 0.856980 0.253959
C28   C     C_3   0.276069 0.259161 0.923702 -0.736164
H13   H     H_    0.282388 0.168952 0.982806 0.219514
H14   H     H_    0.213674 0.248582 0.837275 0.226332
H15   H     H_    0.234844 0.327285 0.990913 0.268334
Br2   Br    Br    0.705797 0.821583 0.086394 -0.483291
N5    N     N_2   0.455423 0.787948 0.139773 -0.404433
H16   H     H_    0.464872 0.882722 0.147703 0.269449
C29   C     C_3   0.330739 0.748445 0.125202 -0.591254
H17   H     H_    0.277945 0.768297 0.219499 0.295587
H18   H     H_    0.324286 0.647752 0.111921 0.258372
H19   H     H_    0.291756 0.802231 0.038098 0.186048
Br3   Br    Br    0.876092 0.596016 0.209949 -0.442981
Br4   Br    Br    0.837357 0.636899 0.800093 -0.483351
N6    N     N_2   0.869195 0.371032 0.833728 -0.448768
H20   H     H_    0.907116 0.288934 0.805275 0.230776
C30   C     C_3   0.848935 0.374516 0.980649 -0.555758
H21   H     H_    0.813601 0.282528 0.021905 0.213198
H22   H     H_    0.779139 0.443444 0.003990 0.279202
H23   H     H_    0.935727 0.395732 0.031180 0.268089
N7    N     N_2   0.109662 0.617242 0.760426 -0.389095
H24   H     H_    0.072270 0.682017 0.693428 0.317103
C31   C     C_3   0.133887 0.660507 0.894674 -0.543993
H25   H     H_    0.054670 0.642006 0.966150 0.309021
H26   H     H_    0.151882 0.762026 0.886656 0.204187
H27   H     H_    0.214314 0.611781 0.933425 0.236063
N8    N     N_2   0.681730 0.140469 0.335431 -0.413753
H28   H     H_    0.704039 0.099483 0.244468 0.276387
C32   C     C_3   0.788640 0.180740 0.406946 -0.651261
H29   H     H_    0.842161 0.099160 0.440685 0.234995
H30   H     H_    0.762547 0.233199 0.498526 0.213678
H31   H     H_    0.846591 0.242439 0.336524 0.234640
Br5   Br    Br    0.204507 0.843398 0.480124 -0.577639

loop_
_geom_bond_atom_site_label_1
_geom_bond_atom_site_label_2
_ccdc_geom_bond_type
C28   H13   S    
C3    N6    S    
C31   H27   S    
C21   C26   S    
C7    C8    A    
N3    C27   S    
N4    H12   S    
C12   C23   S    
C12   O4    A    
N7    C31   S    
C31   H26   S    
C14   N1    A    
C5    C6    A    
C11   Br5   S    
C15   C16   A    
Cu2   O4    S    
N5    C29   S    
C18   C19   S    
C16   N4    S    
C29   H18   S    
Cu1   O7    S    
C8    C9    A    
C27   H10   S    
C2    C22   A    
C23   C24   A    
C30   H21   S    
C9    C10   A    
C4    N7    S    
C16   N2    A    
C14   C17   A    
C21   O8    A    
N4    C28   S    
C4    H6    S    
Cu2   O8    S    
N7    H24   S    
C1    C6    S    
C13   H2    S    
C31   H25   S    
N8    C32   S    
C13   N3    S    
N6    H20   S    
Cu2   O2    S    
C19   Br2   S    
C25   C26   A    
N5    H16   S    
C8    H7    S    
C12   O3    A    
C29   H17   S    
C21   O7    A    
C4    C22   S    
C9    C20   S    
N3    H8    S    
Cu1   O3    S    
C27   H11   S    
C30   H23   S    
C17   C18   S    
C2    C26   A    
C17   N2    A    
C24   C25   A    
C11   H1    S    
C1    O1    A    
C27   H9    S    
C32   H30   S    
C28   H14   S    
C18   H4    S    
C3    C4    S    
C15   N1    A    
C20   O6    A    
C29   H19   S    
C5    C13   S    
C14   C19   S    
C3    Br4   S    
C25   Br3   S    
N8    H28   S    
C20   O5    A    
C15   H3    S    
C6    C7    A    
C19   N5    S    
C32   H31   S    
Cu2   O6    S    
C24   Br1   S    
C2    C3    S    
C5    C10   A    
C11   C13   S    
Cu1   O5    S    
Cu1   N2    S    
C18   H5    S    
C10   C11   S    
C1    O2    A    
Cu2   N1    S    
N6    C30   S    
C32   H29   S    
C28   H15   S    
Cu1   Cu2   S    
C22   C23   A    
C30   H22   S    
Cu1   O1    S    
C7    N8    S    
