data_mof_unit_21907.cif
_audit_creation_date              2012-12-10T18:14:36-0500
_audit_creation_method            fapswitch 2.2
_symmetry_space_group_name_H-M    P1
_symmetry_Int_Tables_number       1
_space_group_crystal_system       triclinic
_cell_length_a                    10.721355
_cell_length_b                    9.406589
_cell_length_c                    27.790751
_cell_angle_alpha                 90.04737
_cell_angle_beta                  89.91914
_cell_angle_gamma                 89.992426
_cell_volume                      2802.73181591

loop_
_atom_site_label
_atom_site_type_symbol
_atom_type_description
_atom_site_fract_x
_atom_site_fract_y
_atom_site_fract_z
_atom_type_partial_charge
C1    C     C_R   0.259638 0.499802 0.500082 0.766800
C2    C     C_R   0.492084 0.370224 0.278846 -0.103137
C3    C     C_R   0.500158 0.498412 0.253477 0.357540
C4    C     C_R   0.498791 0.495052 0.101645 -0.048655
C5    C     C_R   0.389841 0.462146 0.127455 -0.090295
C6    C     C_R   0.282107 0.423088 0.102595 -0.232080
C7    C     C_R   0.608951 0.527496 0.127021 0.004766
C8    C     C_R   0.500118 0.499556 0.354446 -0.042427
C9    C     C_R   0.499365 0.500234 0.645575 -0.042671
C10   C     C_R   0.383858 0.486886 0.974512 0.059601
C11   C     C_R   0.613155 0.504908 0.974347 0.046981
C12   C     C_R   0.499973 0.499925 0.407435 0.805391
C13   C     C_R   0.498593 0.496088 0.949158 0.062121
C14   C     C_R   0.272248 0.502270 0.948010 -0.138830
C15   C     C_R   0.272841 0.507390 0.898015 -0.169065
C16   C     C_R   0.385240 0.501877 0.872588 -0.019311
C17   C     C_R   0.498621 0.498507 0.898068 -0.047213
C18   C     C_R   0.612006 0.498634 0.872409 -0.019695
C19   C     C_R   0.609783 0.498774 0.821905 0.534035
C20   C     C_R   0.387307 0.503181 0.822081 0.539334
C21   C     C_R   0.493503 0.629189 0.721305 -0.106201
C22   C     C_R   0.494058 0.629226 0.671124 -0.225509
C23   C     C_R   0.740120 0.499791 0.500057 0.766811
C24   C     C_R   0.504181 0.371417 0.671154 -0.225667
C25   C     C_R   0.503884 0.371798 0.721333 -0.106971
C26   C     C_R   0.498490 0.500575 0.746459 0.369118
C27   C     C_R   0.384739 0.469167 0.025434 -0.060737
C28   C     C_R   0.498189 0.493954 0.050614 0.005958
C29   C     C_R   0.611651 0.516581 0.025217 0.077078
C30   C     C_R   0.277420 0.425298 0.052024 0.478493
C31   C     C_R   0.718341 0.557172 0.101590 -0.152807
C32   C     C_R   0.725511 0.502246 0.947610 -0.207391
C33   C     C_R   0.724701 0.498366 0.897608 -0.138921
C34   C     C_R   0.499747 0.500061 0.592589 0.802436
C35   C     C_R   0.719974 0.551451 0.051670 -0.214402
C36   C     C_3   0.071672 0.577558 0.545291 -0.376014
C37   C     C_3   0.071256 0.344191 0.500670 -0.376792
C38   C     C_3   0.927705 0.577551 0.545283 -0.375602
C39   C     C_3   0.928535 0.344183 0.500664 -0.376956
C40   C     C_3   0.072022 0.574666 0.454452 -0.376017
C41   C     C_3   0.121710 0.499085 0.500127 0.157254
C42   C     C_3   0.878047 0.499070 0.500114 0.157139
C43   C     C_3   0.928078 0.574655 0.454444 -0.376067
C44   C     C_3   0.611440 0.083859 0.525978 -0.188128
C45   C     C_3   0.611401 0.916196 0.526011 -0.187925
C46   C     C_3   0.388903 0.083868 0.525984 -0.188080
C47   C     C_3   0.388887 0.916241 0.525978 -0.188123
C48   C     C_3   0.500411 0.083507 0.451535 -0.186377
C49   C     C_3   0.500485 0.916291 0.451535 -0.186081
C50   C     C_R   0.392297 0.463876 0.178011 0.562534
C51   C     C_R   0.607147 0.529095 0.177528 0.529925
C52   C     C_R   0.508371 0.627202 0.278568 -0.102625
C53   C     C_R   0.508129 0.627959 0.328758 -0.227716
C54   C     C_R   0.492261 0.370601 0.329008 -0.227310
Cu1   Cu    Cu3+1 0.499860 0.642410 0.500020 0.895026
Cu2   Cu    Cu3+1 0.499860 0.357590 0.500020 0.894982
H1    H     H_    0.485946 0.270039 0.347798 0.143295
H2    H     H_    0.514425 0.726665 0.259115 0.137658
H3    H     H_    0.803818 0.584413 0.120195 0.183558
H4    H     H_    0.815990 0.499244 0.964423 0.130826
H5    H     H_    0.508388 0.270452 0.652458 0.145622
H6    H     H_    0.813212 0.496238 0.878757 0.187306
H7    H     H_    0.507797 0.272145 0.740751 0.133054
H8    H     H_    0.806978 0.579284 0.034642 0.130618
H9    H     H_    0.105998 0.689233 0.545869 0.160550
H10   H     H_    0.105517 0.284993 0.468541 0.162801
H11   H     H_    0.106431 0.524643 0.578481 0.159246
H12   H     H_    0.105268 0.287218 0.533225 0.160592
H13   H     H_    0.892696 0.524634 0.578470 0.159248
H14   H     H_    0.894284 0.287218 0.533219 0.160518
H15   H     H_    0.485969 0.270307 0.259612 0.137522
H16   H     H_    0.893343 0.689223 0.545858 0.160601
H17   H     H_    0.894542 0.284977 0.468533 0.162740
H18   H     H_    0.106370 0.686275 0.453136 0.162438
H19   H     H_    0.107035 0.519657 0.421625 0.159098
H20   H     H_    0.893703 0.686259 0.453123 0.162432
H21   H     H_    0.893351 0.519640 0.421613 0.159083
H22   H     H_    0.615308 0.123824 0.563624 0.139055
H23   H     H_    0.615072 0.876565 0.563680 0.139638
H24   H     H_    0.698173 0.120826 0.508010 0.138328
H25   H     H_    0.698224 0.878906 0.508131 0.138910
H26   H     H_    0.384818 0.123757 0.563640 0.139808
H27   H     H_    0.384822 0.876539 0.563636 0.138784
H28   H     H_    0.417143 0.122116 0.431575 0.138991
H29   H     H_    0.417314 0.877527 0.431533 0.140365
H30   H     H_    0.583711 0.122241 0.431537 0.140083
H31   H     H_    0.583893 0.877563 0.431575 0.139000
H32   H     H_    0.302283 0.120918 0.508045 0.138415
H33   H     H_    0.302231 0.879042 0.508056 0.139029
H34   H     H_    0.202121 0.385715 0.122674 0.195688
H35   H     H_    0.490173 0.730068 0.652403 0.145617
H36   H     H_    0.489399 0.728974 0.740698 0.132828
H37   H     H_    0.184540 0.517033 0.879388 0.188456
H38   H     H_    0.183163 0.517580 0.965169 0.183469
H39   H     H_    0.514406 0.728890 0.347372 0.143221
N1    N     N_R   0.499752 0.497677 0.201881 -0.468426
N2    N     N_R   0.498504 0.500708 0.797960 -0.472027
N3    N     N_3   0.500250 0.143650 0.501060 -0.112040
N4    N     N_3   0.500250 0.856350 0.501060 -0.112318
O1    O     O_R   0.317570 0.620260 0.500030 -0.595765
O2    O     O_R   0.317570 0.379740 0.500030 -0.596121
O3    O     O_R   0.499900 0.620250 0.430280 -0.592668
O4    O     O_R   0.499900 0.379750 0.430280 -0.592746
O5    O     O_R   0.682190 0.620260 0.500010 -0.595603
O6    O     O_R   0.682190 0.379740 0.500010 -0.595935
O7    O     O_R   0.499860 0.620280 0.569750 -0.589601
O8    O     O_R   0.499860 0.379720 0.569750 -0.589741
O9    O     O_2   0.287919 0.433188 0.203153 -0.539404
O10   O     O_2   0.279276 0.506408 0.797238 -0.532053
O11   O     O_2   0.712083 0.560315 0.202140 -0.539727
O12   O     O_2   0.717759 0.497445 0.796885 -0.532921
O13   O     O_3   0.178197 0.360477 0.028427 -0.572160
C55   C     C_3   0.062214 0.413908 0.044677 -0.362141
H40   H     H_    0.064694 0.530423 0.051981 0.149684
H41   H     H_    0.029862 0.354703 0.076899 0.191954
H42   H     H_    0.992070 0.396045 0.016018 0.189744

loop_
_geom_bond_atom_site_label_1
_geom_bond_atom_site_label_2
_ccdc_geom_bond_type
C10   C27   A    
C21   C26   A    
C24   H5    S    
C53   H39   S    
C49   H31   S    
Cu2   N3    S    
Cu1   Cu2   S    
C19   N2    A    
C36   H11   S    
C52   C53   A    
Cu1   O3    S    
C23   C42   S    
C34   O8    A    
C28   C29   A    
Cu2   O2    S    
C38   C42   S    
C5    C6    A    
C9    C22   A    
C15   C16   A    
C23   O6    A    
C37   H12   S    
C47   N4    S    
C18   C19   A    
C25   H7    S    
C31   H3    S    
C46   H26   S    
C44   N3    S    
C40   C43   S    
C20   N2    A    
C33   H6    S    
Cu1   O1    S    
C22   H35   S    
C3    N1    S    
C47   H27   S    
C16   C20   A    
C51   N1    A    
C55   H42   S    
C46   N3    S    
C38   H13   S    
C21   C22   A    
C27   C30   A    
C50   O9    S    
C47   H33   S    
C36   C41   S    
C4    C7    A    
C1    O1    A    
O13   C55   S    
C4    C28   A    
C39   C42   S    
C46   H32   S    
C38   H16   S    
C7    C31   A    
Cu1   O7    S    
C34   O7    A    
C49   H29   S    
C44   H24   S    
C24   C25   A    
C12   O4    A    
C2    C54   A    
C8    C54   A    
C36   H9    S    
C16   C17   A    
C25   C26   A    
C6    H34   S    
Cu1   O5    S    
C48   H28   S    
C30   O13   S    
Cu2   O8    S    
C12   O3    A    
C49   N4    S    
C23   O5    A    
C8    C12   S    
C37   H10   S    
C17   C18   A    
C45   H23   S    
C35   H8    S    
C52   H2    S    
C1    C41   S    
C48   C49   S    
C6    C30   A    
C11   C32   A    
C51   O11   S    
C45   N4    S    
C9    C34   S    
C31   C35   A    
C5    C50   A    
C42   C43   S    
C32   H4    S    
C2    H15   S    
C1    O2    A    
C44   C45   S    
C55   H40   S    
C43   H20   S    
C46   C47   S    
C40   C41   S    
C45   H25   S    
Cu2   O4    S    
C4    C5    A    
C10   C13   A    
C8    C53   A    
C15   H37   S    
C3    C52   A    
C9    C24   A    
C19   O12   S    
C43   H21   S    
C48   N3    S    
C29   C35   A    
C40   H19   S    
C13   C17   A    
C32   C33   A    
C36   C38   S    
C2    C3    A    
C7    C51   A    
C37   C39   S    
C54   H1    S    
C11   C13   A    
C50   N1    A    
C44   H22   S    
C39   H14   S    
C40   H18   S    
C48   H30   S    
C39   H17   S    
C37   C41   S    
C18   C33   A    
Cu2   O6    S    
C26   N2    S    
C20   O10   S    
C11   C29   A    
Cu1   N4    S    
C27   C28   A    
C14   C15   A    
C14   H38   S    
C10   C14   A    
C55   H41   S    
C21   H36   S    
