data_mof_unit_52368.cif
_audit_creation_date              2012-10-26T21:01:56-0400
_audit_creation_method            fapswitch 2.2
_symmetry_space_group_name_H-M    P1
_symmetry_Int_Tables_number       1
_space_group_crystal_system       triclinic
_cell_length_a                    9.878365
_cell_length_b                    10.986395
_cell_length_c                    13.854277
_cell_angle_alpha                 92.286825
_cell_angle_beta                  84.271345
_cell_angle_gamma                 88.377378
_cell_volume                      1494.08199444

loop_
_atom_site_label
_atom_site_type_symbol
_atom_type_description
_atom_site_fract_x
_atom_site_fract_y
_atom_site_fract_z
_atom_type_partial_charge
C1    C     C_R   0.497848 0.733189 0.495345 0.517005
C2    C     C_R   0.502926 0.266744 0.497797 0.506894
C3    C     C_R   0.522842 0.497821 0.317416 0.493815
C4    C     C_1   0.537343 0.492042 0.213873 -0.060781
C5    C     C_2   0.557620 0.483227 0.021202 0.296072
C6    C     C_2   0.442535 0.503782 0.978670 0.286135
C7    C     C_1   0.452960 0.501948 0.873262 -0.015134
C8    C     C_1   0.547824 0.487377 0.126674 -0.030150
C9    C     C_3   0.203840 0.539051 0.986424 -0.000632
C10   C     C_3   0.183814 0.668797 0.952017 -0.270361
C11   C     C_3   0.060717 0.678677 0.894075 -0.464415
C12   C     C_1   0.463208 0.500941 0.786085 -0.032558
C13   C     C_3   0.874250 0.357343 0.380941 0.029773
C14   C     C_3   0.792776 0.442634 0.016054 -0.134986
C15   C     C_3   0.521317 0.152192 0.312768 -0.117052
C16   C     C_3   0.371821 0.851029 0.343023 0.017637
C17   C     C_3   0.502915 0.823486 0.274533 -0.279882
C18   C     C_3   0.470565 0.796199 0.170520 -0.483338
C19   C     C_3   0.065413 0.785619 0.572453 -0.130715
C20   C     C_3   0.163828 0.352086 0.384792 0.015992
C21   C     C_2   0.519789 0.067786 0.557781 -0.068450
C22   C     C_2   0.517262 0.135914 0.479793 0.327330
C23   C     C_2   0.546359 0.935327 0.549376 -0.079107
C24   C     C_2   0.487372 0.864616 0.485613 0.302846
C25   C     C_2   0.067434 0.578072 0.550220 0.457359
C26   C     C_2   0.914161 0.562334 0.561330 0.126123
C27   C     C_R   0.477240 0.500283 0.682575 0.542239
Cu1   Cu    Cu3+1 0.361370 0.499980 0.499980 1.015593
Cu2   Cu    Cu3+1 0.638630 0.500020 0.500020 0.963696
H1    H     H_    0.505171 0.110343 0.630470 0.058394
H2    H     H_    0.966524 0.656683 0.939806 0.148265
H3    H     H_    0.931645 0.332656 0.309714 0.043849
H4    H     H_    0.770551 0.343706 0.364690 0.164545
H5    H     H_    0.897203 0.289630 0.435151 0.146683
H6    H     H_    0.780459 0.362019 0.061865 0.116945
H7    H     H_    0.809403 0.526123 0.060911 0.115964
H8    H     H_    0.885244 0.425198 0.964464 0.135841
H9    H     H_    0.562388 0.244990 0.310127 0.098294
H10   H     H_    0.408215 0.155227 0.318703 0.117341
H11   H     H_    0.557808 0.105013 0.242402 0.118782
H12   H     H_    0.603630 0.894507 0.603585 0.065890
H13   H     H_    0.302239 0.908704 0.304491 0.143527
H14   H     H_    0.315830 0.766624 0.357757 0.157753
H15   H     H_    0.571495 0.901144 0.274751 0.211437
H16   H     H_    0.559234 0.743984 0.299433 0.157813
H17   H     H_    0.396873 0.721908 0.168440 0.190066
H18   H     H_    0.565400 0.767699 0.124314 0.155606
H19   H     H_    0.426311 0.878912 0.140500 0.139105
H20   H     H_    0.958874 0.800917 0.605666 0.094335
H21   H     H_    0.071034 0.791114 0.491995 0.120367
H22   H     H_    0.125983 0.860734 0.599801 0.166076
H23   H     H_    0.857106 0.605790 0.625036 0.071138
H24   H     H_    0.271950 0.329948 0.373196 0.153212
H25   H     H_    0.141189 0.421222 0.331602 0.137870
H26   H     H_    0.121330 0.263455 0.364755 0.056330
H27   H     H_    0.114187 0.519309 0.037745 0.143191
H28   H     H_    0.204653 0.469143 0.925879 0.128182
H29   H     H_    0.168844 0.733588 0.016167 0.163085
H30   H     H_    0.275392 0.695648 0.905672 0.168612
H31   H     H_    0.074290 0.615357 0.829022 0.181156
H32   H     H_    0.049473 0.773152 0.869672 0.155395
N1    N     N_2   0.152970 0.501340 0.501040 -0.012282
N2    N     N_2   0.846830 0.501370 0.501060 -0.053510
O1    O     O_R   0.382960 0.678040 0.499980 -0.471469
O2    O     O_3   0.907857 0.477573 0.410553 -0.475293
O3    O     O_3   0.680050 0.459239 0.962330 -0.586116
O4    O     O_3   0.570049 0.086911 0.388776 -0.566367
O5    O     O_3   0.392765 0.917923 0.429877 -0.557848
O6    O     O_3   0.121123 0.674206 0.600119 -0.579450
O7    O     O_3   0.109616 0.388552 0.481150 -0.478959
O8    O     O_R   0.617100 0.678080 0.500020 -0.525079
O9    O     O_R   0.366380 0.499950 0.637830 -0.462683
O10   O     O_R   0.600520 0.499990 0.637860 -0.502558
O11   O     O_R   0.382900 0.321920 0.499980 -0.506802
O12   O     O_R   0.617040 0.321960 0.500020 -0.534846
O13   O     O_R   0.399480 0.500010 0.362140 -0.537771
O14   O     O_R   0.633620 0.500050 0.362170 -0.496336
O15   O     O_3   0.320514 0.529864 0.037756 -0.608627

loop_
_geom_bond_atom_site_label_1
_geom_bond_atom_site_label_2
_ccdc_geom_bond_type
C2    C22   S    
C5    C8    S    
C18   H19   S    
C23   C24   D    
N2    O2    S    
C15   H9    S    
C13   H4    S    
C6    C7    S    
C16   O5    S    
C26   H23   S    
C9    C10   S    
C19   H20   S    
C13   H3    S    
C15   H10   S    
C23   H12   S    
C4    C8    T    
C26   N2    D    
Cu1   O11   S    
C18   H18   S    
Cu2   N2    S    
C17   C18   S    
C14   O3    S    
C17   H15   S    
C15   O4    S    
C13   H5    S    
C2    O12   A    
C9    H27   S    
C13   O2    S    
C21   C22   D    
C14   H8    S    
C20   H24   S    
C3    O13   A    
C16   H14   S    
C20   O7    S    
Cu1   O9    S    
C1    O8    A    
C20   H26   S    
Cu2   O12   S    
Cu1   O1    S    
Cu1   Cu2   S    
C10   H29   S    
C22   O4    S    
C17   H16   S    
C10   H30   S    
C9    H28   S    
C25   N1    D    
C21   C23   S    
C3    O14   A    
C14   H7    S    
C5    C6    D    
C15   H11   S    
C19   H21   S    
C7    C12   T    
C6    O15   S    
C25   O6    S    
Cu2   O10   S    
C10   C11   S    
C24   O5    S    
C12   C27   S    
C11   H2    S    
C3    C4    S    
Cu1   O13   S    
C1    O1    A    
C19   H22   S    
C21   H1    S    
Cu2   O14   S    
N1    O7    S    
C1    C24   S    
C20   H25   S    
C9    O15   S    
C14   H6    S    
C19   O6    S    
C16   C17   S    
C11   H32   S    
C25   C26   S    
C27   O10   A    
C18   H17   S    
C27   O9    A    
C11   H31   S    
Cu1   N1    S    
C5    O3    S    
Cu2   O8    S    
C16   H13   S    
C2    O11   A    
