data_mof_unit_63044.cif
_audit_creation_date              2012-10-26T19:54:12-0400
_audit_creation_method            fapswitch 2.2
_symmetry_space_group_name_H-M    P1
_symmetry_Int_Tables_number       1
_space_group_crystal_system       triclinic
_cell_length_a                    15.925414
_cell_length_b                    16.012304
_cell_length_c                    14.781578
_cell_angle_alpha                 90.019526
_cell_angle_beta                  90.015534
_cell_angle_gamma                 89.983956
_cell_volume                      3769.3398779

loop_
_atom_site_label
_atom_site_type_symbol
_atom_type_description
_atom_site_fract_x
_atom_site_fract_y
_atom_site_fract_z
_atom_type_partial_charge
C1    C     C_R   0.500025 0.340920 0.499968 0.545143
C2    C     C_1   0.499988 0.748064 0.500031 0.077467
C3    C     C_R   0.574937 0.513604 0.951952 0.230296
C4    C     C_R   0.425063 0.486396 0.048048 0.230296
C5    C     C_R   0.499986 0.500009 0.902857 -0.061976
C6    C     C_R   0.500014 0.499991 0.097143 -0.061976
C7    C     C_R   0.425048 0.486405 0.951912 0.230860
C8    C     C_R   0.574952 0.513594 0.048088 0.230860
C9    C     C_1   0.499974 0.500017 0.802578 0.292704
C10   C     C_1   0.500026 0.499983 0.197422 0.292704
C11   C     C_R   0.339576 0.499987 0.499990 0.547374
C12   C     C_R   0.499975 0.659080 0.500032 0.545143
C13   C     C_R   0.660424 0.500013 0.500010 0.547374
C14   C     C_3   0.972041 0.426733 0.529352 0.196531
C15   C     C_3   0.027959 0.573267 0.470648 0.196531
C16   C     C_3   0.027979 0.439882 0.445926 0.198400
C17   C     C_3   0.972021 0.560118 0.554074 0.198400
C18   C     C_1   0.250304 0.499961 0.500055 0.077667
C19   C     C_1   0.749695 0.500039 0.499945 0.077667
C20   C     C_3   0.027625 0.486557 0.585256 0.203389
C21   C     C_3   0.972375 0.513443 0.414744 0.203389
C22   C     C_3   0.083880 0.499856 0.500876 0.000700
C23   C     C_R   0.500045 0.912780 0.499649 0.024095
C24   C     C_3   0.916120 0.500144 0.499124 0.000700
C25   C     C_1   0.175105 0.499926 0.500313 0.117729
C26   C     C_1   0.824895 0.500074 0.499687 0.117729
C27   C     C_R   0.490308 0.955387 0.582047 0.245597
C28   C     C_R   0.509692 0.044613 0.417953 0.245597
C29   C     C_R   0.499955 0.087220 0.500351 0.024095
C30   C     C_R   0.509730 0.956318 0.417683 0.193318
C31   C     C_R   0.490270 0.043682 0.582317 0.193318
C32   C     C_1   0.500014 0.823024 0.499878 0.120987
C33   C     C_1   0.499986 0.176976 0.500122 0.120987
C34   C     C_1   0.500012 0.251936 0.499969 0.077467
Cl1   Cl    Cl    0.936751 0.531164 0.302171 -0.380672
Cl2   Cl    Cl    0.063248 0.468836 0.697829 -0.380672
Cl3   Cl    Cl    0.478227 0.100922 0.684153 -0.491013
Cl4   Cl    Cl    0.521773 0.899077 0.315847 -0.491013
Cl5   Cl    Cl    0.669776 0.530772 0.107316 -0.369343
Cl6   Cl    Cl    0.330224 0.469228 0.892684 -0.369343
Cl7   Cl    Cl    0.669741 0.530796 0.892776 -0.377142
Cl8   Cl    Cl    0.330259 0.469204 0.107224 -0.377142
Cu1   Cu    Cu3+1 0.500020 0.500000 0.589220 1.139230
Cu2   Cu    Cu3+1 0.499980 0.500000 0.410780 1.139230
H1    H     H_    0.007971 0.348313 0.365322 0.378153
H2    H     H_    0.992029 0.651687 0.634678 0.378153
H3    H     H_    0.992090 0.315653 0.572340 0.376447
H4    H     H_    0.007909 0.684347 0.427660 0.376447
H5    H     H_    0.474823 0.944929 0.713244 0.399814
H6    H     H_    0.525177 0.055071 0.286756 0.399814
N1    N     N_1   0.500030 0.499980 0.276710 -0.145838
N2    N     N_1   0.499970 0.500020 0.723290 -0.145838
O1    O     O_R   0.500040 0.380310 0.575320 -0.480569
O2    O     O_3   0.941494 0.623864 0.609708 -0.599354
O3    O     O_3   0.941541 0.349564 0.558860 -0.607019
O4    O     O_3   0.058459 0.650436 0.441139 -0.607019
O5    O     O_3   0.481105 0.908274 0.659964 -0.634304
O6    O     O_3   0.518895 0.091726 0.340036 -0.634304
O7    O     O_R   0.499960 0.619690 0.424680 -0.480569
O8    O     O_R   0.500000 0.380310 0.424640 -0.487865
O9    O     O_R   0.500000 0.619690 0.575360 -0.487865
O10   O     O_R   0.379100 0.499990 0.575330 -0.481704
O11   O     O_R   0.620900 0.500010 0.424670 -0.481704
O12   O     O_R   0.379060 0.499990 0.424640 -0.479103
O13   O     O_R   0.620940 0.500010 0.575360 -0.479102
O14   O     O_3   0.058506 0.376136 0.390292 -0.599354

loop_
_geom_bond_atom_site_label_1
_geom_bond_atom_site_label_2
_ccdc_geom_bond_type
C6    C10   S    
C6    C8    A    
C7    Cl6   S    
C11   C18   S    
C5    C9    S    
C16   C21   S    
C21   Cl1   S    
C8    Cl5   S    
C23   C27   A    
C5    C7    A    
C13   O11   A    
Cu1   O13   S    
C11   O10   A    
C2    C12   S    
C23   C32   S    
H2    O2    S    
C28   C30   A    
C14   O3    S    
C29   C31   A    
C13   O13   A    
Cu2   O12   S    
C2    C32   T    
C12   O9    A    
C9    N2    T    
C30   Cl4   S    
C18   C25   T    
C4    Cl8   S    
Cu2   O8    S    
C4    C7    A    
C10   N1    T    
Cu2   N1    S    
C4    C6    A    
C28   C29   A    
C24   C26   S    
C1    C34   S    
C33   C34   T    
C28   O6    S    
Cu2   O11   S    
Cu1   Cu2   S    
C15   O4    S    
C14   C16   S    
Cu1   N2    S    
C1    O8    A    
C17   C24   S    
C16   O14   S    
C13   C19   S    
Cu2   O7    S    
C27   C31   A    
C20   Cl2   S    
C23   C30   A    
C29   C33   S    
C15   C21   S    
C17   C20   S    
H5    O5    S    
Cu1   O9    S    
C14   C20   S    
H3    O3    S    
C3    C8    A    
C27   O5    S    
C21   C24   S    
C14   C24   S    
H1    O14   S    
H4    O4    S    
C19   C26   T    
C1    O1    A    
C3    Cl7   S    
C16   C22   S    
C15   C17   S    
C12   O7    A    
C11   O12   A    
C17   O2    S    
Cu1   O1    S    
C15   C22   S    
C31   Cl3   S    
Cu1   O10   S    
C20   C22   S    
C3    C5    A    
C22   C25   S    
H6    O6    S    
