data_mof_unit_17215.cif
_audit_creation_date              2012-12-10T17:57:27-0500
_audit_creation_method            fapswitch 2.2
_symmetry_space_group_name_H-M    P1
_symmetry_Int_Tables_number       1
_space_group_crystal_system       triclinic
_cell_length_a                    9.504389
_cell_length_b                    10.829191
_cell_length_c                    13.495698
_cell_angle_alpha                 90.013015
_cell_angle_beta                  72.567615
_cell_angle_gamma                 89.737667
_cell_volume                      1325.22972881

loop_
_atom_site_label
_atom_site_type_symbol
_atom_type_description
_atom_site_fract_x
_atom_site_fract_y
_atom_site_fract_z
_atom_type_partial_charge
C1    C     C_R   0.500556 0.738010 0.497121 0.839326
C2    C     C_R   0.446217 0.521517 0.974756 0.010115
C3    C     C_R   0.477190 0.476401 0.871349 0.056123
C4    C     C_R   0.552314 0.498633 0.028132 0.087616
C5    C     C_R   0.694907 0.453765 0.973406 0.162845
C6    C     C_R   0.721927 0.409291 0.872910 -0.243278
C7    C     C_R   0.610562 0.411382 0.826186 -0.181998
C8    C     C_R   0.516711 0.506523 0.135965 -0.178733
C9    C     C_R   0.770379 0.466922 0.129185 -0.179517
C10   C     C_R   0.375841 0.500062 0.814620 -0.096210
C11   C     C_R   0.604525 0.935226 0.529628 -0.199091
C12   C     C_R   0.421595 0.494751 0.700186 0.792953
C13   C     C_R   0.605602 0.062960 0.530800 -0.171842
C14   C     C_R   0.501581 0.128779 0.497300 -0.072122
C15   C     C_R   0.398619 0.066794 0.460514 -0.199037
C16   C     C_R   0.397670 0.938988 0.457552 0.270857
C17   C     C_R   0.500260 0.872126 0.494142 -0.098202
C18   C     C_R   0.896300 0.572418 0.568064 -0.002550
C19   C     C_R   0.045202 0.572264 0.568124 0.018981
C20   C     C_R   0.103711 0.427643 0.431878 0.012922
C21   C     C_R   0.954772 0.427687 0.431901 -0.008565
C22   C     C_R   0.500441 0.262226 0.499585 0.795972
C23   C     C_R   0.578675 0.498987 0.300097 0.822626
C24   C     C_R   0.804724 0.443731 0.023098 -0.197447
C25   C     C_R   0.624327 0.493212 0.186685 -0.059664
C26   C     C_R   0.236898 0.549931 0.865679 -0.256009
C27   C     C_R   0.206644 0.595219 0.965898 -0.163718
C28   C     C_R   0.313150 0.590584 0.017810 0.237308
Cu1   Cu    Cu3+1 0.359340 0.499980 0.500000 0.983380
Cu2   Cu    Cu3+1 0.640660 0.500020 0.500000 0.958245
H1    H     H_    0.855333 0.456038 0.167045 0.163381
H2    H     H_    0.685967 0.110100 0.559458 0.158124
H3    H     H_    0.320109 0.117832 0.432239 0.172074
H4    H     H_    0.816740 0.630515 0.622515 0.127400
H5    H     H_    0.078059 0.630187 0.622582 0.122016
H6    H     H_    0.183267 0.369512 0.377456 0.119974
H7    H     H_    0.921907 0.369738 0.377463 0.123438
H8    H     H_    0.826355 0.365630 0.832763 0.146909
H9    H     H_    0.915302 0.413486 0.980794 0.144734
H10   H     H_    0.402831 0.513413 0.181958 0.194212
H11   H     H_    0.156296 0.565668 0.824723 0.166181
H12   H     H_    0.104073 0.644636 0.999667 0.182463
H13   H     H_    0.631439 0.361135 0.754061 0.170211
H14   H     H_    0.684171 0.885851 0.557919 0.169111
N1    N     N_R   0.147940 0.499970 0.499970 -0.157721
N2    N     N_R   0.852060 0.500060 0.499990 -0.166597
O1    O     O_R   0.381250 0.680340 0.500010 -0.537833
O2    O     O_R   0.618820 0.680370 0.500010 -0.581928
O3    O     O_R   0.323240 0.499950 0.650980 -0.590061
O4    O     O_R   0.560810 0.499980 0.650980 -0.594658
O5    O     O_R   0.381180 0.319630 0.499990 -0.593412
O6    O     O_R   0.618750 0.319660 0.499990 -0.594394
O7    O     O_R   0.439190 0.500020 0.349020 -0.572031
O8    O     O_R   0.676760 0.500050 0.349020 -0.582692
Br1   Br    Br    0.258099 0.865259 0.397485 -0.450923
Br2   Br    Br    0.278977 0.706818 0.131027 -0.479265

loop_
_geom_bond_atom_site_label_1
_geom_bond_atom_site_label_2
_ccdc_geom_bond_type
C12   O4    A    
C19   N1    A    
C1    O2    A    
C12   O3    A    
C6    C7    A    
C7    H13   S    
C11   C13   A    
C13   H2    S    
C1    C17   S    
C20   N1    A    
C4    C8    A    
C14   C22   S    
C6    H8    S    
C2    C3    A    
C28   Br2   S    
C16   Br1   S    
C9    C25   A    
C11   H14   S    
C9    C24   A    
C3    C10   A    
C19   H5    S    
C13   C14   A    
Cu1   O3    S    
C8    C25   A    
Cu2   O8    S    
C27   H12   S    
C10   C26   A    
C26   C27   A    
Cu1   Cu2   S    
C5    C24   A    
C10   C12   S    
Cu1   O1    S    
C2    C4    A    
C18   N2    A    
Cu2   O2    S    
Cu2   N2    S    
C23   O7    A    
C3    C7    A    
C18   H4    S    
Cu2   O4    S    
C5    C6    A    
C22   O5    A    
C9    H1    S    
C15   C16   A    
C20   H6    S    
C24   H9    S    
C21   H7    S    
C20   C21   A    
C23   O8    A    
C22   O6    A    
C21   N2    A    
Cu1   O5    S    
Cu1   N1    S    
C27   C28   A    
C18   C19   A    
Cu2   O6    S    
C14   C15   A    
C4    C5    A    
C2    C28   A    
C8    H10   S    
C23   C25   S    
C15   H3    S    
C11   C17   A    
C26   H11   S    
C1    O1    A    
C16   C17   A    
Cu1   O7    S    
