data_mof_unit_52967.cif
_audit_creation_date              2012-12-10T18:42:31-0500
_audit_creation_method            fapswitch 2.2
_symmetry_space_group_name_H-M    P1
_symmetry_Int_Tables_number       1
_space_group_crystal_system       triclinic
_cell_length_a                    8.593795
_cell_length_b                    10.72837
_cell_length_c                    9.846566
_cell_angle_alpha                 89.999856
_cell_angle_beta                  98.655889
_cell_angle_gamma                 90.116331
_cell_volume                      897.485897487

loop_
_atom_site_label
_atom_site_type_symbol
_atom_type_description
_atom_site_fract_x
_atom_site_fract_y
_atom_site_fract_z
_atom_type_partial_charge
C1    C     C_R   0.499897 0.259867 0.499939 0.864018
C2    C     C_R   0.497788 0.063843 0.623563 -0.196608
C3    C     C_R   0.500138 0.872601 0.500050 -0.009231
C4    C     C_R   0.499862 0.127399 0.499950 -0.009231
C5    C     C_R   0.594691 0.579995 0.084330 -0.077351
C6    C     C_R   0.405309 0.420005 0.915670 -0.077351
C7    C     C_R   0.594633 0.579974 0.940465 -0.075171
C8    C     C_R   0.405367 0.420026 0.059535 -0.075171
C9    C     C_R   0.500103 0.740133 0.500060 0.864019
C10   C     C_R   0.201090 0.499984 0.464065 0.972475
C11   C     C_R   0.798910 0.500015 0.535935 0.972476
C12   C     C_2   0.035972 0.500089 0.444721 -0.386656
C13   C     C_2   0.964028 0.499911 0.555279 -0.386656
C14   C     C_R   0.502025 0.063817 0.376380 -0.196599
C15   C     C_R   0.497975 0.936183 0.623620 -0.196599
C16   C     C_R   0.502212 0.936156 0.376437 -0.196608
H1    H     H_    0.974073 0.500360 0.339853 0.179556
H2    H     H_    0.329698 0.356075 0.104110 0.125653
H3    H     H_    0.025927 0.499640 0.660147 0.179557
H4    H     H_    0.503663 0.112206 0.279999 0.156592
H5    H     H_    0.496337 0.887794 0.720001 0.156592
H6    H     H_    0.504022 0.887747 0.280096 0.156317
H7    H     H_    0.495978 0.112253 0.719904 0.156317
H8    H     H_    0.670433 0.643946 0.148728 0.125553
H9    H     H_    0.329567 0.356054 0.851272 0.125553
H10   H     H_    0.670302 0.643925 0.895890 0.125653
N1    N     N_R   0.499960 0.499970 0.857200 -0.079890
N2    N     N_R   0.500040 0.500030 0.142800 -0.079890
O1    O     O_R   0.499990 0.316750 0.614620 -0.630671
O2    O     O_R   0.500010 0.683250 0.385380 -0.630671
O3    O     O_R   0.499990 0.316780 0.385290 -0.630607
O4    O     O_R   0.500010 0.683220 0.614710 -0.630607
O5    O     O_R   0.271750 0.499990 0.587840 -0.614570
O6    O     O_R   0.728250 0.500010 0.412160 -0.614570
O7    O     O_R   0.271750 0.500010 0.358510 -0.625207
O8    O     O_R   0.728250 0.499990 0.641490 -0.625207
Zn1   Zn    Zn3+2 0.500000 0.499980 0.653120 0.942395
Zn2   Zn    Zn3+2 0.500000 0.500020 0.346880 0.942395

loop_
_geom_bond_atom_site_label_1
_geom_bond_atom_site_label_2
_ccdc_geom_bond_type
C12   H1    S    
C2    C4    A    
C10   O7    A    
C3    C9    S    
C5    N2    A    
C6    N1    A    
O3    Zn2   S    
N2    Zn2   S    
C1    C4    S    
C1    O1    A    
C7    N1    A    
O4    Zn1   S    
C2    C15   A    
C11   C13   S    
C5    H8    S    
C7    H10   S    
C9    O2    A    
N1    Zn1   S    
C10   C12   S    
C11   O8    A    
C10   O5    A    
C1    O3    A    
C4    C14   A    
C8    N2    A    
C14   C16   A    
C6    H9    S    
C13   H3    S    
C14   H4    S    
C15   H5    S    
O7    Zn2   S    
C3    C15   A    
C12   C13   D    
O2    Zn2   S    
O5    Zn1   S    
O1    Zn1   S    
C2    H7    S    
C5    C7    A    
O8    Zn1   S    
C6    C8    A    
C9    O4    A    
O6    Zn2   S    
C11   O6    A    
C8    H2    S    
C3    C16   A    
C16   H6    S    
