data_mof_unit_22228.cif
_audit_creation_date              2012-12-11T15:10:50-0500
_audit_creation_method            fapswitch 2.2
_symmetry_space_group_name_H-M    P1
_symmetry_Int_Tables_number       1
_space_group_crystal_system       triclinic
_cell_length_a                    21.097405
_cell_length_b                    7.239127
_cell_length_c                    18.273938
_cell_angle_alpha                 89.999986
_cell_angle_beta                  93.554243
_cell_angle_gamma                 89.999872
_cell_volume                      2785.55178734

loop_
_atom_site_label
_atom_site_type_symbol
_atom_type_description
_atom_site_fract_x
_atom_site_fract_y
_atom_site_fract_z
_atom_type_partial_charge
O1    O     O_R   0.448880 0.506250 0.415280 -0.528782
O2    O     O_R   0.551120 0.006250 0.584720 -0.528783
O3    O     O_R   0.434830 0.174000 0.557310 -0.521819
O4    O     O_R   0.565170 0.674000 0.442690 -0.521818
C1    C     C_R   0.416989 0.344570 0.579656 0.702413
C2    C     C_R   0.583011 0.844570 0.420343 0.702412
O5    O     O_R   0.441680 0.176440 0.414130 -0.526973
O6    O     O_R   0.558320 0.676440 0.585870 -0.526970
O7    O     O_R   0.558020 0.007570 0.440520 -0.519036
O8    O     O_R   0.441980 0.507570 0.559480 -0.519033
C3    C     C_R   0.428097 0.344817 0.388164 0.667658
C4    C     C_R   0.571903 0.844816 0.611836 0.667660
O9    O     O_3   0.538160 0.339670 0.508820 -0.365165
O10   O     O_3   0.461840 0.839670 0.491180 -0.365165
V1    V     V_3+5 0.492920 0.064260 0.498360 1.436938
V2    V     V_3+5 0.507080 0.564260 0.501640 1.436947
C5    C     C_R   0.878663 0.965578 0.684582 0.370241
C6    C     C_R   0.121334 0.465519 0.315420 0.370242
H1    H     H_    0.792242 0.987177 0.568457 0.141639
H2    H     H_    0.207752 0.487089 0.431549 0.141639
C7    C     C_R   0.889087 0.941920 0.817751 -0.213481
C8    C     C_R   0.110913 0.441916 0.182248 -0.213480
C9    C     C_R   0.582339 0.812724 0.748600 0.357574
C10   C     C_R   0.417663 0.312762 0.251398 0.357574
C11   C     C_R   0.619606 0.805283 0.814101 -0.103147
C12   C     C_R   0.380398 0.305341 0.185895 -0.103145
C13   C     C_R   0.684798 0.835331 0.816204 -0.252057
C14   C     C_R   0.315204 0.335375 0.183793 -0.252057
C15   C     C_R   0.715967 0.875654 0.751918 0.121137
C16   C     C_R   0.284034 0.375663 0.248082 0.121135
C17   C     C_R   0.678180 0.883498 0.684114 0.033397
C18   C     C_R   0.321820 0.383486 0.315886 0.033397
C19   C     C_R   0.783443 0.906509 0.752791 0.060467
C20   C     C_R   0.216556 0.406504 0.247209 0.060467
C21   C     C_R   0.811872 0.939702 0.685401 -0.051818
C22   C     C_R   0.188126 0.439660 0.314601 -0.051821
C23   C     C_R   0.773059 0.951961 0.620164 -0.163346
C24   C     C_R   0.226937 0.451900 0.379839 -0.163346
C25   C     C_R   0.707966 0.923384 0.619468 -0.155372
C26   C     C_R   0.292031 0.423338 0.380535 -0.155366
C27   C     C_R   0.823562 0.907653 0.818382 -0.264868
C28   C     C_R   0.176439 0.407667 0.181617 -0.264867
C29   C     C_R   0.916664 0.971823 0.750182 0.362596
C30   C     C_R   0.083333 0.471783 0.249819 0.362592
C31   C     C_R   0.611298 0.850733 0.682196 -0.185211
C32   C     C_R   0.388702 0.350737 0.317804 -0.185209
H3    H     H_    0.805281 0.886584 0.871475 0.126572
H4    H     H_    0.194721 0.386623 0.128523 0.126569
H5    H     H_    0.709374 0.824391 0.869413 0.131238
H6    H     H_    0.290631 0.324451 0.130583 0.131237
H7    H     H_    0.597504 0.774992 0.864694 0.150091
H8    H     H_    0.402501 0.275076 0.135301 0.150091
H9    H     H_    0.681043 0.933712 0.567231 0.106478
H10   H     H_    0.318953 0.433650 0.432773 0.106470
C33   C     C_1   0.864633 0.938959 0.132238 -0.188831
C34   C     C_1   0.135367 0.438958 0.867762 -0.188831
C35   C     C_1   0.821824 0.924897 0.176049 0.021598
C36   C     C_1   0.178176 0.424896 0.823951 0.021597
C37   C     C_1   0.771285 0.905767 0.228203 0.019116
C38   C     C_1   0.228715 0.405766 0.771797 0.019115
C39   C     C_1   0.728720 0.889127 0.272197 0.017288
C40   C     C_1   0.271280 0.389127 0.727803 0.017287
C41   C     C_1   0.678151 0.869990 0.324309 0.018714
C42   C     C_1   0.321848 0.369991 0.675691 0.018713
C43   C     C_1   0.635292 0.855923 0.368052 -0.189531
C44   C     C_1   0.364708 0.355924 0.631948 -0.189532
O11   O     O_R   0.058070 0.289240 0.940580 -0.521082
O12   O     O_R   0.941930 0.789240 0.059420 -0.521083
O13   O     O_R   0.058330 0.616740 0.085880 -0.530546
O14   O     O_R   0.941670 0.116740 0.914120 -0.530544
C45   C     C_R   0.071898 0.448732 0.111945 0.697046
C46   C     C_R   0.928102 0.948733 0.888055 0.697048
O15   O     O_R   0.065180 0.619040 0.942700 -0.522597
O16   O     O_R   0.934820 0.119040 0.057300 -0.522595
O17   O     O_R   0.948870 0.787780 0.915270 -0.526496
O18   O     O_R   0.051130 0.287780 0.084730 -0.526496
C47   C     C_R   0.083159 0.450335 0.920161 0.711282
C48   C     C_R   0.916841 0.950335 0.079839 0.711280
O19   O     O_3   0.961870 0.453310 0.991210 -0.367102
O20   O     O_3   0.038130 0.953310 0.008790 -0.367102
V3    V     V_3+5 0.007070 0.728770 0.001630 1.434009
V4    V     V_3+5 0.992930 0.228770 0.998370 1.434017
O21   O     O_3   0.980948 0.003538 0.744860 -0.604799
H11   H     H_    0.003666 0.999075 0.793776 0.278330
O22   O     O_3   0.019048 0.503478 0.255142 -0.604798
H12   H     H_    0.996333 0.499054 0.206224 0.278329
O23   O     O_3   0.908979 0.986637 0.620297 -0.598052
H13   H     H_    0.889538 0.899805 0.583556 0.294001
O24   O     O_3   0.091016 0.486542 0.379705 -0.598051
H14   H     H_    0.110459 0.399699 0.416441 0.294001
O25   O     O_3   0.518007 0.780670 0.752693 -0.641405
H15   H     H_    0.495053 0.804774 0.704862 0.281686
O26   O     O_3   0.481996 0.280725 0.247304 -0.641403
H16   H     H_    0.504949 0.304795 0.295139 0.281684

loop_
_geom_bond_atom_site_label_1
_geom_bond_atom_site_label_2
_ccdc_geom_bond_type
C16   C18   A    
O23   H13   S    
C41   C43   T    
O26   H16   S    
C9    C31   A    
C13   C15   A    
C29   O21   S    
O11   C47   A    
O2    C4    A    
C2    O7    A    
C5    C29   A    
C25   H9    S    
O22   H12   S    
O5    C3    A    
O12   V3    S    
C21   C23   A    
C10   C12   A    
C12   H8    S    
C45   O18   A    
O20   V3    S    
C35   C37   S    
C36   C38   S    
C15   C19   A    
C38   C40   T    
O13   C45   A    
C40   C42   S    
H1    C23   S    
C7    C29   A    
C14   H6    S    
C2    C43   S    
C8    C30   A    
C17   C25   A    
C20   C28   A    
O5    V1    S    
O6    V2    S    
O16   V4    S    
C46   O17   A    
O15   V3    S    
O12   C48   A    
C37   C39   T    
C16   C20   A    
C7    C46   S    
O4    C2    A    
O18   V4    S    
O25   H15   S    
C33   C48   S    
C4    C31   S    
C34   C47   S    
C42   C44   T    
O4    V2    S    
C11   H7    S    
C6    C30   A    
H2    C24   S    
O21   H11   S    
O6    C4    A    
C39   C41   S    
C27   H3    S    
O1    V2    S    
C28   H4    S    
O2    V1    S    
C7    C27   A    
C26   H10   S    
C33   C35   T    
C17   C31   A    
C9    O25   S    
C30   O22   S    
C8    C45   S    
O3    V1    S    
C5    O23   S    
C6    O24   S    
C18   C32   A    
O17   V3    S    
C1    C44   S    
O3    C1    A    
O19   V4    S    
C11   C13   A    
C12   C14   A    
C10   C32   A    
C14   C16   A    
O7    V1    S    
C19   C27   A    
C1    O8    A    
C23   C25   A    
O8    V2    S    
C10   O26   S    
C24   C26   A    
C8    C28   A    
C22   C24   A    
C19   C21   A    
C34   C36   T    
C20   C22   A    
C18   C26   A    
O14   V4    S    
O13   V3    S    
C9    C11   A    
O11   V4    S    
C15   C17   A    
O16   C48   A    
O9    V2    S    
O15   C47   A    
O10   V1    S    
C3    C32   S    
O14   C46   A    
O1    C3    A    
C5    C21   A    
O24   H14   S    
C6    C22   A    
C13   H5    S    
