data_mof_unit_28096.cif
_audit_creation_date              2012-12-10T18:44:22-0500
_audit_creation_method            fapswitch 2.2
_symmetry_space_group_name_H-M    P1
_symmetry_Int_Tables_number       1
_space_group_crystal_system       triclinic
_cell_length_a                    12.937498
_cell_length_b                    10.862868
_cell_length_c                    9.880699
_cell_angle_alpha                 91.279804
_cell_angle_beta                  95.496343
_cell_angle_gamma                 93.339498
_cell_volume                      1379.34081953

loop_
_atom_site_label
_atom_site_type_symbol
_atom_type_description
_atom_site_fract_x
_atom_site_fract_y
_atom_site_fract_z
_atom_type_partial_charge
C1    C     C_R   0.497311 0.259203 0.498959 0.923897
C2    C     C_R   0.490504 0.738771 0.500285 0.908832
C3    C     C_R   0.472784 0.869564 0.501475 -0.239726
C4    C     C_R   0.485571 0.125107 0.499314 -0.231643
C5    C     C_R   0.582734 0.550791 0.084547 -0.358874
C6    C     C_R   0.417980 0.447929 0.915743 -0.344358
C7    C     C_R   0.584285 0.551323 0.939113 0.569168
C8    C     C_R   0.416736 0.447713 0.060228 0.541509
C9    C     C_R   0.298970 0.504835 0.475760 0.865235
C10   C     C_R   0.701718 0.503277 0.525167 0.895166
C11   C     C_R   0.813733 0.511457 0.540548 -0.092107
C12   C     C_R   0.189824 0.525294 0.466631 -0.107857
C13   C     C_R   0.036872 0.595882 0.340691 0.233673
C14   C     C_R   0.972459 0.486196 0.681192 0.203823
C15   C     C_R   0.143148 0.581787 0.353991 -0.239781
C16   C     C_R   0.865453 0.481518 0.664415 -0.240074
C17   C     C_R   0.134222 0.496497 0.576248 -0.279598
C18   C     C_R   0.868744 0.554030 0.434195 -0.286724
C19   C     C_R   0.028535 0.512896 0.568919 0.102659
C20   C     C_R   0.977118 0.554674 0.446037 0.073076
C21   C     C_R   0.451951 0.057228 0.377906 0.132877
C22   C     C_R   0.484482 0.936899 0.625355 0.130244
C23   C     C_R   0.446233 0.928564 0.378832 0.138155
C24   C     C_R   0.498835 0.064384 0.624801 0.130235
H1    H     H_    0.825681 0.584556 0.343350 0.156035
H2    H     H_    0.173420 0.457582 0.665588 0.159465
H3    H     H_    0.822847 0.454622 0.749365 0.179202
H4    H     H_    0.189261 0.613343 0.274494 0.160206
H5    H     H_    0.645707 0.591975 0.153072 0.187523
H6    H     H_    0.355923 0.402183 0.849170 0.159275
N1    N     N_R   0.499970 0.499970 0.857200 -0.119817
N2    N     N_R   0.500030 0.500030 0.142800 -0.129128
O1    O     O_R   0.499990 0.316750 0.614620 -0.595119
O2    O     O_R   0.500010 0.683250 0.385380 -0.621623
O3    O     O_R   0.499990 0.316780 0.385290 -0.570279
O4    O     O_R   0.500010 0.683220 0.614710 -0.566211
O5    O     O_R   0.346360 0.499970 0.595710 -0.639450
O6    O     O_R   0.653640 0.500030 0.404290 -0.636643
O7    O     O_R   0.346360 0.499990 0.366380 -0.584965
O8    O     O_R   0.653640 0.500010 0.633620 -0.572490
Zn1   Zn    Zn3+2 0.500000 0.499980 0.653120 0.990802
Zn2   Zn    Zn3+2 0.500000 0.500020 0.346880 0.980957
N3    N     N_2   0.993898 0.649460 0.219681 -0.326326
H7    H     H_    0.919605 0.620096 0.183043 0.213620
C25   C     C_3   0.019864 0.780105 0.208597 -0.833275
H8    H     H_    0.996957 0.808757 0.103375 0.244581
H9    H     H_    0.104959 0.801566 0.229799 0.245619
H10   H     H_    0.978231 0.833646 0.281151 0.247246
N4    N     N_2   0.021210 0.473735 0.814553 -0.320957
H11   H     H_    0.069628 0.402024 0.825283 0.209879
C26   C     C_3   0.063109 0.589284 0.879360 -0.827349
H12   H     H_    0.072544 0.579336 0.990758 0.259580
H13   H     H_    0.009331 0.664100 0.857529 0.251815
H14   H     H_    0.139902 0.616188 0.843799 0.237567
N5    N     N_2   0.419855 0.117921 0.256181 -0.248964
H15   H     H_    0.457476 0.092767 0.173522 0.233022
C27   C     C_3   0.308365 0.119348 0.226333 -0.667777
H16   H     H_    0.269986 0.025363 0.226656 0.216371
H17   H     H_    0.290683 0.155218 0.123207 0.253895
H18   H     H_    0.276123 0.178476 0.303045 0.241033
N6    N     N_2   0.468187 0.876792 0.748377 -0.278730
H19   H     H_    0.402050 0.897572 0.792275 0.213962
C28   C     C_3   0.558625 0.859030 0.840874 -0.694255
H20   H     H_    0.577354 0.939268 0.911692 0.202852
H21   H     H_    0.626621 0.840618 0.784415 0.273126
H22   H     H_    0.540140 0.779335 0.902960 0.256733
N7    N     N_2   0.398300 0.860327 0.261991 -0.289459
H23   H     H_    0.348359 0.785842 0.278624 0.225364
C29   C     C_3   0.458081 0.847855 0.146700 -0.781595
H24   H     H_    0.415720 0.887853 0.056843 0.228078
H25   H     H_    0.466464 0.748998 0.123625 0.247689
H26   H     H_    0.536912 0.895040 0.165867 0.232455
N8    N     N_2   0.537291 0.130101 0.747812 -0.266807
H27   H     H_    0.608431 0.105394 0.791096 0.218618
C30   C     C_3   0.462736 0.156763 0.843263 -0.713001
H28   H     H_    0.442315 0.075112 0.902084 0.204421
H29   H     H_    0.390870 0.190446 0.789601 0.239456
H30   H     H_    0.498482 0.228199 0.917830 0.235590
O9    O     O_3   0.664437 0.609418 0.874169 -0.594765
C31   C     C_3   0.757903 0.638656 0.958150 0.091209
H31   H     H_    0.822615 0.642250 0.892244 0.187576
H32   H     H_    0.776806 0.565178 0.031394 0.112347
C32   C     C_3   0.757308 0.766466 0.027011 -0.960944
H33   H     H_    0.817158 0.776795 0.114264 0.242510
H34   H     H_    0.773558 0.839444 0.953773 0.255407
H35   H     H_    0.682052 0.781581 0.067309 0.257524
O10   O     O_3   0.337740 0.383688 0.119789 -0.581572
C33   C     C_3   0.239182 0.421035 0.067639 0.097605
H36   H     H_    0.235549 0.522158 0.083535 0.139462
H37   H     H_    0.222325 0.397358 0.958090 0.118476
C34   C     C_3   0.153457 0.353654 0.138187 -0.837625
H38   H     H_    0.079758 0.400660 0.120292 0.227472
H39   H     H_    0.138862 0.257860 0.096635 0.226297
H40   H     H_    0.175171 0.350783 0.249143 0.269394

loop_
_geom_bond_atom_site_label_1
_geom_bond_atom_site_label_2
_ccdc_geom_bond_type
N5    H15   S    
C28   H21   S    
C11   C18   A    
N8    H27   S    
C3    C23   A    
C19   C20   A    
O2    Zn2   S    
O10   C33   S    
C27   H16   S    
C1    O1    A    
C25   H8    S    
C17   H2    S    
O6    Zn2   S    
C4    C24   A    
C24   N8    S    
C27   H17   S    
C14   N4    S    
C9    O7    A    
C10   O8    A    
C23   N7    S    
C29   H25   S    
O3    Zn2   S    
C30   H28   S    
N4    C26   S    
C12   C17   A    
C33   C34   S    
C18   C20   A    
C5    N2    A    
C2    O2    A    
C16   H3    S    
C6    N1    A    
C28   H22   S    
N8    C30   S    
O4    Zn1   S    
N6    H19   S    
C18   H1    S    
C31   C32   S    
C9    C12   S    
O7    Zn2   S    
C5    H5    S    
C25   H9    S    
C1    C4    S    
C7    N1    A    
C26   H12   S    
C8    N2    A    
C31   H32   S    
C34   H38   S    
C5    C7    A    
C27   H18   S    
C6    C8    A    
C28   H20   S    
N7    H23   S    
N7    C29   S    
C29   H26   S    
N3    H7    S    
C34   H39   S    
C30   H29   S    
C11   C16   A    
C32   H33   S    
C12   C15   A    
C9    O5    A    
N5    C27   S    
N3    C25   S    
O8    Zn1   S    
C32   H34   S    
C33   H37   S    
C13   C15   A    
C14   C16   A    
C13   N3    S    
C1    O3    A    
C7    O9    S    
C25   H10   S    
C2    O4    A    
C21   N5    S    
N1    Zn1   S    
C13   C20   A    
C6    H6    S    
C14   C19   A    
N6    C28   S    
C31   H31   S    
C10   O6    A    
C26   H14   S    
O1    Zn1   S    
C8    O10   S    
C21   C23   A    
C2    C3    S    
C22   N6    S    
C4    C21   A    
C15   H4    S    
C17   C19   A    
C22   C24   A    
O5    Zn1   S    
C29   H24   S    
C30   H30   S    
C10   C11   S    
O9    C31   S    
C32   H35   S    
C33   H36   S    
N4    H11   S    
N2    Zn2   S    
C3    C22   A    
C26   H13   S    
C34   H40   S    
