data_mof_unit_8199.cif
_audit_creation_date              2012-12-11T17:06:27-0500
_audit_creation_method            fapswitch 2.2
_symmetry_space_group_name_H-M    P1
_symmetry_Int_Tables_number       1
_space_group_crystal_system       triclinic
_cell_length_a                    6.966813
_cell_length_b                    14.517033
_cell_length_c                    15.969131
_cell_angle_alpha                 90.526769
_cell_angle_beta                  89.881689
_cell_angle_gamma                 89.948843
_cell_volume                      1615.00488269

loop_
_atom_site_label
_atom_site_type_symbol
_atom_type_description
_atom_site_fract_x
_atom_site_fract_y
_atom_site_fract_z
_atom_type_partial_charge
O1    O     O_R   0.494400 0.415450 0.412630 -0.537797
O2    O     O_R   0.823940 0.405730 0.586760 -0.544640
O3    O     O_R   0.994240 0.584550 0.587370 -0.538509
C1    C     C_R   0.655125 0.383595 0.615282 0.691145
O4    O     O_R   0.824110 0.404430 0.413240 -0.546891
O5    O     O_R   0.994420 0.583240 0.412620 -0.531462
C2    C     C_R   0.655512 0.382358 0.384172 0.702175
O6    O     O_R   0.494230 0.416760 0.587380 -0.538739
O7    O     O_3   0.660800 0.558670 0.500000 -0.363422
V1    V     V_3+5 0.935650 0.489120 0.500000 1.394079
O8    O     O_R   0.324140 0.594270 0.413240 -0.534250
C3    C     C_R   0.155646 0.613386 0.382227 0.695797
O9    O     O_R   0.323960 0.595570 0.586760 -0.540876
C4    C     C_R   0.154799 0.617605 0.615620 0.681277
V2    V     V_3+5 0.435660 0.510880 0.500000 1.409299
O10   O     O_3   0.160640 0.441330 0.500000 -0.376688
C5    C     C_3   0.955216 0.720916 0.727214 -0.113145
C6    C     C_3   0.047725 0.709263 0.814629 -0.132596
H1    H     H_    0.977226 0.677816 0.869813 0.117130
H2    H     H_    0.808151 0.698531 0.709762 0.112713
C7    C     C_3   0.122863 0.808748 0.810310 -0.006754
C8    C     C_3   0.030454 0.821198 0.723686 -0.149555
C9    C     C_3   0.218347 0.786616 0.681699 -0.148478
C10   C     C_3   0.310853 0.774953 0.769111 -0.105884
C11   C     C_3   0.235613 0.674663 0.772627 -0.137887
C12   C     C_3   0.143200 0.687136 0.685993 -0.012277
H3    H     H_    0.945521 0.881979 0.703991 0.097417
H4    H     H_    0.288863 0.818090 0.626536 0.101176
H5    H     H_    0.457906 0.797330 0.786590 0.114539
H6    H     H_    0.320509 0.613866 0.792319 0.107185
C13   C     C_R   0.275758 0.810176 0.235700 0.044475
C14   C     C_R   0.119764 0.812316 0.180618 -0.182638
C15   C     C_R   0.978994 0.744197 0.189682 -0.176537
H7    H     H_    0.868660 0.738542 0.143041 0.159485
C16   C     C_R   0.992052 0.675919 0.251572 0.340934
C17   C     C_R   0.144143 0.678737 0.311149 -0.194121
C18   C     C_R   0.285059 0.746800 0.301301 0.021750
C19   C     C_3   0.494017 0.730196 0.286516 -0.374849
C20   C     C_3   0.482551 0.796358 0.213752 -0.211137
H8    H     H_    0.523143 0.657270 0.268820 0.214201
H9    H     H_    0.583051 0.756726 0.339120 0.165525
H10   H     H_    0.570580 0.859624 0.221794 0.116521
C21   C     C_R   0.493089 0.315776 0.741381 0.101267
C22   C     C_R   0.647499 0.317250 0.685093 -0.110545
C23   C     C_R   0.799244 0.255116 0.699135 -0.180163
H11   H     H_    0.921754 0.253815 0.657565 0.132194
C24   C     C_R   0.788136 0.189443 0.763306 -0.180974
H12   H     H_    0.903065 0.139895 0.769553 0.125207
C25   C     C_R   0.624582 0.183721 0.815071 -0.109813
C26   C     C_R   0.481682 0.250523 0.804653 0.107734
C27   C     C_3   0.271196 0.238423 0.792479 -0.408504
C28   C     C_3   0.283542 0.309948 0.723844 -0.401229
H13   H     H_    0.186983 0.262068 0.847845 0.178422
H14   H     H_    0.235319 0.168359 0.768684 0.163772
H15   H     H_    0.207282 0.375139 0.739692 0.168944
H16   H     H_    0.253996 0.281606 0.660270 0.169285
C29   C     C_R   0.493714 0.316058 0.256505 0.120867
C30   C     C_R   0.647808 0.316547 0.312790 -0.113403
C31   C     C_R   0.799202 0.254454 0.296837 -0.184068
H17   H     H_    0.921626 0.252511 0.338190 0.132061
C32   C     C_R   0.787773 0.189623 0.230868 -0.176678
H18   H     H_    0.902443 0.139997 0.223201 0.126397
C33   C     C_R   0.624313 0.184741 0.179063 -0.111457
C34   C     C_R   0.481978 0.251659 0.191444 0.108079
C35   C     C_3   0.271270 0.240014 0.203303 -0.411161
C36   C     C_3   0.283910 0.310642 0.273877 -0.403400
H19   H     H_    0.234322 0.169773 0.225199 0.164209
H20   H     H_    0.187857 0.264599 0.148605 0.180643
H21   H     H_    0.253393 0.281611 0.336674 0.167339
H22   H     H_    0.208626 0.376247 0.259808 0.169180
O11   O     O_R   0.771650 0.079500 0.908680 -0.541186
O12   O     O_R   0.441690 0.091800 0.082800 -0.541475
O13   O     O_R   0.271460 0.912980 0.083410 -0.535087
C37   C     C_R   0.610564 0.113942 0.111876 0.690236
O14   O     O_R   0.441930 0.090510 0.909280 -0.541288
O15   O     O_R   0.271690 0.911670 0.908660 -0.537064
C38   C     C_R   0.611021 0.112580 0.880692 0.692271
O16   O     O_R   0.771410 0.080810 0.083440 -0.541111
O17   O     O_3   0.605100 0.937580 0.996050 -0.362576
V3    V     V_3+5 0.330220 0.007110 0.996030 1.412461
O18   O     O_R   0.941980 0.900620 0.909250 -0.540577
C39   C     C_R   0.111185 0.878441 0.880535 0.683295
O19   O     O_R   0.941740 0.901920 0.082770 -0.545065
C40   C     C_R   0.110623 0.879645 0.111300 0.715983
V4    V     V_3+5 0.830220 0.985300 0.996000 1.411342
O20   O     O_3   0.105210 0.054870 0.996020 -0.372665
C41   C     C_1   0.506335 0.750053 0.131627 0.384294
N1    N     N_1   0.523827 0.713831 0.067177 -0.372130
O21   O     O_3   0.862955 0.604118 0.246789 -0.654441
H23   H     H_    0.924349 0.547848 0.268857 0.282881

loop_
_geom_bond_atom_site_label_1
_geom_bond_atom_site_label_2
_ccdc_geom_bond_type
C41   N1    T    
C6    C7    S    
C16   C17   A    
C20   C41   S    
C29   C36   S    
C1    O6    A    
O18   C39   A    
C24   C25   A    
V4    O20   S    
O19   C40   A    
C5    C12   S    
C17   C18   A    
O5    C3    A    
C19   C20   S    
C21   C28   S    
C36   H21   S    
V2    O10   S    
C5    H2    S    
C6    H1    S    
C9    C12   S    
C32   C33   A    
C10   H5    S    
V3    O20   S    
O11   V4    S    
O8    V2    S    
C13   C14   A    
C13   C20   S    
C35   H19   S    
C9    C10   S    
O1    V2    S    
C3    C17   S    
O14   V3    S    
O13   C40   A    
C28   H15   S    
C31   H17   S    
O9    C4    A    
C6    C11   S    
C15   H7    S    
C20   H10   S    
C23   C24   A    
C14   C40   S    
C31   C32   A    
C27   C28   S    
C10   C11   S    
C19   H9    S    
O12   C37   A    
O15   C39   A    
O4    C2    A    
C1    C22   S    
C26   C27   S    
C30   C31   A    
C23   H11   S    
C13   C18   A    
C27   H13   S    
O2    C1    A    
C21   C22   A    
C18   C19   S    
C24   H12   S    
C35   H20   S    
C5    C6    S    
C9    H4    S    
C4    C12   S    
O14   C38   A    
O3    C4    A    
C16   O21   S    
O16   V4    S    
O19   V4    S    
C35   C36   S    
O6    V2    S    
C8    H3    S    
O9    V2    S    
O17   V3    S    
O2    V1    S    
O17   V4    S    
C22   C23   A    
C29   C34   A    
O7    V1    S    
C11   H6    S    
C2    C30   S    
O1    C2    A    
O15   V3    S    
O5    V1    S    
O8    C3    A    
C21   C26   A    
C33   C37   S    
C5    C8    S    
C27   H14   S    
C14   C15   A    
C11   C12   S    
O4    V1    S    
O12   V3    S    
O3    V1    S    
V1    O10   S    
C34   C35   S    
C19   H8    S    
C29   C30   A    
C36   H22   S    
O11   C38   A    
C15   C16   A    
O13   V3    S    
C25   C38   S    
O7    V2    S    
C32   H18   S    
C33   C34   A    
C7    C39   S    
C25   C26   A    
C37   O16   A    
C7    C10   S    
C8    C9    S    
O21   H23   S    
C7    C8    S    
O18   V4    S    
C28   H16   S    
