data_mof_unit_42786.cif
_audit_creation_date              2012-12-11T20:55:28-0500
_audit_creation_method            fapswitch 2.2
_symmetry_space_group_name_H-M    P1
_symmetry_Int_Tables_number       1
_space_group_crystal_system       triclinic
_cell_length_a                    8.327878
_cell_length_b                    19.110779
_cell_length_c                    22.77076
_cell_angle_alpha                 99.874416
_cell_angle_beta                  89.786477
_cell_angle_gamma                 91.843466
_cell_volume                      3568.47742782

loop_
_atom_site_label
_atom_site_type_symbol
_atom_type_description
_atom_site_fract_x
_atom_site_fract_y
_atom_site_fract_z
_atom_type_partial_charge
Ba1   Ba    Ba6+2 0.157290 0.533910 0.474710 1.675160
Ba2   Ba    Ba6+2 0.652900 0.466090 0.525240 1.726588
C1    C     C_3   0.356117 0.685666 0.253538 -0.321449
C2    C     C_3   0.388510 0.672548 0.316285 0.332229
C3    C     C_3   0.486731 0.684807 0.617504 0.316717
C4    C     C_3   0.478759 0.765902 0.631569 -0.203285
C5    C     C_3   0.859710 0.285343 0.650349 0.322782
C6    C     C_3   0.845441 0.213742 0.671015 0.457130
C7    C     C_3   0.367118 0.271731 0.678391 0.348325
C8    C     C_3   0.426990 0.340530 0.717305 -0.329028
C9    C     C_R   0.950586 0.197865 0.470123 -0.251478
C10   C     C_R   0.986975 0.271919 0.478834 0.005410
C11   C     C_R   0.129542 0.188779 0.551057 -0.196060
C12   C     C_3   0.889802 0.719352 0.339151 0.382705
C13   C     C_R   0.199589 0.254582 0.544256 -0.061293
C14   C     C_R   0.675240 0.812247 0.450518 -0.159661
C15   C     C_R   0.608386 0.744748 0.453872 0.006472
C16   C     C_R   0.846010 0.801493 0.533445 -0.158912
C17   C     C_R   0.818167 0.727081 0.521204 0.053414
C18   C     C_R   0.012640 0.154357 0.509857 0.054723
C19   C     C_R   0.118100 0.298512 0.513535 0.363424
C20   C     C_R   0.787657 0.845947 0.494088 0.009862
C21   C     C_R   0.690917 0.700094 0.484190 -0.245174
C22   C     C_R   0.220704 0.037742 0.541206 -0.078168
C23   C     C_3   0.860510 0.778671 0.303118 -0.195262
C24   C     C_R   0.313735 0.988739 0.562743 -0.071746
C25   C     C_R   0.266388 0.918100 0.551623 -0.068028
C26   C     C_R   0.121439 0.898303 0.523083 -0.086643
C27   C     C_R   0.005684 0.948327 0.515457 0.015354
C28   C     C_R   0.059521 0.021748 0.522178 0.034517
C29   C     C_R   0.844316 0.925200 0.498289 -0.016842
C30   C     C_R   0.739913 0.979107 0.485667 0.024131
C31   C     C_R   0.793458 0.052490 0.493056 0.046134
C32   C     C_R   0.955368 0.075495 0.508734 0.053165
C33   C     C_R   0.578537 0.963230 0.466923 -0.081819
C34   C     C_3   0.811434 0.373685 0.342106 0.283185
C35   C     C_R   0.485400 0.012793 0.446101 -0.088315
C36   C     C_R   0.532438 0.083565 0.458373 -0.094909
C37   C     C_R   0.677276 0.102805 0.487449 -0.012789
C38   C     C_R   0.644935 0.523909 0.336016 -0.297190
C39   C     C_R   0.382038 0.565298 0.947861 -0.023756
C40   C     C_R   0.329209 0.562983 0.888767 0.585656
C41   C     C_R   0.238880 0.441259 0.882993 0.579051
C42   C     C_R   0.290435 0.441850 0.942121 -0.020133
C43   C     C_R   0.362897 0.504254 0.974567 -0.052721
C44   C     C_R   0.454586 0.627198 0.980726 -0.080515
C45   C     C_3   0.757495 0.347495 0.277994 -0.383220
C46   C     C_R   0.507616 0.628482 0.038963 -0.078938
C47   C     C_R   0.489436 0.567955 0.066241 -0.015828
C48   C     C_R   0.416751 0.505633 0.033950 -0.053867
C49   C     C_R   0.273137 0.381241 0.969330 -0.081291
C50   C     C_R   0.326992 0.382508 0.027576 -0.078627
C51   C     C_R   0.399016 0.444545 0.060595 -0.020945
C52   C     C_R   0.453715 0.446798 0.119590 0.588007
C53   C     C_R   0.541133 0.568804 0.125279 0.569137
C54   C     C_2   0.067525 0.481020 0.773686 -0.068870
C55   C     C_3   0.027077 0.485224 0.709278 -0.050968
C56   C     C_3   0.000539 0.632966 0.660124 0.300160
C57   C     C_1   0.305993 0.514602 0.694863 -0.001453
C58   C     C_2   0.344615 0.516946 0.751465 -0.103198
C59   C     C_2   0.219004 0.498795 0.794396 0.210518
C60   C     C_R   0.714542 0.541168 0.235965 -0.096597
C61   C     C_R   0.753098 0.547853 0.296412 -0.022938
C62   C     C_R   0.500814 0.489584 0.315365 0.016422
C63   C     C_R   0.457117 0.486554 0.255246 -0.135562
C64   C     C_R   0.563654 0.512375 0.214660 0.206394
C65   C     C_2   0.176553 0.479529 0.671572 -0.277011
C66   C     C_3   0.038967 0.663908 0.724922 -0.374176
C67   C     C_3   0.259559 0.307682 0.349831 0.379141
C68   C     C_3   0.300573 0.248974 0.384538 -0.361197
H1    H     H_    0.315476 0.625337 0.323584 0.101588
H2    H     H_    0.650360 0.311278 0.277116 0.150416
H3    H     H_    0.727507 0.392819 0.256107 0.076671
H4    H     H_    0.854008 0.317940 0.252014 0.118249
H5    H     H_    0.113205 0.615485 0.637085 0.027224
H6    H     H_    0.913902 0.587331 0.658033 0.034112
H7    H     H_    0.118115 0.712211 0.727134 0.139145
H8    H     H_    0.101914 0.625295 0.746842 0.085203
H9    H     H_    0.926266 0.678387 0.749634 0.110010
H10   H     H_    0.164688 0.339585 0.374438 0.064620
H11   H     H_    0.232491 0.703357 0.249170 0.139704
H12   H     H_    0.397679 0.215980 0.361894 0.114358
H13   H     H_    0.193897 0.213905 0.388538 0.031078
H14   H     H_    0.345002 0.273241 0.429318 0.144153
H15   H     H_    0.517585 0.661204 0.319388 -0.052358
H16   H     H_    0.367104 0.635289 0.221914 0.109824
H17   H     H_    0.612577 0.669286 0.608284 0.006721
H18   H     H_    0.413295 0.666923 0.576715 0.049908
H19   H     H_    0.495491 0.786394 0.589094 0.035648
H20   H     H_    0.357557 0.781310 0.648869 0.114964
H21   H     H_    0.442920 0.726344 0.241729 0.123587
H22   H     H_    0.831825 0.753713 0.256397 0.121308
H23   H     H_    0.751606 0.291982 0.623952 0.115072
H24   H     H_    0.966311 0.286300 0.621697 -0.075557
H25   H     H_    0.964472 0.198417 0.685284 -0.006803
H26   H     H_    0.760707 0.216677 0.708995 0.035200
H27   H     H_    0.243024 0.279769 0.663376 -0.035677
H28   H     H_    0.339027 0.358872 0.752744 0.115623
H29   H     H_    0.440074 0.382023 0.689112 0.123903
H30   H     H_    0.944400 0.741044 0.383155 0.050417
H31   H     H_    0.544779 0.333261 0.737785 0.136931
H32   H     H_    0.869167 0.175992 0.434323 0.077525
H33   H     H_    0.168252 0.165737 0.588432 0.084039
H34   H     H_    0.634518 0.837794 0.414846 0.064326
H35   H     H_    0.920545 0.823160 0.571412 0.064704
H36   H     H_    0.650393 0.645293 0.481593 0.063628
H37   H     H_    0.285551 0.085280 0.535963 0.077768
H38   H     H_    0.432627 0.004097 0.580486 0.099967
H39   H     H_    0.347685 0.878282 0.560630 0.081233
H40   H     H_    0.770177 0.695644 0.347249 -0.100560
H41   H     H_    0.102769 0.843283 0.506100 0.128954
H42   H     H_    0.514752 0.915061 0.471567 0.082567
H43   H     H_    0.366679 0.997650 0.428102 0.076456
H44   H     H_    0.450826 0.123551 0.449712 0.091897
H45   H     H_    0.697950 0.157360 0.506267 0.163971
H46   H     H_    0.311439 0.334650 0.046774 0.117966
H47   H     H_    0.218396 0.332399 0.945539 0.116826
H48   H     H_    0.562789 0.677285 0.062645 0.119480
H49   H     H_    0.801939 0.558464 0.205739 0.114037
H50   H     H_    0.471091 0.674951 0.961440 0.120210
H51   H     H_    0.753017 0.808330 0.320516 0.066711
H52   H     H_    0.467426 0.529498 0.766405 0.107949
H53   H     H_    0.972664 0.469853 0.803905 0.103223
H54   H     H_    0.341107 0.463918 0.239978 0.112314
H55   H     H_    0.678055 0.527805 0.382388 0.072363
H56   H     H_    0.184325 0.440325 0.631136 0.111942
H57   H     H_    0.707346 0.396452 0.368091 0.041181
H58   H     H_    0.907781 0.415297 0.342744 0.038603
N1    N     N_R   0.260527 0.501163 0.856694 -0.426052
N2    N     N_R   0.519227 0.509191 0.152246 -0.422669
O1    O     O_2   0.108070 0.674980 0.540650 -0.467572
O2    O     O_3   0.401925 0.347434 0.345063 -0.636931
O3    O     O_3   0.992281 0.669452 0.307092 -0.603449
O4    O     O_2   0.702240 0.324970 0.459330 -0.448635
O5    O     O_3   0.948380 0.413820 0.464520 -0.415647
O6    O     O_3   0.443920 0.371740 0.566130 -0.390546
O7    O     O_3   0.870280 0.316150 0.365012 -0.655370
O8    O     O_3   0.358830 0.538360 0.571050 -0.445174
O9    O     O_3   0.852160 0.408490 0.597560 -0.470824
O10   O     O_2   0.700240 0.448341 0.700276 -0.497336
O11   O     O_3   0.876277 0.339754 0.699915 -0.652629
O12   O     O_3   0.861930 0.586170 0.535430 -0.481778
O13   O     O_3   0.451480 0.461630 0.428900 -0.437891
O14   O     O_2   0.599240 0.538720 0.642170 -0.464496
O15   O     O_3   0.425286 0.654962 0.665540 -0.650155
O16   O     O_2   0.516404 0.245575 0.516161 -0.504814
O17   O     O_3   0.476404 0.254189 0.630931 -0.592964
O18   O     O_2   0.343491 0.616224 0.865875 -0.600632
O19   O     O_2   0.176583 0.387169 0.854690 -0.613093
O20   O     O_2   0.445210 0.392788 0.141539 -0.618560
O21   O     O_2   0.604205 0.623151 0.152882 -0.621913
O22   O     O_3   0.366390 0.628250 0.433820 -0.480954
O23   O     O_2   0.281136 0.756514 0.472307 -0.502123
O24   O     O_3   0.930451 0.685858 0.634730 -0.648887
O25   O     O_3   0.347274 0.732216 0.358025 -0.596329
O26   O     O_2   0.211060 0.461230 0.357810 -0.485233
O27   O     O_3   0.958150 0.591500 0.402390 -0.475008
O28   O     O_2   0.083960 0.538708 0.296114 -0.506956
P1    P     P_3+3 0.933470 0.664380 0.557030 0.978395
P2    P     P_3+3 0.383600 0.440030 0.365120 1.014586
P3    P     P_3+3 0.947534 0.585561 0.325055 0.951577
P4    P     P_3+3 0.876840 0.335610 0.442930 1.033657
P5    P     P_3+3 0.864708 0.421791 0.675879 0.954564
P6    P     P_3+3 0.402808 0.716915 0.428653 0.934278
P7    P     P_3+3 0.419779 0.562321 0.645365 0.958010
P8    P     P_3+3 0.406692 0.281388 0.566197 0.999678
C69   C     C_3   0.199230 0.272744 0.287292 -0.234985
C70   C     C_3   0.191216 0.324809 0.243720 -0.365713
H59   H     H_    0.122118 0.371968 0.262754 0.126895
H60   H     H_    0.314724 0.341534 0.232713 0.174407
H61   H     H_    0.132004 0.298270 0.201809 0.121207
H62   H     H_    0.280442 0.229790 0.267697 0.108802
H63   H     H_    0.078157 0.247849 0.291161 0.108016
C71   C     C_3   0.609200 0.801809 0.675128 -0.219023
C72   C     C_3   0.593678 0.782622 0.737374 -0.314325
H64   H     H_    0.468983 0.790151 0.754219 0.138828
H65   H     H_    0.627424 0.726799 0.736806 0.159128
H66   H     H_    0.676613 0.817531 0.768371 0.102366
H67   H     H_    0.730075 0.788063 0.656976 0.131158
H68   H     H_    0.599474 0.860305 0.679086 0.111062
F1    F     F_    0.789109 0.162165 0.625003 -0.730026
C73   C     C_3   0.357823 0.209585 0.713498 -0.183917
C74   C     C_3   0.254115 0.224070 0.769657 -0.453826
H69   H     H_    0.320692 0.259645 0.805754 0.170301
H70   H     H_    0.140486 0.249146 0.760739 0.160945
H71   H     H_    0.224921 0.173325 0.785449 0.132760
H72   H     H_    0.306577 0.161945 0.683751 0.108614
H73   H     H_    0.480338 0.196553 0.726423 0.130979
F2    F     F_    0.174734 0.365876 0.513886 -0.705183
C75   C     C_3   0.004501 0.830999 0.302693 -0.203132
C76   C     C_3   0.023061 0.883280 0.361106 -0.404088
H74   H     H_    0.910711 0.912560 0.371734 0.128663
H75   H     H_    0.053323 0.854911 0.397921 0.145667
H76   H     H_    0.122233 0.922364 0.356964 0.122220
H77   H     H_    0.117318 0.802178 0.293378 0.160903
H78   H     H_    0.986461 0.861955 0.266272 0.110593

loop_
_geom_bond_atom_site_label_1
_geom_bond_atom_site_label_2
_ccdc_geom_bond_type
C6    F1    S    
C47   C48   A    
C75   C76   S    
O27   P3    S    
Ba2   O14   S    
C39   C40   A    
C6    H26   S    
O12   P1    S    
C41   C42   A    
C40   O18   D    
Ba2   P4    S    
C67   C69   S    
C40   N1    Am   
C56   H6    S    
O13   P2    S    
C52   O20   D    
O15   P7    S    
C51   C52   A    
C42   C43   A    
O10   P5    D    
C24   C25   A    
C31   C37   A    
C38   C61   A    
C34   C45   S    
O8    P7    S    
Ba2   O9    S    
C15   P6    S    
C26   C27   A    
C33   C35   A    
C35   C36   A    
C22   C24   A    
Ba1   Ba2   S    
C23   C75   S    
C74   H70   S    
C3    C4    S    
C36   H44   S    
C41   N1    Am   
C35   H43   S    
C76   H74   S    
C54   C55   S    
Ba1   O22   S    
C1    H21   S    
C16   C17   A    
C63   H54   S    
C8    H28   S    
C73   C74   S    
C7    C73   S    
C56   O24   S    
O28   P3    D    
C57   C65   D    
C71   C72   S    
C3    H18   S    
C14   H34   S    
C70   H61   S    
C72   H64   S    
C14   C15   A    
C1    H11   S    
C7    H27   S    
C39   C44   A    
C13   P8    S    
Ba1   O12   S    
C11   H33   S    
C68   H14   S    
C7    C8    S    
C57   P7    S    
C59   N1    S    
C69   H63   S    
C18   C32   S    
C66   H9    S    
C70   H60   S    
O16   P8    D    
C57   C58   D    
C1    H16   S    
Ba2   O13   S    
C34   H58   S    
C6    H25   S    
C15   C21   A    
C55   C65   S    
C52   N2    Am   
C56   H5    S    
C72   H66   S    
C22   C28   A    
C50   H46   S    
C26   H41   S    
C66   H8    S    
C36   C37   A    
C5    H23   S    
C44   C46   A    
C9    C18   A    
C8    H31   S    
C48   C51   A    
C3    O15   S    
C20   C29   S    
C60   C64   A    
O23   P6    D    
C49   C50   A    
Ba2   O8    S    
C54   H53   S    
C70   H59   S    
Ba1   P1    S    
C45   H3    S    
C72   H65   S    
C65   H56   S    
C24   H38   S    
C69   C70   S    
C28   C32   A    
C46   H48   S    
C2    H15   S    
C4    C71   S    
C47   C53   A    
C21   H36   S    
C10   C19   A    
C7    O17   S    
Ba2   O6    S    
O4    P4    D    
O3    P3    S    
C58   C59   S    
Ba1   O26   S    
C17   C21   A    
C74   H69   S    
C76   H75   S    
C27   C28   A    
Ba1   O13   S    
O17   P8    S    
C19   F2    S    
C29   C30   A    
C55   P5    S    
O26   P2    D    
C53   N2    Am   
C62   P2    S    
C60   C61   A    
C31   C32   A    
C44   H50   S    
C12   H30   S    
C22   H37   S    
C73   H73   S    
C58   H52   S    
C68   H13   S    
C60   H49   S    
O22   P6    S    
C75   H77   S    
C42   C49   A    
C56   C66   S    
C46   C47   A    
O11   P5    S    
C37   H45   S    
C11   C13   A    
Ba2   O12   S    
O5    P4    S    
C74   H71   S    
C34   H57   S    
C1    C2    S    
C71   H68   S    
C5    O11   S    
C50   C51   A    
C34   O7    S    
C66   H7    S    
C12   H40   S    
C5    H24   S    
O1    P1    D    
C23   H22   S    
C14   C20   A    
C11   C18   A    
C16   C20   A    
Ba1   P2    S    
C30   C33   A    
C45   H4    S    
Ba1   O1    S    
C41   O19   D    
C9    C10   A    
Ba2   O4    S    
C53   O21   D    
C69   H62   S    
C12   O3    S    
C75   H78   S    
O25   P6    S    
C4    H19   S    
Ba2   O5    S    
C38   C62   A    
O14   P7    D    
C17   P1    S    
C62   C63   A    
Ba1   O27   S    
C76   H76   S    
O24   P1    S    
C27   C29   A    
C61   P3    S    
C30   C31   A    
O7    P4    S    
O6    P8    S    
C43   C48   A    
C67   O2    S    
C38   H55   S    
O9    P5    S    
C49   H47   S    
C9    H32   S    
C73   H72   S    
C12   C23   S    
C8    H29   S    
C68   H12   S    
C67   C68   S    
C45   H2    S    
C16   H35   S    
C5    C6    S    
C33   H42   S    
C10   P4    S    
C3    H17   S    
C13   C19   A    
C2    O25   S    
C4    H20   S    
C25   H39   S    
C63   C64   A    
C25   C26   A    
C39   C43   A    
C54   C59   D    
C67   H10   S    
Ba1   O5    S    
C23   H51   S    
C71   H67   S    
O2    P2    S    
C2    H1    S    
Ba1   O8    S    
C64   N2    S    
