data_mof_unit_18011.cif
_audit_creation_date              2012-12-11T14:34:03-0500
_audit_creation_method            fapswitch 2.2
_symmetry_space_group_name_H-M    P1
_symmetry_Int_Tables_number       1
_space_group_crystal_system       triclinic
_cell_length_a                    13.842369
_cell_length_b                    13.972088
_cell_length_c                    27.342781
_cell_angle_alpha                 89.977447
_cell_angle_beta                  90.055764
_cell_angle_gamma                 119.623723
_cell_volume                      4597.04827761

loop_
_atom_site_label
_atom_site_type_symbol
_atom_type_description
_atom_site_fract_x
_atom_site_fract_y
_atom_site_fract_z
_atom_type_partial_charge
C1    C     C_R   0.234010 0.787163 0.568771 0.540897
C2    C     C_R   0.212496 0.446446 0.568758 0.543763
C3    C     C_R   0.552756 0.765253 0.569017 0.540961
C4    C     C_3   0.655087 0.733419 0.791528 -0.220888
C5    C     C_3   0.245763 0.951412 0.784763 -0.218773
C6    C     C_3   0.055371 0.311522 0.786759 -0.218711
C7    C     C_3   0.631787 0.717659 0.735583 -0.085311
C8    C     C_3   0.267570 0.933818 0.730664 -0.086285
C9    C     C_3   0.071776 0.347826 0.732143 -0.086501
C10   C     C_1   0.706031 0.862924 0.860469 -0.058589
C11   C     C_1   0.113274 0.879948 0.852867 -0.057070
C12   C     C_1   0.115337 0.231185 0.852423 -0.060074
C13   C     C_1   0.628189 0.813721 0.659009 -0.054285
C14   C     C_1   0.178917 0.819487 0.656491 -0.054833
C15   C     C_1   0.177439 0.358399 0.656257 -0.054364
C16   C     C_1   0.600806 0.795888 0.616726 0.003500
C17   C     C_1   0.199931 0.806132 0.615281 0.004151
C18   C     C_1   0.192551 0.393161 0.615133 0.004232
C19   C     C_R   0.065416 0.151014 0.096086 0.571209
C20   C     C_R   0.776393 0.883586 0.087787 0.549893
C21   C     C_R   0.116660 0.893469 0.087975 0.562869
C22   C     C_R   0.069363 0.160351 0.943257 0.534980
C23   C     C_R   0.779566 0.887120 0.950828 0.545361
C24   C     C_R   0.090657 0.929690 0.943398 0.531956
C25   C     C_R   0.611185 0.891293 0.359580 -0.130286
C26   C     C_R   0.099307 0.729133 0.362046 -0.130405
C27   C     C_R   0.270995 0.369532 0.362040 -0.131138
C28   C     C_R   0.631776 0.904176 0.309373 -0.001977
C29   C     C_R   0.083444 0.739144 0.312203 -0.001968
C30   C     C_R   0.250123 0.320929 0.315661 -0.001927
C31   C     C_R   0.666504 0.923467 0.207511 0.000249
C32   C     C_R   0.063031 0.753924 0.210301 0.002623
C33   C     C_R   0.211397 0.242207 0.218574 0.001202
C34   C     C_R   0.232643 0.788067 0.431674 0.546972
C35   C     C_R   0.212009 0.444771 0.431398 0.548956
C36   C     C_R   0.554400 0.766502 0.431386 0.547209
C37   C     C_R   0.640846 0.996587 0.232583 -0.023120
C38   C     C_R   0.981604 0.662043 0.236516 -0.010140
C39   C     C_R   0.318254 0.284872 0.239756 -0.010692
C40   C     C_R   0.623831 0.986446 0.283267 -0.138733
C41   C     C_R   0.992840 0.655120 0.287131 -0.132031
C42   C     C_R   0.336507 0.323417 0.288029 -0.131418
C43   C     C_R   0.695650 0.936639 0.157630 -0.146988
C44   C     C_R   0.053296 0.767494 0.159891 -0.130024
C45   C     C_R   0.190833 0.209574 0.169234 -0.123685
C46   C     C_R   0.718957 0.860844 0.134607 -0.009181
C47   C     C_R   0.136501 0.859854 0.135591 -0.009437
C48   C     C_R   0.086042 0.175847 0.148349 -0.011778
C49   C     C_R   0.643063 0.735039 0.360342 -0.129140
C50   C     C_R   0.266198 0.908893 0.361168 -0.126623
C51   C     C_R   0.077396 0.321926 0.369189 -0.128545
C52   C     C_R   0.660232 0.744554 0.310292 0.014245
C53   C     C_R   0.254859 0.917465 0.311362 0.014188
C54   C     C_R   0.055411 0.273593 0.322991 0.014966
C55   C     C_R   0.653830 0.828926 0.284485 0.061199
C56   C     C_R   0.163986 0.831632 0.286450 0.060127
C57   C     C_R   0.142593 0.275227 0.295524 0.059571
C58   C     C_R   0.676761 0.666515 0.285364 -0.129050
C59   C     C_R   0.337565 0.007145 0.285721 -0.128928
C60   C     C_R   0.949098 0.229964 0.302662 -0.125540
C61   C     C_R   0.686508 0.671541 0.234889 -0.123843
C62   C     C_R   0.331815 0.010786 0.235231 -0.123111
C63   C     C_R   0.930278 0.192751 0.254571 -0.116045
C64   C     C_R   0.683932 0.756899 0.209210 0.010328
C65   C     C_R   0.241402 0.926954 0.210213 0.010231
C66   C     C_R   0.016588 0.196778 0.226454 0.018840
C67   C     C_3   0.566687 0.857206 0.736505 -0.226919
C68   C     C_3   0.135414 0.729976 0.737714 -0.227978
C69   C     C_3   0.271521 0.391369 0.736197 -0.226415
C70   C     C_R   0.667802 0.836503 0.233712 0.052715
C71   C     C_R   0.155832 0.837346 0.235646 0.050690
C72   C     C_R   0.123241 0.236348 0.247071 0.050184
C73   C     C_R   0.703202 0.766596 0.159579 -0.117270
C74   C     C_R   0.233407 0.934453 0.160231 -0.125033
C75   C     C_R   0.998804 0.166458 0.177394 -0.126547
C76   C     C_R   0.611426 0.803328 0.384554 -0.000842
C77   C     C_R   0.194120 0.811398 0.385818 -0.001034
C78   C     C_R   0.185866 0.374348 0.387967 -0.001701
C79   C     C_3   0.769089 0.921246 0.723195 -0.222487
C80   C     C_3   0.061222 0.855293 0.714003 -0.220461
C81   C     C_3   0.123277 0.200803 0.712868 -0.220373
C82   C     C_3   0.788704 0.934503 0.779196 -0.223665
C83   C     C_3   0.040161 0.866222 0.768785 -0.225517
C84   C     C_3   0.106415 0.166814 0.767383 -0.227885
C85   C     C_1   0.733837 0.873196 0.902725 -0.008460
C86   C     C_1   0.102574 0.901148 0.894455 -0.003490
C87   C     C_1   0.096344 0.199830 0.894127 -0.009979
C88   C     C_3   0.649707 0.827182 0.712052 0.041175
C89   C     C_3   0.161162 0.835221 0.708191 0.037397
C90   C     C_3   0.160349 0.324598 0.707879 0.039444
C91   C     C_3   0.583551 0.867847 0.793069 -0.089435
C92   C     C_3   0.122405 0.746528 0.793288 -0.088580
C93   C     C_3   0.256134 0.359153 0.791389 -0.087839
C94   C     C_3   0.683085 0.850904 0.807533 0.043687
C95   C     C_3   0.128928 0.860137 0.801379 0.038058
C96   C     C_3   0.134079 0.266576 0.800912 0.040412
Cr1   Cr    Cr6+3 0.164410 0.584450 0.499910 1.033267
Cr2   Cr    Cr6+3 0.415550 0.579960 0.499910 1.033307
Cr3   Cr    Cr6+3 0.420040 0.835590 0.499910 1.031056
Cr4   Cr    Cr6+3 0.155170 0.075460 0.019960 1.046667
Cr5   Cr    Cr6+3 0.924540 0.079710 0.019960 1.034912
Cr6   Cr    Cr6+3 0.920290 0.844830 0.019960 1.035116
H1    H     H_    0.479771 0.792295 0.728365 0.091377
H2    H     H_    0.203966 0.710847 0.732886 0.091208
H3    H     H_    0.301064 0.481094 0.732836 0.090999
H4    H     H_    0.506905 0.802537 0.810880 0.097923
H5    H     H_    0.191916 0.745969 0.813549 0.103290
H6    H     H_    0.272863 0.432853 0.813351 0.103512
H7    H     H_    0.724888 0.719231 0.802019 0.139727
H8    H     H_    0.253027 0.033632 0.790230 0.139158
H9    H     H_    0.967718 0.247309 0.794287 0.137866
H10   H     H_    0.705533 0.007508 0.137329 0.132880
H11   H     H_    0.979356 0.710224 0.139993 0.139155
H12   H     H_    0.256886 0.214036 0.146458 0.146292
H13   H     H_    0.586938 0.944570 0.378272 0.128839
H14   H     H_    0.042518 0.654275 0.381261 0.127780
H15   H     H_    0.354918 0.409517 0.376503 0.128739
H16   H     H_    0.604268 0.042787 0.302377 0.108186
H17   H     H_    0.931489 0.583398 0.306921 0.112385
H18   H     H_    0.419327 0.358848 0.303557 0.111543
H19   H     H_    0.717342 0.705515 0.141448 0.144853
H20   H     H_    0.298743 0.004981 0.141232 0.144464
H21   H     H_    0.917551 0.138371 0.161259 0.122107
H22   H     H_    0.698191 0.609966 0.215983 0.147987
H23   H     H_    0.397392 0.079708 0.215752 0.156573
H24   H     H_    0.849318 0.164634 0.238731 0.130820
H25   H     H_    0.679980 0.600481 0.304776 0.111741
H26   H     H_    0.408257 0.072739 0.304543 0.110732
H27   H     H_    0.881563 0.228498 0.323299 0.111735
H28   H     H_    0.577318 0.934879 0.720083 0.143721
H29   H     H_    0.058975 0.658442 0.722625 0.145636
H30   H     H_    0.336554 0.377438 0.719018 0.149699
H31   H     H_    0.644366 0.667725 0.379542 0.130716
H32   H     H_    0.338318 0.973947 0.379510 0.132868
H33   H     H_    0.011035 0.324068 0.389329 0.130575
H34   H     H_    0.831569 0.903827 0.705965 0.123808
H35   H     H_    0.077219 0.931293 0.694164 0.125081
H36   H     H_    0.044689 0.149713 0.692383 0.126272
H37   H     H_    0.781591 0.999992 0.707393 0.145666
H38   H     H_    0.985436 0.785769 0.697626 0.154691
H39   H     H_    0.187126 0.184129 0.696716 0.153543
H40   H     H_    0.813048 0.020235 0.790079 0.135450
H41   H     H_    0.955415 0.800003 0.779019 0.142516
H42   H     H_    0.160500 0.131845 0.776966 0.128590
H43   H     H_    0.859103 0.921120 0.788873 0.099630
H44   H     H_    0.041797 0.945169 0.774860 0.094378
H45   H     H_    0.018882 0.101768 0.773216 0.101305
H46   H     H_    0.543549 0.652940 0.730052 0.101474
H47   H     H_    0.335921 0.913553 0.729899 0.105997
H48   H     H_    0.102303 0.437954 0.730622 0.102149
H49   H     H_    0.580461 0.671026 0.811644 0.114279
H50   H     H_    0.310740 0.949980 0.808309 0.129458
H51   H     H_    0.072889 0.383386 0.810273 0.122452
O1    O     O_R   0.137150 0.468200 0.553200 -0.501728
O2    O     O_R   0.531800 0.668950 0.553200 -0.501036
O3    O     O_R   0.331050 0.862850 0.553200 -0.499412
O4    O     O_R   0.179100 0.982980 0.967000 -0.492323
O5    O     O_R   0.017020 0.196120 0.967000 -0.472727
O6    O     O_R   0.803880 0.820900 0.967000 -0.505256
O7    O     O_R   0.173970 0.688730 0.549930 -0.498938
O8    O     O_R   0.311270 0.485240 0.549930 -0.497426
O9    O     O_R   0.514760 0.826030 0.549930 -0.496669
O10   O     O_R   0.140110 0.470540 0.446010 -0.518883
O11   O     O_R   0.529460 0.669570 0.446010 -0.521407
O12   O     O_R   0.330430 0.859890 0.446010 -0.521988
O13   O     O_R   0.176710 0.690910 0.450560 -0.502407
O14   O     O_R   0.309090 0.485800 0.450560 -0.502890
O15   O     O_R   0.514200 0.823290 0.450560 -0.503335
O16   O     O_3   0.333333 0.666667 0.499990 -0.271539
O17   O     O_R   0.176750 0.985260 0.074180 -0.524700
O18   O     O_R   0.014740 0.191490 0.074180 -0.480395
O19   O     O_R   0.808510 0.823250 0.074180 -0.512742
O20   O     O_R   0.146100 0.172630 0.068980 -0.476786
O21   O     O_R   0.827370 0.973470 0.068980 -0.518221
O22   O     O_R   0.026530 0.853900 0.068980 -0.488274
O23   O     O_3   0.000000 0.000000 0.020040 -0.298475
O24   O     O_R   0.148270 0.170520 0.969620 -0.482607
O25   O     O_R   0.829480 0.977750 0.969620 -0.517294
O26   O     O_R   0.022250 0.851730 0.969620 -0.474736
C97   C     C_1   0.598572 0.974582 0.810277 0.179728
N1    N     N_1   0.610308 0.058195 0.823735 -0.270360
C98   C     C_1   0.018325 0.654073 0.812544 0.186754
N2    N     N_1   0.936771 0.581658 0.827609 -0.268718
C99   C     C_1   0.338007 0.326483 0.806970 0.187567
N3    N     N_1   0.402013 0.300752 0.819143 -0.269050
C100  C     C_1   0.631833 0.082819 0.207403 0.160211
N4    N     N_1   0.624847 0.151997 0.187249 -0.270600
C101  C     C_1   0.888201 0.571727 0.212315 0.168623
N5    N     N_1   0.813587 0.499161 0.192940 -0.275180
C102  C     C_1   0.412245 0.295803 0.212213 0.165150
N6    N     N_1   0.487685 0.304940 0.190172 -0.269683
C103  C     C_1   0.700774 0.676800 0.712284 0.190650
N7    N     N_1   0.754590 0.644587 0.694032 -0.296886
C104  C     C_1   0.307007 0.036578 0.702352 0.193557
N8    N     N_1   0.338364 0.117031 0.680127 -0.296065
C105  C     C_1   0.964349 0.293108 0.705887 0.192240
N9    N     N_1   0.880232 0.250168 0.685356 -0.286981

loop_
_geom_bond_atom_site_label_1
_geom_bond_atom_site_label_2
_ccdc_geom_bond_type
C15   C18   T    
C40   H16   S    
C4    H7    S    
C10   C85   T    
C102  N6    T    
C82   C94   S    
C2    C18   S    
C33   C45   A    
C6    H9    S    
C79   H37   S    
C14   C17   T    
C82   H40   S    
C27   C78   A    
C81   C84   S    
C6    C9    S    
C53   C59   A    
C9    C105  S    
C67   H1    S    
C54   C60   A    
C55   C70   A    
C25   C28   A    
C79   H34   S    
C93   H6    S    
C67   C88   S    
C33   C39   A    
C5    H50   S    
C31   C43   A    
C60   C63   A    
C75   H21   S    
C19   O18   A    
Cr3   O15   S    
C37   C40   A    
C69   C93   S    
C25   H13   S    
C34   C77   S    
C93   C99   S    
C53   C56   A    
C5    H8    S    
C28   C40   A    
C11   C86   T    
Cr6   O23   S    
C80   H35   S    
Cr3   O9    S    
C30   C57   A    
C36   O15   A    
Cr1   O16   S    
C99   N3    T    
C84   H42   S    
C84   C96   S    
C80   C89   S    
C98   N2    T    
C23   O25   A    
Cr5   O25   S    
C36   C76   S    
C33   C72   A    
Cr2   O16   S    
C51   H33   S    
C45   H12   S    
C31   C70   A    
C20   O21   A    
C7    C88   S    
C21   O22   A    
C23   O6    A    
Cr4   O23   S    
C35   O14   A    
C64   C73   A    
C8    C104  S    
C32   C38   A    
C39   C42   A    
C34   O12   A    
Cr2   O14   S    
C3    O9    A    
C44   C47   A    
C1    O3    A    
C56   C71   A    
C58   C61   A    
C81   H39   S    
C104  N8    T    
C63   C66   A    
C58   H25   S    
C2    O1    A    
C91   C97   S    
C27   C30   A    
Cr6   O26   S    
C48   C75   A    
Cr5   O21   S    
C22   O24   A    
Cr4   O24   S    
Cr4   O4    S    
C2    O8    A    
C3    O2    A    
C79   C88   S    
C5    C95   S    
C28   C55   A    
C32   C71   A    
C27   H15   S    
Cr6   O19   S    
C81   H36   S    
C66   C72   A    
C9    H48   S    
C50   C53   A    
Cr4   O17   S    
C26   C77   A    
Cr1   O7    S    
C38   C41   A    
C5    C8    S    
C21   O17   A    
C50   H32   S    
C39   C102  S    
C69   H3    S    
C24   O4    A    
C22   O5    A    
C4    C7    S    
C59   H26   S    
C65   C71   A    
Cr6   O6    S    
C92   C95   S    
C35   O10   A    
C65   C74   A    
C31   C37   A    
C101  N5    T    
C9    C90   S    
C61   C64   A    
C64   C70   A    
C19   O20   A    
C14   C89   S    
C62   H23   S    
C83   H44   S    
Cr1   O10   S    
C92   H5    S    
C37   C100  S    
C74   H20   S    
C49   C52   A    
C83   C95   S    
Cr3   O3    S    
C24   O26   A    
C67   C91   S    
C68   C89   S    
C32   C44   A    
C49   C76   A    
Cr1   O1    S    
C41   H17   S    
C52   C58   A    
C4    C94   S    
C81   C90   S    
Cr3   O12   S    
Cr2   O8    S    
C20   O19   A    
Cr5   O5    S    
C93   C96   S    
C6    C96   S    
C61   H22   S    
C7    C103  S    
C67   H28   S    
C43   H10   S    
C69   C90   S    
C50   C77   A    
C82   H43   S    
C97   N1    T    
C80   C83   S    
C7    H46   S    
C45   C48   A    
C11   C95   S    
C4    H49   S    
C49   H31   S    
Cr2   O2    S    
C59   C62   A    
C62   C65   A    
C29   C41   A    
C19   C48   S    
C1    C17   S    
C1    O7    A    
C30   C42   A    
C68   H2    S    
C47   C74   A    
C105  N9    T    
C68   H29   S    
C22   C87   S    
C60   H27   S    
C44   H11   S    
C79   C82   S    
Cr2   O11   S    
C52   C55   A    
Cr3   O16   S    
C29   C56   A    
C84   H45   S    
C35   C78   S    
C73   H19   S    
C25   C76   A    
C103  N7    T    
C51   C54   A    
C91   H4    S    
C8    H47   S    
Cr6   O22   S    
C51   C78   A    
C12   C87   T    
C80   H38   S    
C15   C90   S    
C83   H41   S    
C42   H18   S    
C69   H30   S    
C38   C101  S    
C66   C75   A    
C13   C88   S    
C68   C92   S    
Cr5   O18   S    
C57   C72   A    
C43   C46   A    
C26   H14   S    
C6    H51   S    
C63   H24   S    
C26   C29   A    
C23   C85   S    
C13   C16   T    
Cr4   O20   S    
C36   O11   A    
C10   C94   S    
C12   C96   S    
Cr5   O23   S    
C92   C98   S    
C8    C89   S    
C21   C47   S    
C100  N4    T    
C34   O13   A    
C24   C86   S    
C46   C73   A    
C20   C46   S    
C3    C16   S    
Cr1   O13   S    
C91   C94   S    
C54   C57   A    
