data_mof_unit_56990.cif
_audit_creation_date              2012-12-10T17:05:24-0500
_audit_creation_method            fapswitch 2.2
_symmetry_space_group_name_H-M    P1
_symmetry_Int_Tables_number       1
_space_group_crystal_system       triclinic
_cell_length_a                    10.099834
_cell_length_b                    10.438391
_cell_length_c                    15.513456
_cell_angle_alpha                 90.457171
_cell_angle_beta                  68.814567
_cell_angle_gamma                 90.805008
_cell_volume                      1524.82838181

loop_
_atom_site_label
_atom_site_type_symbol
_atom_type_description
_atom_site_fract_x
_atom_site_fract_y
_atom_site_fract_z
_atom_type_partial_charge
C1    C     C_R   0.508463 0.736754 0.485050 0.914710
C2    C     C_R   0.699418 0.381674 0.044301 0.181758
C3    C     C_R   0.562599 0.429061 0.095521 0.096409
C4    C     C_R   0.411945 0.503377 0.675637 0.874269
C5    C     C_R   0.799989 0.369682 0.086869 -0.225235
C6    C     C_R   0.768327 0.411872 0.177759 -0.199956
C7    C     C_R   0.536401 0.477381 0.183708 -0.270089
C8    C     C_2   0.605605 0.048807 0.499585 0.138397
C9    C     C_2   0.494240 0.121101 0.502577 -0.441688
C10   C     C_2   0.640967 0.934990 0.438203 0.119275
C11   C     C_2   0.535327 0.858282 0.434366 -0.020105
C12   C     C_R   0.407227 0.462387 0.915997 0.039218
C13   C     C_2   0.081323 0.401028 0.481150 0.188892
C14   C     C_2   0.922467 0.401746 0.511357 -0.058047
C15   C     C_R   0.496244 0.259999 0.505620 0.931618
C16   C     C_R   0.588081 0.494894 0.324736 0.855867
C17   C     C_R   0.359379 0.502804 0.776974 -0.072782
C18   C     C_R   0.636363 0.467134 0.225953 -0.056790
C19   C     C_R   0.163637 0.482736 0.923567 -0.221513
C20   C     C_R   0.213013 0.491791 0.827614 -0.245664
C21   C     C_R   0.455607 0.507305 0.824512 0.096046
C22   C     C_3   0.701967 0.084004 0.552186 -0.358613
C23   C     C_R   0.260086 0.466407 0.968385 0.157347
C24   C     C_3   0.706211 0.976160 0.616633 -0.938952
C25   C     C_3   0.792557 0.925735 0.369161 -0.386227
C26   C     C_3   0.811849 0.841194 0.284713 -0.875589
C27   C     C_3   0.448017 0.894785 0.375988 -0.431997
C28   C     C_3   0.445997 0.793271 0.304994 -0.834578
C29   C     C_3   0.161255 0.285600 0.429310 -0.334237
C30   C     C_3   0.105271 0.233312 0.356384 -0.953709
C31   C     C_3   0.929177 0.604628 0.438731 -0.142329
C32   C     C_3   0.010619 0.563355 0.338591 -0.882389
C33   C     C_3   0.595758 0.583730 0.787669 -0.387883
C34   C     C_R   0.501634 0.423737 0.958903 0.058071
C35   C     C_3   0.573937 0.721016 0.762703 -0.857552
C36   C     C_R   0.457881 0.433827 0.055389 0.080126
C37   C     C_R   0.311542 0.447530 0.107930 -0.233622
C38   C     C_R   0.213043 0.457088 0.064522 -0.227165
C39   C     C_R   0.636688 0.372850 0.908323 -0.258133
C40   C     C_R   0.733306 0.348816 0.951409 -0.243600
H1    H     H_    0.101018 0.462292 0.106214 0.145705
H2    H     H_    0.667551 0.351412 0.835327 0.152549
H3    H     H_    0.597527 0.957697 0.667282 0.272249
H4    H     H_    0.748352 0.887029 0.577337 0.267209
H5    H     H_    0.776059 0.004647 0.654928 0.251460
H6    H     H_    0.810931 0.103500 0.502965 0.191926
H7    H     H_    0.663667 0.169332 0.596898 0.223510
H8    H     H_    0.773638 0.742050 0.305729 0.270545
H9    H     H_    0.754313 0.882463 0.242785 0.269755
H10   H     H_    0.926274 0.837830 0.240856 0.244679
H11   H     H_    0.830786 0.023511 0.343145 0.206593
H12   H     H_    0.901988 0.326555 0.050362 0.136182
H13   H     H_    0.862067 0.891392 0.405256 0.195291
H14   H     H_    0.552497 0.752242 0.269369 0.248481
H15   H     H_    0.368948 0.715918 0.338895 0.281472
H16   H     H_    0.410349 0.837143 0.252226 0.240035
H17   H     H_    0.336340 0.911471 0.422169 0.204143
H18   H     H_    0.490698 0.985116 0.337784 0.220288
H19   H     H_    0.991711 0.205556 0.387369 0.256098
H20   H     H_    0.118917 0.305257 0.301696 0.264612
H21   H     H_    0.166220 0.146942 0.323486 0.257406
H22   H     H_    0.273854 0.311755 0.391404 0.257607
H23   H     H_    0.410635 0.083103 0.481924 0.131668
H24   H     H_    0.154866 0.208485 0.479647 0.192306
H25   H     H_    0.953764 0.484648 0.317609 0.271098
H26   H     H_    0.022642 0.645560 0.291359 0.231952
H27   H     H_    0.119200 0.532691 0.329912 0.247643
H28   H     H_    0.851923 0.674660 0.435332 0.222373
H29   H     H_    0.996555 0.662086 0.467046 0.122002
H30   H     H_    0.836689 0.310830 0.911070 0.147240
H31   H     H_    0.136611 0.494141 0.793461 0.168653
H32   H     H_    0.540464 0.724200 0.702176 0.268610
H33   H     H_    0.492536 0.768701 0.822357 0.258559
H34   H     H_    0.085752 0.561277 0.547993 0.149327
H35   H     H_    0.675543 0.775168 0.745486 0.248072
H36   H     H_    0.644008 0.594975 0.841166 0.211919
H37   H     H_    0.676810 0.534694 0.728876 0.221539
H38   H     H_    0.864955 0.313896 0.537859 0.113951
H39   H     H_    0.437693 0.525347 0.220249 0.159988
H40   H     H_    0.844839 0.398334 0.210810 0.146367
H41   H     H_    0.050676 0.485498 0.962048 0.149440
H42   H     H_    0.270846 0.443938 0.182408 0.145353
N1    N     N_2   0.148330 0.498670 0.499030 -0.227570
N2    N     N_2   0.852680 0.498640 0.499000 -0.088379
O1    O     O_R   0.386950 0.680940 0.500010 -0.602367
O2    O     O_R   0.613110 0.680900 0.499990 -0.636564
O3    O     O_R   0.322330 0.500030 0.632270 -0.613192
O4    O     O_R   0.548480 0.499990 0.632240 -0.608792
O5    O     O_R   0.386890 0.319100 0.500010 -0.628536
O6    O     O_R   0.613050 0.319060 0.499990 -0.608273
O7    O     O_R   0.451520 0.500010 0.367760 -0.628801
O8    O     O_R   0.677670 0.499970 0.367730 -0.610637
Zn1   Zn    Zn3+2 0.349000 0.500030 0.500020 0.902045
Zn2   Zn    Zn3+2 0.651000 0.499970 0.499980 0.911649

loop_
_geom_bond_atom_site_label_1
_geom_bond_atom_site_label_2
_ccdc_geom_bond_type
C19   C20   A    
C1    C11   S    
C14   N2    D    
H34   N1    S    
C28   H16   S    
C4    O3    A    
C12   C23   A    
C35   H35   S    
C29   C30   S    
C40   H30   S    
C24   H5    S    
C13   C29   S    
C36   C37   A    
C25   H13   S    
C3    C7    A    
C26   H10   S    
C5    C6    A    
C15   O5    A    
N1    Zn1   S    
C17   C20   A    
O2    Zn2   S    
O1    Zn1   S    
C8    C9    D    
C30   H20   S    
C8    C22   S    
C5    H12   S    
C26   H8    S    
C22   H7    S    
C29   H24   S    
C13   C14   S    
C28   H15   S    
O6    Zn2   S    
C39   H2    S    
C1    O1    A    
C31   H28   S    
C6    C18   A    
O4    Zn2   S    
C34   C39   A    
C38   H1    S    
C27   H17   S    
C26   H9    S    
C39   C40   A    
C28   H14   S    
C25   C26   S    
C12   C21   A    
C17   C21   A    
C31   N2    S    
C19   C23   A    
C25   H11   S    
C37   C38   A    
O7    Zn1   S    
C33   H36   S    
C6    H40   S    
C31   C32   S    
C11   C27   S    
C7    C18   A    
C30   H19   S    
O8    Zn2   S    
C20   H31   S    
N2    Zn2   S    
C32   H27   S    
C4    C17   S    
C10   C25   S    
C16   C18   S    
C22   H6    S    
C35   H32   S    
C16   O8    A    
C24   H4    S    
C22   C24   S    
C37   H42   S    
C2    C5    A    
C12   C34   A    
C7    H39   S    
C1    O2    A    
C29   H22   S    
C35   H33   S    
C9    H23   S    
C27   H18   S    
C4    O4    A    
C23   C38   A    
C13   N1    D    
C2    C3    A    
C9    C15   S    
C15   O6    A    
C33   H37   S    
C3    C36   A    
O3    Zn1   S    
C33   C35   S    
C34   C36   A    
C14   H38   S    
O5    Zn1   S    
C10   C11   D    
C2    C40   A    
C31   H29   S    
C21   C33   S    
C16   O7    A    
C8    C10   S    
C30   H21   S    
C27   C28   S    
C24   H3    S    
C19   H41   S    
C32   H26   S    
C32   H25   S    
