data_mof_unit_41853.cif
_audit_creation_date              2012-12-10T17:48:19-0500
_audit_creation_method            fapswitch 2.2
_symmetry_space_group_name_H-M    P1
_symmetry_Int_Tables_number       1
_space_group_crystal_system       triclinic
_cell_length_a                    13.916065
_cell_length_b                    14.696548
_cell_length_c                    14.818208
_cell_angle_alpha                 114.773079
_cell_angle_beta                  106.269603
_cell_angle_gamma                 72.343555
_cell_volume                      2580.71579721

loop_
_atom_site_label
_atom_site_type_symbol
_atom_type_description
_atom_site_fract_x
_atom_site_fract_y
_atom_site_fract_z
_atom_type_partial_charge
C1    C     C_R   0.517560 0.118474 0.687734 0.793522
C2    C     C_R   0.483375 0.881555 0.312259 0.794269
C3    C     C_R   0.523973 0.359657 0.920798 0.044375
C4    C     C_R   0.493762 0.641239 0.077669 0.048300
C5    C     C_R   0.563060 0.317025 0.997371 0.061680
C6    C     C_R   0.456482 0.684381 0.001552 0.062775
C7    C     C_R   0.500963 0.468279 0.947267 -0.007379
C8    C     C_R   0.520714 0.532620 0.050445 -0.004821
C9    C     C_R   0.567285 0.486575 0.123397 -0.295566
C10   C     C_R   0.458185 0.514738 0.874088 -0.301669
C11   C     C_R   0.583855 0.380912 0.098483 0.465830
C12   C     C_R   0.440685 0.620536 0.899908 0.464182
C13   C     C_R   0.317451 0.304786 0.341030 -0.325180
C14   C     C_R   0.677766 0.697606 0.663201 -0.332211
C15   C     C_R   0.348762 0.219079 0.368001 0.075581
C16   C     C_R   0.645011 0.784985 0.638854 0.077708
C17   C     C_R   0.491217 0.282243 0.483310 0.013370
C18   C     C_R   0.513956 0.713873 0.509821 0.014254
C19   C     C_R   0.464865 0.371178 0.457857 -0.031664
C20   C     C_R   0.542639 0.622472 0.531311 -0.036641
C21   C     C_R   0.375605 0.381271 0.384011 0.107820
C22   C     C_R   0.629904 0.613555 0.607394 0.101976
C23   C     C_R   0.686887 0.987472 0.505046 0.826860
C24   C     C_R   0.313211 0.012819 0.495619 0.827836
C25   C     C_R   0.522434 0.450560 0.504784 0.040961
C26   C     C_R   0.487666 0.540986 0.480706 0.042147
C27   C     C_R   0.399271 0.547091 0.406442 -0.286161
C28   C     C_R   0.614042 0.441878 0.574734 -0.293388
C29   C     C_R   0.344843 0.468567 0.356718 -0.005060
C30   C     C_R   0.666701 0.521619 0.626844 -0.006641
C31   C     C_1   0.208465 0.019765 0.493193 -0.179387
C32   C     C_1   0.792111 0.981682 0.510588 -0.179292
C33   C     C_2   0.014415 0.034433 0.491423 -0.025919
C34   C     C_2   0.987196 0.969215 0.518541 -0.026047
C35   C     C_1   0.880906 0.976279 0.515040 -0.045698
C36   C     C_1   0.120266 0.025925 0.491911 -0.050703
C37   C     C_R   0.530840 0.185387 0.794744 -0.048362
C38   C     C_R   0.475071 0.815030 0.205126 -0.049161
C39   C     C_R   0.582085 0.210174 0.971578 -0.159136
C40   C     C_R   0.433420 0.791517 0.028360 -0.161525
C41   C     C_R   0.565495 0.145021 0.871153 -0.224867
C42   C     C_R   0.443605 0.856198 0.129299 -0.220703
C43   C     C_R   0.510744 0.291488 0.819864 -0.222917
C44   C     C_R   0.498930 0.708679 0.179005 -0.218923
Cu1   Cu    Cu3+1 0.526370 0.916390 0.524860 0.935775
Cu2   Cu    Cu3+1 0.473630 0.083610 0.475140 0.935474
H1    H     H_    0.246848 0.310769 0.287741 0.156207
H2    H     H_    0.740417 0.696948 0.725722 0.154891
H3    H     H_    0.371011 0.611944 0.383078 0.142621
H4    H     H_    0.648087 0.372541 0.590253 0.150735
H5    H     H_    0.518112 0.680446 0.239444 0.149535
H6    H     H_    0.486821 0.318561 0.758455 0.150554
H7    H     H_    0.424989 0.938372 0.147830 0.156478
H8    H     H_    0.581539 0.063084 0.853347 0.154961
H9    H     H_    0.610589 0.176292 0.028926 0.179397
H10   H     H_    0.406572 0.825895 0.971399 0.177612
H11   H     H_    0.594274 0.530198 0.200853 0.154504
H12   H     H_    0.435395 0.471995 0.795415 0.156149
H13   H     H_    0.451445 0.726214 0.451400 0.127646
H14   H     H_    0.555537 0.269439 0.540157 0.126443
H15   H     H_    0.683588 0.848264 0.680579 0.128062
H16   H     H_    0.304084 0.160379 0.333806 0.130631
N1    N     N_R   0.433980 0.209250 0.437830 -0.178552
N2    N     N_R   0.566020 0.790750 0.562170 -0.178176
O1    O     O_R   0.534760 0.019630 0.662610 -0.590210
O2    O     O_R   0.465240 0.980370 0.337390 -0.587817
O3    O     O_R   0.490220 0.160840 0.620610 -0.591124
O4    O     O_R   0.509780 0.839160 0.379390 -0.593035
O5    O     O_R   0.663260 0.919400 0.523940 -0.577016
O6    O     O_R   0.336740 0.080600 0.476060 -0.580605
O7    O     O_R   0.618720 0.060610 0.481950 -0.578726
O8    O     O_R   0.381280 0.939390 0.518050 -0.576874
C45   C     C_R   0.062694 0.888808 0.553776 0.142539
C46   C     C_R   0.046174 0.788335 0.513821 -0.155850
C47   C     C_R   0.113613 0.713334 0.549351 -0.171989
C48   C     C_R   0.198695 0.737346 0.624292 -0.093711
C49   C     C_R   0.215425 0.837032 0.665436 -0.125612
C50   C     C_R   0.147222 0.912815 0.631377 -0.137310
H17   H     H_    0.981136 0.767928 0.454938 0.129652
H18   H     H_    0.100389 0.636206 0.517995 0.138302
H19   H     H_    0.251074 0.678802 0.650903 0.172280
H20   H     H_    0.280667 0.855889 0.724536 0.141006
H21   H     H_    0.159720 0.990346 0.666583 0.127645
C51   C     C_R   0.939368 0.117100 0.459561 0.135641
C52   C     C_R   0.957709 0.217013 0.502549 -0.131904
C53   C     C_R   0.891568 0.294261 0.469802 -0.135204
C54   C     C_R   0.805535 0.273452 0.395304 -0.094340
C55   C     C_R   0.786585 0.174494 0.351517 -0.127150
C56   C     C_R   0.853895 0.096174 0.382311 -0.140274
H22   H     H_    0.023805 0.234952 0.560896 0.130524
H23   H     H_    0.907724 0.370041 0.501337 0.129553
H24   H     H_    0.754677 0.333917 0.370797 0.159762
H25   H     H_    0.720683 0.158021 0.292560 0.140816
H26   H     H_    0.840070 0.019169 0.344772 0.129071
O9    O     O_3   0.627885 0.338077 0.171986 -0.597768
C57   C     C_3   0.563159 0.375215 0.243704 -0.350514
H27   H     H_    0.480565 0.382504 0.208742 0.167120
H28   H     H_    0.577673 0.449828 0.301959 0.182394
H29   H     H_    0.580804 0.320002 0.282035 0.186845
O10   O     O_3   0.397084 0.662860 0.826156 -0.600388
C58   C     C_3   0.470917 0.641542 0.767504 -0.361874
H30   H     H_    0.486520 0.559054 0.718933 0.182392
H31   H     H_    0.543322 0.665085 0.815200 0.168629
H32   H     H_    0.440161 0.686027 0.717064 0.195385
C59   C     C_R   0.256220 0.481130 0.275497 0.111542
C60   C     C_R   0.177584 0.569724 0.295857 -0.157943
C61   C     C_R   0.095042 0.583272 0.219856 -0.128522
C62   C     C_R   0.090839 0.509134 0.122368 -0.105988
C63   C     C_R   0.169665 0.421750 0.100552 -0.129755
C64   C     C_R   0.252364 0.407908 0.176514 -0.168816
H33   H     H_    0.180555 0.628443 0.370502 0.143762
H34   H     H_    0.034517 0.651462 0.236524 0.127494
H35   H     H_    0.026707 0.519786 0.063777 0.119662
H36   H     H_    0.166752 0.364779 0.024737 0.123982
H37   H     H_    0.313041 0.340037 0.158234 0.122892
C65   C     C_R   0.761768 0.503990 0.699846 0.122505
C66   C     C_R   0.759455 0.474038 0.777648 -0.159275
C67   C     C_R   0.849887 0.451019 0.842391 -0.129393
C68   C     C_R   0.943248 0.457121 0.829691 -0.112827
C69   C     C_R   0.946230 0.487242 0.752937 -0.136651
C70   C     C_R   0.855999 0.510578 0.688243 -0.164225
H38   H     H_    0.687757 0.468037 0.787775 0.123702
H39   H     H_    0.847683 0.427741 0.901956 0.130750
H40   H     H_    0.013382 0.438157 0.879002 0.115826
H41   H     H_    0.018589 0.491833 0.743100 0.131730
H42   H     H_    0.859623 0.532926 0.628519 0.123910

loop_
_geom_bond_atom_site_label_1
_geom_bond_atom_site_label_2
_ccdc_geom_bond_type
C7    C10   A    
C59   C64   A    
C58   H30   S    
C27   C29   A    
C61   H34   S    
C23   O5    A    
O9    C57   S    
C66   H38   S    
C4    C8    A    
C24   O6    A    
C7    C8    A    
C39   C41   A    
C30   C65   S    
C49   C50   A    
C62   C63   A    
C25   C28   A    
C3    C43   A    
C26   C27   A    
C10   H12   S    
Cu2   O2    S    
C3    C7    A    
C53   H23   S    
C42   H7    S    
C6    C12   A    
C43   H6    S    
C60   C61   A    
C57   H29   S    
C33   C36   S    
C65   C66   A    
C34   C35   S    
C45   C46   A    
C56   H26   S    
C67   C68   A    
C1    O3    A    
C28   H4    S    
C50   H21   S    
C39   H9    S    
C8    C9    A    
C40   H10   S    
C57   H28   S    
C1    O1    A    
C61   C62   A    
C47   H18   S    
C18   C20   A    
C1    C37   S    
C40   C42   A    
C58   H31   S    
C68   H40   S    
C54   H24   S    
Cu1   O8    S    
C29   C59   S    
C60   H33   S    
C52   H22   S    
Cu2   O6    S    
C46   C47   A    
Cu1   O5    S    
C32   C35   T    
C23   O7    A    
C6    C40   A    
C48   C49   A    
C4    C6    A    
C65   C70   A    
C13   H1    S    
C53   C54   A    
C14   H2    S    
C4    C44   A    
C3    C5    A    
C25   C26   A    
C52   C53   A    
C21   C29   A    
C62   H35   S    
C37   C43   A    
C47   C48   A    
C38   C44   A    
C2    C38   S    
C45   C50   A    
C57   H27   S    
Cu1   O4    S    
C33   C34   D    
C13   C21   A    
C51   C52   A    
C9    C11   A    
Cu2   O7    S    
C10   C12   A    
C63   H36   S    
C44   H5    S    
C20   C22   A    
C58   H32   S    
C46   H17   S    
C13   C15   A    
Cu1   O1    S    
C14   C16   A    
C51   C56   A    
C69   C70   A    
C24   O8    A    
C11   O9    S    
C55   H25   S    
C22   C30   A    
C19   C21   A    
C69   H41   S    
C2    O2    A    
C48   H19   S    
C68   C69   A    
C5    C11   A    
C59   C60   A    
Cu1   N2    S    
C2    O4    A    
Cu2   N1    S    
C23   C32   S    
C14   C22   A    
C5    C39   A    
C24   C31   S    
C70   H42   S    
C63   C64   A    
C17   N1    A    
C18   N2    A    
C20   C26   A    
C49   H20   S    
C28   C30   A    
O10   C58   S    
C17   C19   A    
C15   H16   S    
C17   H14   S    
C9    H11   S    
C67   H39   S    
C37   C41   A    
C19   C25   A    
C33   C51   S    
C41   H8    S    
C12   O10   S    
C34   C45   S    
C38   C42   A    
Cu1   Cu2   S    
C18   H13   S    
Cu2   O3    S    
C55   C56   A    
C54   C55   A    
C16   H15   S    
C15   N1    A    
C31   C36   T    
C16   N2    A    
C66   C67   A    
C64   H37   S    
C27   H3    S    
