data_mof_unit_26513.cif
_audit_creation_date              2012-10-26T21:01:02-0400
_audit_creation_method            fapswitch 2.2
_symmetry_space_group_name_H-M    P1
_symmetry_Int_Tables_number       1
_space_group_crystal_system       triclinic
_cell_length_a                    10.923723
_cell_length_b                    10.894591
_cell_length_c                    9.550486
_cell_angle_alpha                 91.287581
_cell_angle_beta                  89.824659
_cell_angle_gamma                 90.564297
_cell_volume                      1136.25182952

loop_
_atom_site_label
_atom_site_type_symbol
_atom_type_description
_atom_site_fract_x
_atom_site_fract_y
_atom_site_fract_z
_atom_type_partial_charge
C1    C     C_R   0.499131 0.263006 0.498534 0.548002
C2    C     C_R   0.410105 0.441925 0.073167 -0.022264
C3    C     C_R   0.409923 0.442210 0.924386 -0.021805
C4    C     C_R   0.265298 0.497900 0.500151 0.556695
C5    C     C_R   0.598191 0.545436 0.926905 0.135276
C6    C     C_3   0.644197 0.673030 0.920189 -0.264181
C7    C     C_3   0.640134 0.679171 0.079077 -0.143983
C8    C     C_R   0.500589 0.737678 0.500995 0.549076
C9    C     C_R   0.734671 0.501085 0.500004 0.546398
C10   C     C_2   0.933184 0.491120 0.385205 -0.171052
C11   C     C_2   0.866733 0.507284 0.502115 -0.128255
C12   C     C_R   0.498034 0.130981 0.495643 -0.002495
C13   C     C_2   0.067146 0.497848 0.385018 -0.164820
C14   C     C_2   0.133187 0.490268 0.502456 -0.119870
C15   C     C_R   0.519042 0.067371 0.616593 0.036161
C16   C     C_3   0.671641 0.150648 0.802123 -0.241564
C17   C     C_3   0.775021 0.128545 0.694674 -0.277599
C18   C     C_3   0.892037 0.196302 0.739058 -0.458894
C19   C     C_3   0.765855 0.699366 0.147838 -0.255212
C20   C     C_3   0.811419 0.831725 0.130091 -0.313240
C21   C     C_3   0.933518 0.853216 0.204344 -0.448694
C22   C     C_R   0.476803 0.061834 0.371538 -0.172006
C23   C     C_R   0.477011 0.932856 0.373891 -0.166230
C24   C     C_R   0.499294 0.870944 0.500094 0.003546
C25   C     C_R   0.520012 0.943580 0.619505 0.002062
C26   C     C_3   0.551157 0.944221 0.771799 -0.265941
C27   C     C_3   0.548517 0.085200 0.767922 -0.116421
C28   C     C_R   0.597471 0.547886 0.074802 0.159205
Cu1   Cu    Cu3+1 0.499990 0.499980 0.640670 0.919785
Cu2   Cu    Cu3+1 0.500010 0.500020 0.359330 0.922601
H1    H     H_    0.888569 0.474526 0.284994 0.138707
H2    H     H_    0.459508 0.106622 0.273543 0.129406
H3    H     H_    0.459116 0.882387 0.277126 0.125834
H4    H     H_    0.475522 0.906095 0.836241 0.116223
H5    H     H_    0.643738 0.906952 0.790725 0.124261
H6    H     H_    0.470293 0.124601 0.828122 0.124004
H7    H     H_    0.875654 0.296703 0.747536 0.155582
H8    H     H_    0.924138 0.162994 0.841584 0.144057
H9    H     H_    0.964774 0.179574 0.659610 0.143696
H10   H     H_    0.794679 0.028970 0.683959 0.155580
H11   H     H_    0.747583 0.162521 0.590692 0.173122
H12   H     H_    0.336252 0.396520 0.127836 0.111680
H13   H     H_    0.654671 0.250924 0.811078 0.178714
H14   H     H_    0.702133 0.120851 0.906899 0.130608
H15   H     H_    0.923465 0.837381 0.318348 0.156335
H16   H     H_    0.004027 0.790399 0.160256 0.153619
H17   H     H_    0.964553 0.949435 0.189600 0.140407
H18   H     H_    0.823254 0.851226 0.017093 0.158365
H19   H     H_    0.743049 0.896740 0.174877 0.162728
H20   H     H_    0.756848 0.682804 0.261428 0.189313
H21   H     H_    0.833774 0.633960 0.102714 0.136254
H22   H     H_    0.335856 0.397168 0.867915 0.114019
H23   H     H_    0.736923 0.678002 0.872154 0.120437
H24   H     H_    0.574079 0.729957 0.872464 0.144489
H25   H     H_    0.568719 0.742349 0.120586 0.144432
H26   H     H_    0.907886 0.528129 0.602900 0.094460
H27   H     H_    0.112071 0.507317 0.284129 0.140335
H28   H     H_    0.091649 0.475015 0.603690 0.094039
N1    N     N_R   0.500780 0.500930 0.147930 -0.237323
N2    N     N_R   0.500780 0.500890 0.852020 -0.238309
O1    O     O_R   0.500000 0.319640 0.618810 -0.508087
O2    O     O_R   0.500010 0.319680 0.381230 -0.506455
O3    O     O_R   0.321940 0.499980 0.618760 -0.506468
O4    O     O_R   0.321950 0.500020 0.381180 -0.503592
O5    O     O_R   0.499990 0.680320 0.618770 -0.499661
O6    O     O_R   0.500000 0.680360 0.381190 -0.513156
O7    O     O_R   0.678050 0.499980 0.618820 -0.504738
O8    O     O_R   0.678060 0.500020 0.381240 -0.507198

loop_
_geom_bond_atom_site_label_1
_geom_bond_atom_site_label_2
_ccdc_geom_bond_type
C18   H9    S    
C9    O7    A    
C24   C25   A    
C8    O6    A    
C6    C7    S    
Cu2   O4    S    
C27   H6    S    
C5    C28   A    
C4    O4    A    
C15   C27   S    
C19   C20   S    
C16   H13   S    
C12   C15   A    
C7    H25   S    
C23   C24   A    
C3    N2    A    
C16   C27   S    
Cu1   O3    S    
C2    C3    A    
C18   H8    S    
C9    O8    A    
C8    O5    A    
Cu2   O6    S    
C13   C14   D    
Cu2   N1    S    
C9    C11   S    
C19   H20   S    
C26   C27   S    
C20   H19   S    
C1    C12   S    
C22   H2    S    
C2    H12   S    
C19   H21   S    
Cu1   O5    S    
C4    O3    A    
C8    C24   S    
C18   H7    S    
C6    H24   S    
C10   C13   S    
C17   C18   S    
C7    C19   S    
Cu2   O2    S    
C4    C14   S    
C5    C6    S    
C14   H28   S    
C3    H22   S    
Cu1   O1    S    
C15   C25   A    
C17   H11   S    
C13   H27   S    
C10   C11   D    
C11   H26   S    
C6    H23   S    
Cu1   Cu2   S    
C12   C22   A    
C26   H5    S    
C20   C21   S    
C1    O2    A    
C21   H16   S    
C28   N1    A    
C16   H14   S    
C2    N1    A    
C20   H18   S    
C5    N2    A    
C23   H3    S    
C25   C26   S    
Cu1   O7    S    
Cu1   N2    S    
C10   H1    S    
C26   H4    S    
C22   C23   A    
Cu2   O8    S    
C7    C28   S    
C1    O1    A    
C16   C17   S    
C21   H17   S    
C17   H10   S    
C21   H15   S    
