data_mof_unit_37935.cif
_audit_creation_date              2012-12-10T18:57:09-0500
_audit_creation_method            fapswitch 2.2
_symmetry_space_group_name_H-M    P1
_symmetry_Int_Tables_number       1
_space_group_crystal_system       triclinic
_cell_length_a                    10.619613
_cell_length_b                    9.918322
_cell_length_c                    10.674006
_cell_angle_alpha                 90.02848
_cell_angle_beta                  91.333455
_cell_angle_gamma                 90.165055
_cell_volume                      1123.97030917

loop_
_atom_site_label
_atom_site_type_symbol
_atom_type_description
_atom_site_fract_x
_atom_site_fract_y
_atom_site_fract_z
_atom_type_partial_charge
C1    C     C_R   0.260657 0.499718 0.503752 0.873518
C2    C     C_R   0.473650 0.622096 0.935444 0.141542
C3    C     C_R   0.476092 0.500289 0.128050 -0.103220
C4    C     C_R   0.476979 0.500276 0.870779 -0.102066
C5    C     C_R   0.455305 0.378763 0.063484 -0.237223
C6    C     C_R   0.455603 0.378754 0.934052 -0.220138
C7    C     C_3   0.559748 0.741444 0.930574 -0.493850
C8    C     C_3   0.559262 0.741485 0.072625 -0.470344
C9    C     C_R   0.062431 0.436915 0.414349 -0.246464
C10   C     C_R   0.933931 0.437350 0.413548 -0.233725
C11   C     C_R   0.872221 0.500216 0.510729 -0.064118
C12   C     C_R   0.739515 0.500140 0.502769 0.890830
C13   C     C_R   0.128441 0.498685 0.512693 -0.047432
C14   C     C_R   0.936239 0.559011 0.614448 0.194394
C15   C     C_R   0.068366 0.557363 0.616135 0.193515
C16   C     C_3   0.861930 0.618476 0.721176 -0.927326
C17   C     C_3   0.142695 0.613681 0.727629 -0.903774
C18   C     C_3   0.669564 0.134038 0.672430 -0.867247
C19   C     C_3   0.326920 0.132767 0.331187 -0.889492
C20   C     C_R   0.578924 0.069916 0.579969 0.234523
C21   C     C_R   0.420241 0.069306 0.420874 0.244262
C22   C     C_R   0.577665 0.927020 0.579170 -0.100435
C23   C     C_R   0.421621 0.926403 0.421509 -0.098354
C24   C     C_R   0.496006 0.500008 0.260030 0.869793
C25   C     C_R   0.496993 0.500027 0.739839 0.853147
C26   C     C_R   0.473174 0.622119 0.063259 0.129533
H1    H     H_    0.448129 0.283321 0.111934 0.175228
H2    H     H_    0.359106 0.870230 0.358983 0.149502
H3    H     H_    0.808673 0.707760 0.687307 0.246838
H4    H     H_    0.794777 0.542048 0.756355 0.222377
H5    H     H_    0.920242 0.652085 0.802521 0.246699
H6    H     H_    0.245650 0.602410 0.720461 0.243247
H7    H     H_    0.122691 0.722875 0.738073 0.247472
H8    H     H_    0.116519 0.559165 0.814077 0.237087
H9    H     H_    0.670934 0.243913 0.670397 0.294062
H10   H     H_    0.645194 0.102783 0.768822 0.209655
H11   H     H_    0.766645 0.099385 0.653448 0.220539
H12   H     H_    0.448233 0.283302 0.884985 0.178079
H13   H     H_    0.329376 0.242635 0.329699 0.289999
H14   H     H_    0.345010 0.097241 0.234591 0.203832
H15   H     H_    0.230148 0.101752 0.356258 0.225240
H16   H     H_    0.653176 0.716746 0.891794 0.206389
H17   H     H_    0.511856 0.831099 0.112461 0.203105
H18   H     H_    0.512655 0.831021 0.888229 0.206577
H19   H     H_    0.652424 0.716728 0.116399 0.207312
H20   H     H_    0.110771 0.390812 0.336877 0.150653
H21   H     H_    0.882223 0.391201 0.335793 0.157473
H22   H     H_    0.639239 0.871417 0.642570 0.140681
N1    N     N_R   0.500000 0.857200 0.500000 -0.111889
N2    N     N_R   0.500000 0.142810 0.500000 -0.083598
O1    O     O_R   0.316770 0.614620 0.499990 -0.613468
O2    O     O_R   0.683230 0.614620 0.500010 -0.612142
O3    O     O_R   0.316800 0.385290 0.500000 -0.621878
O4    O     O_R   0.683200 0.385290 0.500000 -0.623093
O5    O     O_R   0.500000 0.614690 0.316780 -0.615604
O6    O     O_R   0.500000 0.614690 0.683220 -0.619628
O7    O     O_R   0.500020 0.385360 0.316780 -0.630067
O8    O     O_R   0.499980 0.385360 0.683220 -0.628748
Zn1   Zn    Zn3+2 0.500000 0.653120 0.500000 0.938156
Zn2   Zn    Zn3+2 0.500000 0.346880 0.500000 0.940067

loop_
_geom_bond_atom_site_label_1
_geom_bond_atom_site_label_2
_ccdc_geom_bond_type
C20   N2    A    
O6    Zn1   S    
C2    C4    A    
C11   C12   S    
C6    H12   S    
C23   H2    S    
O2    Zn1   S    
O5    Zn1   S    
C8    C26   S    
C18   H9    S    
C22   H22   S    
C2    C7    S    
N1    Zn1   S    
C25   O6    A    
C3    C5    A    
N2    Zn2   S    
C21   C23   A    
C4    C25   S    
C17   H8    S    
C7    C8    S    
C2    C26   A    
O4    Zn2   S    
C7    H18   S    
C24   O5    A    
C1    O1    A    
C18   H10   S    
C3    C24   S    
C17   H7    S    
C22   N1    A    
C19   H13   S    
C8    H17   S    
C21   N2    A    
C19   C21   S    
O3    Zn2   S    
C20   C22   A    
C18   C20   S    
C10   C11   A    
C13   C15   A    
C5    C6    A    
C11   C14   A    
C14   C16   S    
C23   N1    A    
O1    Zn1   S    
C19   H14   S    
O8    Zn2   S    
C19   H15   S    
C9    H20   S    
C1    C13   S    
C4    C6    A    
C25   O8    A    
C9    C10   A    
C7    H16   S    
C10   H21   S    
C15   C17   S    
C17   H6    S    
C9    C13   A    
C8    H19   S    
O7    Zn2   S    
C1    O3    A    
C12   O2    A    
C16   H3    S    
C5    H1    S    
C16   H4    S    
C18   H11   S    
C3    C26   A    
C12   O4    A    
C14   C15   A    
C24   O7    A    
C16   H5    S    
