data_mof_unit_28625.cif
_audit_creation_date              2012-12-10T17:15:47-0500
_audit_creation_method            fapswitch 2.2
_symmetry_space_group_name_H-M    P1
_symmetry_Int_Tables_number       1
_space_group_crystal_system       triclinic
_cell_length_a                    10.085273
_cell_length_b                    10.664887
_cell_length_c                    10.549981
_cell_angle_alpha                 90.544341
_cell_angle_beta                  95.951832
_cell_angle_gamma                 82.145863
_cell_volume                      1118.02112935

loop_
_atom_site_label
_atom_site_type_symbol
_atom_type_description
_atom_site_fract_x
_atom_site_fract_y
_atom_site_fract_z
_atom_type_partial_charge
C1    C     C_R   0.443632 0.514593 0.265378 0.929787
C2    C     C_2   0.501634 0.590237 0.933269 -0.218482
C3    C     C_2   0.079351 0.477192 0.492392 0.159660
C4    C     C_R   0.506405 0.261611 0.522801 0.914253
C5    C     C_2   0.941580 0.468903 0.531388 0.531633
C6    C     C_R   0.556374 0.494708 0.735264 0.821278
C7    C     C_R   0.504435 0.740427 0.512418 0.931114
C8    C     C_R   0.774669 0.090823 0.560977 0.182776
C9    C     C_R   0.882971 0.007820 0.523207 -0.336707
C10   C     C_R   0.881134 0.879169 0.534465 0.565359
C11   C     C_R   0.767601 0.836882 0.576519 0.158504
C12   C     C_R   0.645951 0.048527 0.560332 0.014070
C13   C     C_R   0.642736 0.917356 0.558968 -0.124230
C14   C     C_3   0.227040 0.103655 0.748521 -0.699018
C15   C     C_3   0.107094 0.271176 0.385720 -0.771523
C16   C     C_3   0.845492 0.166116 0.766904 -0.795715
C17   C     C_3   0.739668 0.767987 0.789001 -0.770561
C18   C     C_3   0.813674 0.456024 0.978248 -0.777085
C19   C     C_R   0.522103 0.129930 0.566474 -0.272781
C20   C     C_R   0.409699 0.080297 0.604581 0.084706
C21   C     C_R   0.401978 0.952450 0.579906 0.593733
C22   C     C_R   0.516540 0.871810 0.548827 -0.282713
C23   C     C_2   0.413010 0.545180 0.130374 -0.361559
C24   C     C_2   0.508249 0.589447 0.070970 -0.109219
C25   C     C_2   0.586986 0.508094 0.872868 0.069270
F1    F     F_    0.923022 0.475292 0.656805 -0.705854
F2    F     F_    0.997604 0.800060 0.529920 -0.672804
F3    F     F_    0.282782 0.907580 0.583141 -0.635315
H1    H     H_    0.318197 0.527391 0.079364 0.155781
H2    H     H_    0.148353 0.057493 0.692605 0.291751
H3    H     H_    0.105446 0.448689 0.301490 0.215059
H4    H     H_    0.190203 0.215789 0.339643 0.259242
H5    H     H_    0.010391 0.258662 0.329755 0.204761
H6    H     H_    0.107998 0.233156 0.483431 0.260575
H7    H     H_    0.879282 0.240720 0.596508 0.255972
H8    H     H_    0.758873 0.137538 0.811130 0.232753
H9    H     H_    0.880406 0.249078 0.817124 0.266167
H10   H     H_    0.929981 0.087122 0.777835 0.232508
H11   H     H_    0.885054 0.691470 0.678407 0.293580
H12   H     H_    0.861803 0.447285 0.354870 0.119177
H13   H     H_    0.628139 0.785454 0.781074 0.231525
H14   H     H_    0.781616 0.853186 0.828246 0.228939
H15   H     H_    0.773248 0.689126 0.856977 0.248515
H16   H     H_    0.687061 0.327962 0.905815 0.221179
H17   H     H_    0.877289 0.381186 0.038083 0.229392
H18   H     H_    0.804583 0.544617 0.034499 0.231869
H19   H     H_    0.863888 0.470177 0.891780 0.290544
H20   H     H_    0.123424 0.598510 0.629751 0.219255
H21   H     H_    0.977881 0.041286 0.512696 0.196371
H22   H     H_    0.418561 0.650450 0.880945 0.169716
H23   H     H_    0.602250 0.607643 0.123208 0.184601
H24   H     H_    0.339999 0.240290 0.705064 0.240657
H25   H     H_    0.173750 0.178709 0.805814 0.212893
H26   H     H_    0.291709 0.035155 0.814970 0.239239
N1    N     N_2   0.157290 0.551390 0.551110 -0.147152
N2    N     N_2   0.842740 0.448550 0.448960 -0.228365
N3    N     N_2   0.307442 0.160126 0.664395 -0.284010
N4    N     N_2   0.126172 0.403425 0.388623 -0.265414
N5    N     N_2   0.806920 0.197147 0.633822 -0.233712
N6    N     N_2   0.787207 0.735089 0.666273 -0.232956
N7    N     N_2   0.682897 0.417491 0.943187 -0.286498
O1    O     O_R   0.568950 0.489660 0.307530 -0.609536
O2    O     O_R   0.348880 0.522640 0.340350 -0.591893
O3    O     O_R   0.610060 0.300270 0.483590 -0.593643
O4    O     O_R   0.389990 0.333260 0.516410 -0.590814
O5    O     O_R   0.651120 0.477360 0.659650 -0.517305
O6    O     O_R   0.431050 0.510340 0.692470 -0.645439
O7    O     O_R   0.610010 0.666740 0.483590 -0.605829
O8    O     O_R   0.389940 0.699730 0.516410 -0.523237
Zn1   Zn    Zn3+2 0.646940 0.477980 0.478090 0.989190
Zn2   Zn    Zn3+2 0.353060 0.522020 0.521910 1.012013

loop_
_geom_bond_atom_site_label_1
_geom_bond_atom_site_label_2
_ccdc_geom_bond_type
C10   F2    S    
C7    O8    A    
H20   N1    S    
C23   C24   D    
C17   H15   S    
C18   N7    S    
N1    Zn2   S    
O3    Zn1   S    
H16   N7    S    
C7    C22   S    
C9    C10   A    
C4    O3    A    
C15   H6    S    
N2    Zn1   S    
C19   C20   A    
C16   H9    S    
C8    C12   A    
C1    O1    A    
C20   C21   A    
C24   H23   S    
C20   N3    S    
C15   H4    S    
C25   N7    S    
C21   C22   A    
C18   H19   S    
C11   C13   A    
O1    Zn1   S    
O5    Zn1   S    
C14   H2    S    
H11   N6    S    
C23   H1    S    
H3    N4    S    
O7    Zn1   S    
C6    O6    A    
C14   H26   S    
C21   F3    S    
O2    Zn2   S    
C13   C22   A    
C1    C23   S    
C2    C25   D    
O6    Zn2   S    
C8    N5    S    
C2    C24   S    
C4    O4    A    
C15   N4    S    
C17   H13   S    
C6    C25   S    
H24   N3    S    
C17   N6    S    
C11   N6    S    
C3    N4    S    
C18   H18   S    
C6    O5    A    
C14   H25   S    
C9    H21   S    
C12   C13   A    
C12   C19   A    
H7    N5    S    
C18   H17   S    
C10   C11   A    
O8    Zn2   S    
C14   N3    S    
C17   H14   S    
C1    O2    A    
C2    H22   S    
C3    C5    S    
C7    O7    A    
O4    Zn2   S    
C4    C19   S    
C3    N1    D    
C5    N2    D    
C15   H5    S    
C16   H8    S    
C5    F1    S    
C16   H10   S    
C8    C9    A    
H12   N2    S    
C16   N5    S    
