data_mof_unit_49565.cif
_audit_creation_date              2012-12-10T17:36:50-0500
_audit_creation_method            fapswitch 2.2
_symmetry_space_group_name_H-M    P1
_symmetry_Int_Tables_number       1
_space_group_crystal_system       triclinic
_cell_length_a                    10.59888
_cell_length_b                    12.396862
_cell_length_c                    13.135865
_cell_angle_alpha                 116.892764
_cell_angle_beta                  75.930282
_cell_angle_gamma                 100.34337
_cell_volume                      1488.28799562

loop_
_atom_site_label
_atom_site_type_symbol
_atom_type_description
_atom_site_fract_x
_atom_site_fract_y
_atom_site_fract_z
_atom_type_partial_charge
C1    C     C_R   0.510141 0.855177 0.286352 0.827840
C2    C     C_3   0.008444 0.946756 0.570088 -0.296382
C3    C     C_3   0.948289 0.880862 0.458356 -0.288800
C4    C     C_3   0.876288 0.994722 0.496766 -0.088255
C5    C     C_R   0.388892 0.274623 0.043740 0.359843
C6    C     C_R   0.470276 0.226015 0.839177 -0.218095
C7    C     C_R   0.576163 0.813851 0.078297 -0.308418
C8    C     C_R   0.601008 0.732978 0.960562 0.468211
C9    C     C_R   0.572990 0.608704 0.928402 -0.241190
C10   C     C_R   0.508724 0.563271 0.010858 0.040510
C11   C     C_R   0.467462 0.648008 0.126725 0.072964
C12   C     C_R   0.740173 0.997216 0.497100 0.833351
C13   C     C_R   0.481490 0.436842 0.982319 0.019818
C14   C     C_R   0.413997 0.398579 0.069435 -0.004063
C15   C     C_R   0.364425 0.484306 0.179397 -0.190092
C16   C     C_R   0.382556 0.605997 0.204372 -0.167317
C17   C     C_R   0.519064 0.347039 0.870120 -0.296125
C18   C     C_R   0.403612 0.188891 0.926929 0.358271
C19   C     C_R   0.512887 0.772280 0.162281 -0.143157
C20   C     C_R   0.700873 0.336486 0.315416 -0.394136
C21   C     C_R   0.301590 0.747970 0.618653 0.014513
C22   C     C_R   0.237218 0.637092 0.610044 0.382140
C23   C     C_R   0.484900 0.144424 0.714267 0.843342
C24   C     C_R   0.307599 0.533633 0.548714 -0.342603
C25   C     C_R   0.443747 0.543737 0.514757 -0.002879
C26   C     C_R   0.495767 0.652597 0.503608 0.251311
C27   C     C_R   0.522188 0.442249 0.466366 -0.080848
C28   C     C_R   0.631547 0.439627 0.378930 0.083065
C29   C     C_R   0.672519 0.541219 0.355829 -0.211148
C30   C     C_R   0.609591 0.647465 0.420774 -0.169268
C31   C     C_R   0.504077 0.347064 0.504030 0.492759
C32   C     C_R   0.669525 0.237038 0.343952 0.625093
C33   C     C_R   0.259296 0.002327 0.503039 0.806228
C34   C     C_3   0.989111 0.049817 0.431623 -0.292737
C35   C     C_3   0.062055 0.937405 0.394892 0.517136
C36   C     C_3   0.121579 0.002683 0.504624 -0.082088
C37   C     C_3   0.048069 0.115645 0.543553 -0.285781
C38   C     C_3   0.934931 0.058733 0.606344 0.520664
Cu1   Cu    Cu3+1 0.529830 0.098270 0.475420 1.010879
Cu2   Cu    Cu3+1 0.470170 0.901730 0.524580 0.922214
H1    H     H_    0.610955 0.908382 0.104626 0.195903
H2    H     H_    0.601036 0.550855 0.837444 0.172678
H3    H     H_    0.327260 0.666131 0.285313 0.191733
H4    H     H_    0.777536 0.334950 0.243510 0.159770
H5    H     H_    0.245996 0.826177 0.657650 0.156221
H6    H     H_    0.019118 0.907255 0.628125 0.155933
H7    H     H_    0.304879 0.457842 0.245100 0.157676
N1    N     N_R   0.575030 0.246270 0.438190 -0.248391
N2    N     N_R   0.425760 0.754330 0.561190 -0.243457
O1    O     O_R   0.537510 0.972500 0.318130 -0.529877
O2    O     O_R   0.487140 0.806530 0.359650 -0.608842
O3    O     O_R   0.708330 0.082950 0.479220 -0.549813
O4    O     O_R   0.657960 0.916980 0.520740 -0.610852
O5    O     O_R   0.512860 0.193470 0.640350 -0.519342
O6    O     O_R   0.462490 0.027500 0.681870 -0.568801
O7    O     O_R   0.342040 0.083020 0.479260 -0.581702
O8    O     O_R   0.291670 0.917050 0.520780 -0.604305
O9    O     O_3   0.139807 0.875265 0.285219 -0.591349
C39   C     C_3   0.059070 0.809947 0.201915 0.060675
H8    H     H_    0.000128 0.871809 0.195633 0.130010
H9    H     H_    0.992674 0.739887 0.223618 0.136243
C40   C     C_3   0.143673 0.744865 0.083634 -0.796604
H10   H     H_    0.201579 0.680444 0.086743 0.252725
H11   H     H_    0.080832 0.693464 0.017458 0.196941
H12   H     H_    0.211306 0.811307 0.057754 0.245216
H13   H     H_    0.578652 0.369946 0.802638 0.210803
O10   O     O_3   0.668822 0.770666 0.876332 -0.601323
C41   C     C_3   0.602272 0.858581 0.874379 0.038919
H14   H     H_    0.616068 0.947969 0.948741 0.164317
H15   H     H_    0.495839 0.830919 0.876326 0.159134
C42   C     C_3   0.658932 0.873279 0.762946 -0.657065
H16   H     H_    0.639808 0.787537 0.686820 0.237335
H17   H     H_    0.613780 0.947441 0.763101 0.251262
H18   H     H_    0.765945 0.895579 0.755567 0.233957
O11   O     O_3   0.726242 0.126707 0.278837 -0.554408
C43   C     C_3   0.852488 0.133309 0.213295 0.037315
H19   H     H_    0.907689 0.063938 0.210720 0.152196
H20   H     H_    0.910325 0.221236 0.253463 0.113899
C44   C     C_3   0.845550 0.100416 0.087756 -0.878435
H21   H     H_    0.769753 0.148585 0.083471 0.261396
H22   H     H_    0.941458 0.125120 0.043326 0.207671
H23   H     H_    0.821887 0.001271 0.041012 0.257946
H24   H     H_    0.756599 0.539889 0.289035 0.136762
O12   O     O_3   0.455830 0.371552 0.620677 -0.557848
C45   C     C_3   0.318440 0.367276 0.649158 0.101407
H25   H     H_    0.290830 0.461344 0.692394 0.147456
H26   H     H_    0.272196 0.308738 0.572649 0.122477
C46   C     C_3   0.262554 0.323439 0.743154 -0.836290
H27   H     H_    0.157369 0.339347 0.772662 0.183427
H28   H     H_    0.270673 0.225180 0.710119 0.222211
H29   H     H_    0.309694 0.376951 0.819593 0.259234
H30   H     H_    0.977672 0.092074 0.376454 0.143400
H31   H     H_    0.254218 0.445818 0.521419 0.130532
O13   O     O_3   0.102858 0.630623 0.645617 -0.578313
C47   C     C_3   0.066323 0.573624 0.721529 0.024087
H32   H     H_    0.130558 0.608054 0.787512 0.129793
H33   H     H_    0.068586 0.473584 0.671432 0.143791
C48   C     C_3   0.927510 0.600797 0.786484 -0.709468
H34   H     H_    0.922430 0.700142 0.839363 0.263569
H35   H     H_    0.859740 0.567720 0.724010 0.265108
H36   H     H_    0.896719 0.554757 0.845107 0.183317
H37   H     H_    0.647127 0.720194 0.396797 0.189561
H38   H     H_    0.080759 0.212932 0.582602 0.145549
O14   O     O_3   0.857341 0.124033 0.714941 -0.587518
C49   C     C_3   0.924540 0.151674 0.805348 0.039628
H39   H     H_    0.031677 0.169683 0.781379 0.119633
H40   H     H_    0.907309 0.074873 0.830033 0.153296
C50   C     C_3   0.872747 0.264268 0.910151 -0.786682
H41   H     H_    0.766898 0.247214 0.940291 0.260627
H42   H     H_    0.925643 0.288338 0.981838 0.190954
H43   H     H_    0.887480 0.341732 0.886579 0.244406
H44   H     H_    0.903926 0.786016 0.423826 0.146250
O15   O     O_3   0.353077 0.070302 0.900906 -0.555960
C51   C     C_3   0.226648 0.054997 0.875074 0.065122
H45   H     H_    0.233943 0.033533 0.782352 0.145448
H46   H     H_    0.170949 0.137262 0.926559 0.087133
C52   C     C_3   0.147165 0.950285 0.898192 -0.826141
H47   H     H_    0.115599 0.977914 0.992772 0.239403
H48   H     H_    0.058775 0.923090 0.858142 0.212179
H49   H     H_    0.205991 0.871061 0.861488 0.254257
O16   O     O_3   0.377255 0.237627 0.130915 -0.562901
C53   C     C_3   0.246078 0.207342 0.171429 0.050830
H50   H     H_    0.177905 0.192512 0.113319 0.122427
H51   H     H_    0.210726 0.281561 0.256905 0.130677
C54   C     C_3   0.240641 0.093522 0.189105 -0.687574
H52   H     H_    0.289973 0.113267 0.261962 0.252405
H53   H     H_    0.137808 0.060551 0.209163 0.176272
H54   H     H_    0.290299 0.021501 0.108934 0.265985

loop_
_geom_bond_atom_site_label_1
_geom_bond_atom_site_label_2
_ccdc_geom_bond_type
C52   H47   S    
C34   C37   S    
C22   O13   S    
C35   C36   S    
C43   C44   S    
C15   H7    S    
C32   O11   S    
C21   N2    A    
C51   H45   S    
C47   C48   S    
C7    C8    A    
C45   H25   S    
C2    H6    S    
C49   H40   S    
C11   C19   A    
C17   H13   S    
C40   H10   S    
C35   O9    S    
C28   C29   A    
C43   H20   S    
C29   H24   S    
C52   H48   S    
Cu1   O5    S    
C15   C16   A    
C48   H34   S    
C5    O16   S    
C33   C36   S    
C50   H41   S    
C34   C35   S    
C38   O14   S    
C12   O3    A    
O12   C45   S    
C47   H32   S    
C41   H14   S    
C54   H54   S    
C40   H11   S    
C4    C12   S    
C29   C30   A    
C1    O1    A    
C12   O4    A    
C33   O7    A    
Cu1   O3    S    
C39   H8    S    
C21   C22   A    
C32   N1    A    
C9    H2    S    
C18   O15   S    
O14   C49   S    
C20   H4    S    
C21   H5    S    
C45   H26   S    
C6    C18   A    
C49   C50   S    
C4    C34   S    
C39   H9    S    
C1    C19   S    
C27   C31   A    
O10   C41   S    
C43   H19   S    
C26   N2    A    
Cu1   Cu2   S    
C37   H38   S    
C8    C9    A    
C5    C18   A    
C20   C28   A    
O9    C39   S    
C31   O12   S    
O11   C43   S    
C37   C38   S    
C44   H23   S    
C11   C16   A    
C2    C38   S    
Cu1   O7    S    
C46   H29   S    
C3    C35   S    
C3    H44   S    
Cu2   O6    S    
C30   H37   S    
O16   C53   S    
C24   C25   A    
C1    O2    A    
C16   H3    S    
C5    C14   A    
C46   H28   S    
C26   C30   A    
C7    C19   A    
C31   N1    A    
C54   H52   S    
C22   C24   A    
C52   H49   S    
C53   H51   S    
C3    C4    S    
C48   H36   S    
C23   O5    A    
C42   H17   S    
O15   C51   S    
C20   C32   A    
C45   C46   S    
C2    C36   S    
C6    C17   A    
C36   C37   S    
C39   C40   S    
C33   O8    A    
Cu2   O8    S    
C40   H12   S    
C4    C38   S    
C10   C13   A    
C42   H18   S    
C51   H46   S    
C47   H33   S    
C23   O6    A    
C25   C27   A    
Cu2   O2    S    
C49   H39   S    
C48   H35   S    
C50   H43   S    
C13   C17   A    
C53   C54   S    
C2    C3    S    
C25   C26   A    
C42   H16   S    
C24   H31   S    
C41   C42   S    
C6    C23   S    
C50   H42   S    
C9    C10   A    
C7    H1    S    
C44   H22   S    
O13   C47   S    
C34   H30   S    
C51   C52   S    
C10   C11   A    
C44   H21   S    
Cu1   O1    S    
C46   H27   S    
C8    O10   S    
C41   H15   S    
Cu2   O4    S    
C27   C28   A    
C54   H53   S    
C14   C15   A    
C53   H50   S    
C13   C14   A    
Cu2   N2    S    
Cu1   N1    S    
