data_mof_unit_24046.cif
_audit_creation_date              2012-12-10T20:52:12-0500
_audit_creation_method            fapswitch 2.2
_symmetry_space_group_name_H-M    P1
_symmetry_Int_Tables_number       1
_space_group_crystal_system       triclinic
_cell_length_a                    10.882229
_cell_length_b                    8.890633
_cell_length_c                    8.324632
_cell_angle_alpha                 90.008948
_cell_angle_beta                  94.044005
_cell_angle_gamma                 89.988082
_cell_volume                      803.402004889

loop_
_atom_site_label
_atom_site_type_symbol
_atom_type_description
_atom_site_fract_x
_atom_site_fract_y
_atom_site_fract_z
_atom_type_partial_charge
C1    C     C_R   0.499936 0.218986 0.499960 0.933152
C2    C     C_R   0.740343 0.496956 0.504941 0.862329
C3    C     C_R   0.205842 0.533415 0.006691 0.209156
C4    C     C_R   0.794156 0.466584 0.993317 0.209152
C5    C     C_R   0.126583 0.543743 0.128397 -0.115645
C6    C     C_R   0.873418 0.456257 0.871613 -0.115643
C7    C     C_R   0.093557 0.414662 0.209215 0.051576
C8    C     C_R   0.906441 0.585338 0.790792 0.051580
C9    C     C_R   0.118023 0.271702 0.150603 -0.186490
C10   C     C_R   0.881971 0.728297 0.849397 -0.186492
C11   C     C_R   0.187680 0.258306 0.017043 0.198650
C12   C     C_R   0.500064 0.781014 0.500040 0.933160
C13   C     C_R   0.812308 0.741695 0.982949 0.198641
C14   C     C_R   0.235891 0.388761 0.950130 -0.088638
C15   C     C_R   0.764101 0.611240 0.049869 -0.088629
C16   C     C_R   0.927095 0.423381 0.383953 -0.252910
C17   C     C_R   0.072903 0.576613 0.616054 -0.252909
C18   C     C_3   0.265459 0.678451 0.959512 -0.918160
C19   C     C_3   0.734534 0.321546 0.040483 -0.918180
C20   C     C_3   0.217987 0.105001 0.955463 -0.942906
C21   C     C_3   0.781987 0.895003 0.044509 -0.942839
C22   C     C_R   0.873885 0.491286 0.511622 -0.088151
C23   C     C_R   0.126114 0.508704 0.488383 -0.088155
C24   C     C_R   0.948815 0.563249 0.632232 0.024304
C25   C     C_R   0.051183 0.436748 0.367775 0.024301
C26   C     C_1   0.499974 0.065492 0.499971 -0.204714
C27   C     C_1   0.500026 0.934508 0.500029 -0.204718
C28   C     C_R   0.259657 0.503037 0.495059 0.862331
H1    H     H_    0.104833 0.653586 0.176058 0.140792
H2    H     H_    0.678377 0.332465 0.144471 0.283404
H3    H     H_    0.674777 0.278348 0.937033 0.258184
H4    H     H_    0.806285 0.235195 0.070181 0.218389
H5    H     H_    0.089201 0.172358 0.213383 0.139301
H6    H     H_    0.910794 0.827640 0.786614 0.139300
H7    H     H_    0.275255 0.111608 0.850373 0.248757
H8    H     H_    0.269362 0.039903 0.052263 0.255593
H9    H     H_    0.131384 0.044665 0.917681 0.235928
H10   H     H_    0.724707 0.888401 0.149592 0.248751
H11   H     H_    0.868592 0.955350 0.082298 0.235914
H12   H     H_    0.895171 0.346414 0.823957 0.140796
H13   H     H_    0.730614 0.960093 0.947691 0.255584
H14   H     H_    0.871429 0.364657 0.293658 0.178333
H15   H     H_    0.128573 0.635335 0.706346 0.178340
H16   H     H_    0.301849 0.372404 0.863331 0.191804
H17   H     H_    0.698135 0.627600 0.136662 0.191802
H18   H     H_    0.321662 0.667514 0.855571 0.283419
H19   H     H_    0.193705 0.764784 0.929742 0.218383
H20   H     H_    0.325167 0.721692 0.062994 0.258157
N1    N     N_1   0.500020 0.500030 0.073640 -0.067108
N2    N     N_1   0.499980 0.499970 0.926360 -0.067136
O1    O     O_R   0.499990 0.285340 0.636850 -0.628587
O2    O     O_R   0.500010 0.714660 0.363150 -0.628585
O3    O     O_R   0.500010 0.285350 0.363100 -0.614458
O4    O     O_R   0.499990 0.714650 0.636900 -0.614459
O5    O     O_R   0.316750 0.500000 0.636870 -0.661880
O6    O     O_R   0.683250 0.500000 0.363130 -0.661883
O7    O     O_R   0.316770 0.500020 0.363120 -0.603119
O8    O     O_R   0.683230 0.499980 0.636880 -0.603116
Zn1   Zn    Zn3+2 0.499990 0.499990 0.682780 0.943119
Zn2   Zn    Zn3+2 0.500010 0.500010 0.317220 0.943125

loop_
_geom_bond_atom_site_label_1
_geom_bond_atom_site_label_2
_ccdc_geom_bond_type
C2    C22   S    
C6    C8    A    
C17   H15   S    
C21   H11   S    
O5    Zn1   S    
C4    C19   S    
C5    C7    A    
C6    H12   S    
C7    C25   S    
C19   H3    S    
C18   H19   S    
C4    C15   A    
C2    O8    A    
C13   C21   S    
C10   H6    S    
C2    O6    A    
C23   C28   S    
C9    H5    S    
C20   H9    S    
C9    C11   A    
C26   C27   T    
C17   C23   A    
C3    C14   A    
C21   H13   S    
N2    Zn1   S    
C18   H18   S    
N1    Zn2   S    
C8    C10   A    
C12   O2    A    
O3    Zn2   S    
C20   H7    S    
N1    N2    T    
C5    H1    S    
O4    Zn1   S    
C13   C15   A    
C1    C26   S    
C11   C14   A    
C22   C24   A    
C11   C20   S    
C17   C24   A    
O1    Zn1   S    
C15   H17   S    
C12   C27   S    
C20   H8    S    
C16   H14   S    
C23   C25   A    
C3    C18   S    
C14   H16   S    
C4    C6    A    
C16   C25   A    
C7    C9    A    
C1    O3    A    
O7    Zn2   S    
C16   C22   A    
C1    O1    A    
O2    Zn2   S    
C8    C24   S    
O8    Zn1   S    
C28   O7    A    
C19   H2    S    
C19   H4    S    
C28   O5    A    
C12   O4    A    
C21   H10   S    
O6    Zn2   S    
C3    C5    A    
C10   C13   A    
C18   H20   S    
