data_mof_unit_27472.cif
_audit_creation_date              2012-12-11T16:24:05-0500
_audit_creation_method            fapswitch 2.2
_symmetry_space_group_name_H-M    P1
_symmetry_Int_Tables_number       1
_space_group_crystal_system       triclinic
_cell_length_a                    14.748804
_cell_length_b                    14.757843
_cell_length_c                    33.277793
_cell_angle_alpha                 95.976208
_cell_angle_beta                  96.112076
_cell_angle_gamma                 61.222476
_cell_volume                      6300.97722441

loop_
_atom_site_label
_atom_site_type_symbol
_atom_type_description
_atom_site_fract_x
_atom_site_fract_y
_atom_site_fract_z
_atom_type_partial_charge
C1    C     C_R   0.391174 0.699333 0.446018 0.546578
C2    C     C_1   0.322487 0.337982 0.228804 -0.007355
C3    C     C_1   0.210773 0.764336 0.142939 0.223207
C4    C     C_2   0.514806 0.236407 0.846311 0.240344
C5    C     C_2   0.857715 0.474867 0.606230 0.234381
C6    C     C_1   0.183643 0.838354 0.592726 0.217213
C7    C     C_1   0.328419 0.342317 0.265112 -0.004103
C8    C     C_R   0.406083 0.386362 0.433982 0.544301
C9    C     C_R   0.290604 0.296513 0.101429 -0.026043
C10   C     C_R   0.751033 0.374689 0.408808 0.008989
C11   C     C_R   0.775784 0.439377 0.389695 -0.132437
C12   C     C_R   0.797598 0.419237 0.349087 -0.128960
C13   C     C_R   0.795016 0.334210 0.326667 0.021743
C14   C     C_R   0.778587 0.263941 0.346802 -0.015008
C15   C     C_R   0.757687 0.284390 0.387678 -0.132173
C16   C     C_R   0.337061 0.346982 0.308355 0.039029
C17   C     C_R   0.813350 0.314805 0.201049 0.350790
C18   C     C_R   0.802121 0.326238 0.282384 0.341518
C19   C     C_R   0.822635 0.392722 0.139705 -0.119032
C20   C     C_R   0.700140 0.410207 0.447307 0.546344
C21   C     C_R   0.859185 0.380460 0.101574 -0.132266
C22   C     C_R   0.902250 0.199337 0.097215 -0.119713
C23   C     C_R   0.866234 0.211461 0.135470 -0.094697
C24   C     C_R   0.830560 0.307125 0.157793 0.036130
C25   C     C_R   0.903546 0.282604 0.080826 0.017696
C26   C     C_R   0.372102 0.752892 0.408664 0.021691
C27   C     C_R   0.416989 0.264102 0.328538 -0.102173
C28   C     C_R   0.277105 0.785384 0.385892 -0.127221
C29   C     C_R   0.267262 0.812058 0.346134 -0.116053
C30   C     C_R   0.352322 0.806489 0.328462 0.034198
C31   C     C_R   0.444301 0.783042 0.352428 -0.116837
C32   C     C_R   0.393231 0.701841 0.561163 0.541918
C33   C     C_R   0.454054 0.756654 0.392243 -0.128624
C34   C     C_R   0.343154 0.820725 0.203086 0.343298
C35   C     C_R   0.347871 0.816147 0.284585 0.343157
C36   C     C_R   0.265877 0.815692 0.131825 -0.012548
C37   C     C_R   0.246354 0.850335 0.092746 -0.131645
C38   C     C_R   0.434239 0.273517 0.370384 -0.120972
C39   C     C_R   0.376175 0.907328 0.106217 -0.131611
C40   C     C_R   0.395574 0.873744 0.145277 -0.128145
C41   C     C_R   0.336950 0.832964 0.159277 0.019950
C42   C     C_R   0.297592 0.900872 0.080425 0.005544
C43   C     C_R   0.372454 0.370513 0.585844 0.017874
C44   C     C_R   0.407550 0.389084 0.549207 0.542075
C45   C     C_R   0.288459 0.451771 0.605401 -0.121896
C46   C     C_R   0.270568 0.443347 0.644794 -0.107143
C47   C     C_R   0.336000 0.353343 0.665216 0.032547
C48   C     C_R   0.414120 0.268744 0.644314 -0.121704
C49   C     C_R   0.402243 0.287606 0.162432 0.012783
C50   C     C_R   0.432305 0.277323 0.604999 -0.133446
C51   C     C_R   0.327124 0.349614 0.790281 0.319089
C52   C     C_R   0.328878 0.350766 0.708912 0.345848
C53   C     C_R   0.221738 0.397511 0.849321 -0.127391
C54   C     C_R   0.206902 0.377193 0.887275 -0.136041
C55   C     C_R   0.390696 0.259789 0.896878 -0.091290
C56   C     C_R   0.702107 0.413009 0.562521 0.520140
C57   C     C_R   0.407177 0.281064 0.858951 0.014086
C58   C     C_R   0.320294 0.345692 0.833860 -0.002575
C59   C     C_R   0.290378 0.304080 0.910385 -0.008173
C60   C     C_R   0.391007 0.270225 0.119771 -0.008055
C61   C     C_R   0.752189 0.379658 0.603215 -0.019109
C62   C     C_R   0.815037 0.418528 0.625590 0.004752
C63   C     C_R   0.839397 0.400826 0.667136 -0.073721
C64   C     C_R   0.804418 0.343758 0.685835 0.008007
C65   C     C_R   0.748925 0.299908 0.663188 -0.117071
C66   C     C_R   0.723251 0.317380 0.622347 -0.130376
C67   C     C_R   0.884769 0.216431 0.822876 -0.102179
C68   C     C_R   0.371918 0.366435 0.392344 0.018627
C69   C     C_R   0.913371 0.203267 0.864094 -0.113045
C70   C     C_R   0.868273 0.384892 0.874615 -0.124805
C71   C     C_R   0.203964 0.346658 0.124920 -0.129855
C72   C     C_R   0.839637 0.397815 0.833460 -0.111542
C73   C     C_R   0.850875 0.312966 0.807408 0.037688
C74   C     C_1   0.834488 0.323576 0.764571 -0.017912
C75   C     C_1   0.821826 0.332654 0.728645 -0.021108
C76   C     C_R   0.908918 0.286632 0.890099 0.021418
C77   C     C_R   0.377257 0.754565 0.602198 0.002604
C78   C     C_R   0.278030 0.810266 0.618009 -0.018389
C79   C     C_R   0.269917 0.838065 0.659539 -0.110830
C80   C     C_R   0.287221 0.446597 0.372055 -0.124507
C81   C     C_R   0.359070 0.811825 0.685338 0.025609
C82   C     C_R   0.215775 0.363015 0.166393 -0.120009
C83   C     C_R   0.456466 0.763403 0.669555 -0.112326
C84   C     C_R   0.465550 0.735471 0.628310 -0.135497
C85   C     C_R   0.396775 0.883648 0.832749 -0.106540
C86   C     C_R   0.376982 0.911618 0.873529 -0.122071
C87   C     C_R   0.228822 0.880294 0.863215 -0.125211
C88   C     C_R   0.248898 0.852257 0.822485 -0.109749
C89   C     C_R   0.331070 0.856708 0.807016 0.037193
C90   C     C_1   0.343259 0.840563 0.764293 -0.016127
C91   C     C_1   0.351023 0.828314 0.728302 -0.014055
C92   C     C_R   0.270179 0.436909 0.330170 -0.108010
C93   C     C_R   0.314137 0.330796 0.185378 0.001441
C94   C     C_R   0.290694 0.913512 0.888868 0.017187
C95   C     C_R   0.963059 0.264317 0.045387 0.545094
C96   C     C_R   0.273172 0.260335 0.059693 0.520988
C97   C     C_R   0.259278 0.959443 0.043701 0.546179
C98   C     C_R   0.962326 0.267859 0.930841 0.544355
C99   C     C_R   0.270888 0.264097 0.945382 0.540095
C100  C     C_R   0.256205 0.964941 0.928994 0.541665
C101  C     C_2   0.481050 0.227930 0.093938 0.245069
C102  C     C_1   0.773453 0.175443 0.325983 0.222436
C103  C     C_1   0.502506 0.262674 0.182980 0.274979
Cr1   Cr    Cr6+3 0.576280 0.580550 0.506370 1.023138
Cr2   Cr    Cr6+3 0.346780 0.572400 0.496520 1.039200
Cr3   Cr    Cr6+3 0.576960 0.347070 0.497150 1.022927
Cr4   Cr    Cr6+3 0.087320 0.083240 0.984860 1.030250
Cr5   Cr    Cr6+3 0.087720 0.316210 0.996740 1.023199
Cr6   Cr    Cr6+3 0.317350 0.090340 0.995890 1.033402
H1    H     H_    0.739374 0.233208 0.402181 0.133924
H2    H     H_    0.194686 0.831570 0.328657 0.146475
H3    H     H_    0.510703 0.779687 0.339866 0.140700
H4    H     H_    0.417626 0.945138 0.097349 0.150477
H5    H     H_    0.451523 0.886639 0.165420 0.149266
H6    H     H_    0.240550 0.524462 0.591345 0.144947
H7    H     H_    0.497132 0.213101 0.590584 0.134413
H8    H     H_    0.128724 0.413015 0.897111 0.139466
H9    H     H_    0.208649 0.509276 0.659864 0.150298
H10   H     H_    0.465061 0.197743 0.659019 0.139480
H11   H     H_    0.468772 0.194044 0.311753 0.135208
H12   H     H_    0.857953 0.446322 0.089384 0.137772
H13   H     H_    0.154465 0.448156 0.830820 0.141878
H14   H     H_    0.455774 0.206287 0.915501 0.175756
H15   H     H_    0.944870 0.126572 0.875038 0.136571
H16   H     H_    0.893326 0.150405 0.802842 0.120507
H17   H     H_    0.722170 0.255066 0.677437 0.125087
H18   H     H_    0.675275 0.286446 0.606311 0.145529
H19   H     H_    0.812939 0.472939 0.821705 0.117418
H20   H     H_    0.863774 0.450601 0.893868 0.132278
H21   H     H_    0.500051 0.210427 0.385115 0.137418
H22   H     H_    0.884969 0.431973 0.685106 0.164507
H23   H     H_    0.812144 0.473170 0.334723 0.140756
H24   H     H_    0.425915 0.937073 0.892434 0.140309
H25   H     H_    0.460746 0.887027 0.820978 0.127031
H26   H     H_    0.525833 0.743289 0.689375 0.127386
H27   H     H_    0.542693 0.692942 0.617387 0.150363
H28   H     H_    0.197846 0.831140 0.802723 0.121272
H29   H     H_    0.161774 0.881028 0.874050 0.134128
H30   H     H_    0.194311 0.877261 0.671994 0.120130
H31   H     H_    0.238058 0.519171 0.388081 0.132974
H32   H     H_    0.147912 0.397205 0.183977 0.131748
H33   H     H_    0.126650 0.367484 0.111599 0.147584
H34   H     H_    0.794190 0.467846 0.155930 0.144567
H35   H     H_    0.207819 0.501218 0.314637 0.123632
H36   H     H_    0.771953 0.509173 0.405317 0.135984
H37   H     H_    0.468320 0.243085 0.062061 0.120995
H38   H     H_    0.530687 0.264015 0.820347 0.132809
H39   H     H_    0.856542 0.473302 0.573553 0.132617
H40   H     H_    0.935168 0.123140 0.081714 0.141869
H41   H     H_    0.871623 0.144499 0.148373 0.159761
H42   H     H_    0.212272 0.784182 0.397889 0.137335
H43   H     H_    0.528116 0.732586 0.409154 0.133296
H44   H     H_    0.187682 0.842019 0.072564 0.136005
N1    N     N_R   0.778361 0.407220 0.222628 -0.224040
N2    N     N_R   0.432479 0.801992 0.266537 -0.222803
N3    N     N_R   0.429942 0.804969 0.226590 -0.221414
N4    N     N_R   0.263246 0.436591 0.770642 -0.225442
N5    N     N_1   0.769118 0.104549 0.309408 -0.257687
N6    N     N_1   0.582386 0.242990 0.199489 -0.224267
N7    N     N_1   0.166654 0.723091 0.151770 -0.264407
N8    N     N_1   0.107913 0.860968 0.572507 -0.283813
N9    N     N_R   0.264686 0.437338 0.730756 -0.225408
N10   N     N_R   0.391528 0.263509 0.728552 -0.231715
N11   N     N_R   0.390002 0.262728 0.768373 -0.231346
N12   N     N_R   0.772513 0.412846 0.262457 -0.222300
N13   N     N_R   0.836727 0.233864 0.260788 -0.188025
N14   N     N_R   0.842441 0.228204 0.220919 -0.201100
N15   N     N_R   0.258483 0.835598 0.221192 -0.195667
N16   N     N_R   0.260979 0.832646 0.261080 -0.218196
O1    O     O_R   0.679450 0.499830 0.463150 -0.518228
O2    O     O_R   0.340240 0.172500 0.045430 -0.513893
O3    O     O_R   0.309670 0.000990 0.032050 -0.497296
O4    O     O_R   0.480650 0.664000 0.464630 -0.501616
O5    O     O_R   0.168330 0.982130 0.939200 -0.518459
O6    O     O_R   0.000140 0.178170 0.944610 -0.498179
O7    O     O_R   0.983010 0.336750 0.948660 -0.519189
O8    O     O_R   0.181800 0.312190 0.959860 -0.499469
O9    O     O_R   0.338500 0.175680 0.956950 -0.516394
O10   O     O_R   0.308050 0.003930 0.950020 -0.499522
O11   O     O_3   0.164130 0.163270 0.992500 -0.242393
O12   O     O_R   0.356040 0.477400 0.534170 -0.499882
O13   O     O_R   0.323930 0.675950 0.455370 -0.514294
O14   O     O_R   0.354700 0.475360 0.451930 -0.501156
O15   O     O_R   0.494470 0.320860 0.448390 -0.517085
O16   O     O_R   0.662580 0.357570 0.460050 -0.500566
O17   O     O_R   0.680900 0.502040 0.551870 -0.525178
O18   O     O_R   0.481990 0.666040 0.546870 -0.501740
O19   O     O_R   0.325370 0.678160 0.544080 -0.495623
O20   O     O_2   0.569792 0.174992 0.107491 -0.485976
O21   O     O_2   0.587615 0.169228 0.865189 -0.509295
O22   O     O_2   0.896741 0.522424 0.626643 -0.508985
O23   O     O_R   0.495910 0.323070 0.537100 -0.520553
O24   O     O_R   0.663920 0.359620 0.542290 -0.496557
O25   O     O_3   0.500010 0.500010 0.500010 -0.242501
O26   O     O_R   0.170070 0.978950 0.027680 -0.516029
O27   O     O_R   0.001760 0.175230 0.026640 -0.497959
O28   O     O_R   0.984760 0.333570 0.037150 -0.519681
O29   O     O_R   0.183410 0.309240 0.041890 -0.497186

loop_
_geom_bond_atom_site_label_1
_geom_bond_atom_site_label_2
_ccdc_geom_bond_type
C68   C80   A    
C20   O1    A    
C87   C88   A    
C40   C41   A    
C95   O27   A    
C55   C59   A    
Cr4   O11   S    
C59   C99   S    
C73   C74   S    
C79   H30   S    
C2    C7    T    
Cr3   O23   S    
C102  N5    T    
Cr4   O26   S    
C18   N13   A    
Cr3   O25   S    
C53   C54   A    
C96   O29   A    
C25   C95   S    
C46   H9    S    
C62   C63   A    
C97   O3    A    
C13   C18   S    
C72   H19   S    
C83   C84   A    
C38   H21   S    
Cr2   O19   S    
C36   C37   A    
C19   C21   A    
C35   N2    A    
C99   O8    A    
C101  O20   D    
C10   C15   A    
C67   H16   S    
C85   C86   A    
C30   C31   A    
C6    C78   S    
C27   C38   A    
C76   C98   S    
C87   C94   A    
C37   C42   A    
C66   H18   S    
Cr5   O11   S    
C69   C76   A    
Cr5   O28   S    
C45   H6    S    
C86   C94   A    
C32   C77   S    
C26   C33   A    
C61   C66   A    
C40   H5    S    
N10   N11   A    
C10   C20   S    
C39   H4    S    
C96   O2    A    
C4    C57   S    
Cr5   O8    S    
C31   H3    S    
C31   C33   A    
N1    N12   A    
C67   C73   A    
C63   H22   S    
Cr2   O13   S    
Cr3   O24   S    
C83   H26   S    
Cr6   O3    S    
C95   O28   A    
C85   H25   S    
C71   C82   A    
C88   C89   A    
C8    O15   A    
C16   C27   A    
C48   C50   A    
C20   O16   A    
C22   H40   S    
C82   C93   A    
C13   C14   A    
C1    O13   A    
C21   H12   S    
C15   H1    S    
C36   C41   A    
C34   C41   S    
C82   H32   S    
C34   N15   A    
C17   N1    A    
Cr6   O9    S    
Cr4   O27   S    
C81   C83   A    
C18   N12   A    
C39   C42   A    
C57   C58   A    
C54   C59   A    
Cr2   O25   S    
C55   H14   S    
C101  H37   S    
C17   C24   S    
C74   C75   T    
C32   O19   A    
C4    O21   D    
C5    O22   D    
C99   O9    A    
C17   N14   A    
C42   C97   S    
C39   C40   A    
C79   C81   A    
C85   C89   A    
C78   C79   A    
C11   H36   S    
N4    N9    A    
C77   C84   A    
C77   C78   A    
C4    H38   S    
C22   C25   A    
C70   H20   S    
C63   C64   A    
C67   C69   A    
C80   C92   A    
C43   C44   S    
C29   C30   A    
C37   H44   S    
C98   O7    A    
Cr6   O10   S    
C86   H24   S    
C47   C48   A    
C27   H11   S    
C6    N8    T    
C94   C100  S    
C23   C24   A    
C1    O4    A    
C51   N11   A    
C56   C61   S    
C51   C58   S    
Cr2   O14   S    
C49   C60   A    
C9    C96   S    
Cr3   O15   S    
Cr1   O4    S    
C71   H33   S    
C30   C35   S    
C8    O14   A    
N15   N16   A    
C23   H41   S    
C56   O17   A    
C8    C68   S    
C55   C57   A    
C70   C76   A    
C1    C26   S    
C35   N16   A    
C87   H29   S    
C60   C101  S    
C28   C29   A    
Cr1   O1    S    
Cr1   O18   S    
C21   C25   A    
C46   C47   A    
C84   H27   S    
C19   H34   S    
C12   H23   S    
C32   O18   A    
C14   C15   A    
C29   H2    S    
C2    C93   S    
C7    C16   S    
C9    C71   A    
Cr3   O16   S    
C38   C68   A    
C72   C73   A    
C33   H43   S    
C49   C103  S    
C48   H10   S    
C53   C58   A    
C43   C50   A    
C16   C92   A    
C47   C52   S    
Cr4   O5    S    
C34   N3    A    
Cr1   O17   S    
C26   C28   A    
C69   H15   S    
C53   H13   S    
C9    C60   A    
Cr2   O12   S    
C65   H17   S    
C97   O26   A    
C19   C24   A    
C43   C45   A    
C80   H31   S    
C64   C65   A    
C100  O5    A    
C98   O6    A    
Cr6   O11   S    
C103  N6    T    
C90   C91   T    
C3    N7    T    
N13   N14   A    
Cr4   O6    S    
C3    C36   S    
Cr5   O7    S    
C64   C75   S    
C51   N4    A    
C5    C62   S    
C50   H7    S    
Cr5   O29   S    
C61   C62   A    
C92   H35   S    
C88   H28   S    
C14   C102  S    
C10   C11   A    
C52   N10   A    
C56   O24   A    
C81   C91   S    
C45   C46   A    
C12   C13   A    
C28   H42   S    
C65   C66   A    
C54   H8    S    
N2    N3    A    
C5    H39   S    
Cr1   O25   S    
C22   C23   A    
C70   C72   A    
C49   C93   A    
C89   C90   S    
C100  O10   A    
C44   O12   A    
C44   O23   A    
Cr6   O2    S    
C11   C12   A    
C52   N9    A    
