data_mof_unit_34287.cif
_audit_creation_date              2013-03-05T16:15:18-0500
_audit_creation_method            fapswitch 2.2
_symmetry_space_group_name_H-M    P1
_symmetry_Int_Tables_number       1
_space_group_crystal_system       triclinic
_cell_length_a                    27.812461
_cell_length_b                    10.618355
_cell_length_c                    9.40089
_cell_angle_alpha                 90.374747
_cell_angle_beta                  90.063833
_cell_angle_gamma                 89.952138
_cell_volume                      2776.23307151

loop_
_atom_site_label
_atom_site_type_symbol
_atom_site_description
_atom_site_fract_x
_atom_site_fract_y
_atom_site_fract_z
_atom_type_partial_charge
O1    O     O_R   0.500020 0.316850 0.620870 -0.581689
O2    O     O_R   0.499980 0.683150 0.379130 -0.581823
O3    O     O_R   0.500000 0.316860 0.379090 -0.589094
O4    O     O_R   0.500000 0.683140 0.620910 -0.589172
C1    C     C_R   0.500007 0.259346 0.499502 0.787108
C2    C     C_R   0.499984 0.740655 0.500498 0.786618
O5    O     O_R   0.430270 0.500020 0.620880 -0.585150
O6    O     O_R   0.569730 0.499980 0.379120 -0.584970
O7    O     O_R   0.430250 0.500030 0.379090 -0.586553
O8    O     O_R   0.569750 0.499970 0.620910 -0.586545
C3    C     C_R   0.407530 0.500044 0.499962 0.820833
C4    C     C_R   0.592492 0.499944 0.500102 0.820368
Cu1   Cu    Cu3+1 0.500010 0.499990 0.643150 0.932016
Cu2   Cu    Cu3+1 0.499990 0.500010 0.356850 0.932225
C5    C     C_R   0.178173 0.386940 0.483394 0.501310
C6    C     C_R   0.821917 0.606512 0.531961 0.501828
O9    O     O_2   0.203086 0.278585 0.467795 -0.552761
O10   O     O_2   0.797037 0.713875 0.555227 -0.552156
N1    N     N_R   0.202179 0.498538 0.499086 -0.453447
N2    N     N_R   0.797873 0.496431 0.506109 -0.453815
C7    C     C_R   0.177969 0.610033 0.513464 0.598121
C8    C     C_R   0.822000 0.386108 0.482032 0.594145
C9    C     C_R   0.279030 0.471360 0.375481 -0.179935
C10   C     C_R   0.720740 0.514613 0.630064 -0.182491
C11   C     C_R   0.329096 0.471661 0.375035 -0.227908
C12   C     C_R   0.670687 0.515863 0.628956 -0.223666
C13   C     C_R   0.329299 0.526979 0.625760 -0.318343
C14   C     C_R   0.671145 0.482418 0.373379 -0.305282
C15   C     C_R   0.278859 0.524076 0.627744 0.510477
C16   C     C_R   0.721480 0.482284 0.374026 0.486946
C17   C     C_R   0.253769 0.498426 0.500807 0.279900
C18   C     C_R   0.746311 0.497116 0.503401 0.277936
C19   C     C_R   0.101964 0.497856 0.501032 -0.046465
C20   C     C_R   0.898069 0.496431 0.506913 -0.043888
C21   C     C_R   0.127720 0.384485 0.484590 -0.018150
C22   C     C_R   0.872371 0.608532 0.532982 -0.019486
C23   C     C_R   0.102740 0.271151 0.471028 -0.148364
C24   C     C_R   0.897416 0.720038 0.559462 -0.153991
C25   C     C_R   0.127502 0.611710 0.515244 -0.040270
C26   C     C_R   0.872468 0.384132 0.481551 -0.041558
C27   C     C_R   0.354642 0.499358 0.500195 -0.091205
C28   C     C_R   0.645421 0.499739 0.500649 -0.096057
H1    H     H_    0.348531 0.552840 0.721859 0.160868
H2    H     H_    0.652411 0.468028 0.273500 0.166753
H3    H     H_    0.121719 0.182455 0.460064 0.187528
H4    H     H_    0.878491 0.807192 0.581750 0.188040
C29   C     C_R   0.974533 0.382059 0.482404 0.042552
C30   C     C_R   0.025476 0.612580 0.522215 0.042906
C31   C     C_R   0.974395 0.611537 0.528654 0.042044
C32   C     C_R   0.025666 0.381827 0.485353 0.042339
C33   C     C_R   0.949220 0.496660 0.506061 0.068458
C34   C     C_R   0.050815 0.497412 0.502914 0.069005
C35   C     C_R   0.947535 0.271356 0.455557 -0.203882
C36   C     C_R   0.052381 0.725429 0.533240 -0.202800
C37   C     C_R   0.897618 0.272626 0.455524 -0.149753
C38   C     C_R   0.102286 0.724660 0.530162 -0.145811
O11   O     O_2   0.797193 0.278648 0.459218 -0.517662
O12   O     O_2   0.202690 0.718937 0.525339 -0.515781
C39   C     C_R   0.052829 0.269496 0.471790 -0.207668
C40   C     C_R   0.947323 0.721745 0.557798 -0.207062
H5    H     H_    0.651827 0.529483 0.728620 0.161658
H6    H     H_    0.347771 0.450148 0.276777 0.159258
H7    H     H_    0.739785 0.526592 0.729595 0.159826
H8    H     H_    0.259718 0.450844 0.277981 0.150819
H9    H     H_    0.878769 0.185204 0.434377 0.186424
H10   H     H_    0.121070 0.813706 0.539466 0.185508
H11   H     H_    0.963698 0.181589 0.431802 0.136221
H12   H     H_    0.036116 0.817102 0.542232 0.134193
H13   H     H_    0.036806 0.177565 0.463416 0.135071
H14   H     H_    0.963453 0.811434 0.581967 0.137042
C41   C     C_3   0.539538 0.042505 0.566930 -0.161603
C42   C     C_3   0.460442 0.957496 0.433073 -0.161953
C43   C     C_3   0.539450 0.957291 0.432898 -0.164415
C44   C     C_3   0.460531 0.042712 0.567105 -0.164646
H15   H     H_    0.571719 0.919093 0.378147 0.132528
H16   H     H_    0.428261 0.080912 0.621854 0.133338
H17   H     H_    0.571882 0.080529 0.621530 0.135906
H18   H     H_    0.428098 0.919473 0.378474 0.135908
C45   C     C_3   0.499984 0.877592 0.501393 0.018366
C46   C     C_3   0.499997 0.122410 0.498610 0.018274
C47   C     C_3   0.500073 0.960519 0.635546 -0.140301
C48   C     C_3   0.499908 0.039483 0.364457 -0.140108
H19   H     H_    0.500144 0.925619 0.746615 0.129409
H20   H     H_    0.499835 0.074383 0.253389 0.129381
C49   C     C_3   0.533555 0.572176 0.051337 -0.036607
C50   C     C_3   0.466444 0.427823 0.948661 -0.038752
C51   C     C_3   0.492911 0.612271 0.950321 -0.035819
C52   C     C_3   0.507087 0.387728 0.049679 -0.035059
H21   H     H_    0.486839 0.706886 0.904119 0.112541
H22   H     H_    0.513157 0.293111 0.095879 0.112759
H23   H     H_    0.561741 0.632858 0.099712 0.110554
H24   H     H_    0.438254 0.367150 0.900288 0.110835
N3    N     N_3   0.500040 0.499970 0.858290 -0.153642
N4    N     N_3   0.499960 0.500030 0.141710 -0.153467
C53   C     C_3   0.540686 0.459887 0.949427 -0.038906
C54   C     C_3   0.459312 0.540110 0.050574 -0.041518
H25   H     H_    0.574906 0.425837 0.902154 0.115281
H26   H     H_    0.425086 0.574124 0.097847 0.114980
O13   O     O_3   0.253583 0.559943 0.748379 -0.588824
C55   C     C_3   0.259654 0.470848 0.858371 0.024638
H27   H     H_    0.253979 0.521119 0.961033 0.180185
H28   H     H_    0.296503 0.429771 0.863473 0.116979
C56   C     C_3   0.222154 0.365811 0.845067 -0.356806
H29   H     H_    0.185745 0.407879 0.833575 0.235771
H30   H     H_    0.229895 0.308126 0.748833 0.242326
C57   C     C_3   0.222745 0.280431 0.975012 -0.861027
H31   H     H_    0.258855 0.237319 0.988567 0.255199
H32   H     H_    0.195901 0.204033 0.960731 0.267602
H33   H     H_    0.213385 0.335003 0.072346 0.255518
O14   O     O_3   0.746517 0.458759 0.249855 -0.591159
C58   C     C_3   0.752370 0.573083 0.176239 0.032543
H34   H     H_    0.769597 0.645933 0.245503 0.164599
H35   H     H_    0.716881 0.608417 0.138378 0.136780
C59   C     C_3   0.784835 0.549714 0.047687 -0.328318
H36   H     H_    0.820340 0.514477 0.084686 0.233055
H37   H     H_    0.768389 0.476511 0.978026 0.224576
C60   C     C_3   0.792330 0.669644 0.961939 -0.882105
H38   H     H_    0.757347 0.705657 0.922023 0.261843
H39   H     H_    0.815915 0.649012 0.869405 0.268365
H40   H     H_    0.809759 0.743204 0.028839 0.263306

loop_
_geom_bond_atom_site_label_1
_geom_bond_atom_site_label_2
_geom_bond_distance
_ccdc_geom_bond_type
C13   C15   1.403372 A    
C58   H34   1.115909 S    
N1    C17   1.434926 S    
C8    O11   1.349737 S    
C59   H36   1.111947 S    
C49   H23   1.110298 S    
C19   C34   1.422727 A    
C5    N1    1.367674 A    
C20   C33   1.422674 A    
C19   C25   1.408183 A    
C31   C40   1.416406 A    
C44   H16   1.110237 S    
C16   O14   1.381169 S    
C20   C26   1.408199 A    
C32   C39   1.416477 A    
N1    C7    1.367505 A    
C12   H5    1.083093 S    
C10   C12   1.392158 A    
C42   C45   1.531616 S    
C60   H39   1.110652 S    
C50   C52   1.537198 S    
C36   H12   1.075912 S    
C57   H31   1.110920 S    
C14   C28   1.405706 A    
O4    Cu1   1.957317 S    
O14   C58   1.410897 S    
C4    C28   1.472078 S    
C37   H9    1.083619 S    
C56   H30   1.110382 S    
O13   C55   1.415926 S    
C31   C33   1.421614 A    
C54   H26   1.110121 S    
C32   C34   1.421737 A    
C56   C57   1.526078 S    
O6    C4    1.301045 A    
C29   C35   1.416507 A    
C49   C51   1.537205 S    
C52   C53   1.536597 S    
N3    C53   1.481538 S    
C44   C46   1.531624 S    
Cu1   Cu2   2.691475 S    
C43   H15   1.110233 S    
O2    C2    1.290557 A    
C35   H11   1.075747 S    
O8    C4    1.300578 A    
C5    C21   1.403564 A    
C41   C46   1.531606 S    
C47   H19   1.110239 S    
O5    C3    1.300226 A    
C29   C32   1.422374 A    
C52   N4    1.481982 S    
C35   C37   1.388346 A    
C36   C38   1.388325 A    
C15   O13   1.386014 S    
C42   C44   1.546446 S    
C60   H40   1.110917 S    
C11   C27   1.403457 A    
C45   C47   1.533418 S    
C29   C33   1.421716 A    
C14   H2    1.083340 S    
C55   C56   1.532057 S    
Cu1   N3    2.022509 S    
C9    C17   1.400484 A    
C30   C36   1.416420 A    
O7    Cu2   1.951108 S    
C10   C18   1.398921 A    
C50   N3    1.480947 S    
C49   N4    1.480930 S    
C13   C27   1.404712 A    
C25   C38   1.395184 A    
C7    C25   1.403829 A    
C40   H14   1.075876 S    
C6    N2    1.367384 A    
C26   C37   1.395076 A    
C8    C26   1.403793 A    
C51   C54   1.536603 S    
C55   H28   1.114570 S    
C43   C45   1.531617 S    
C58   H35   1.114462 S    
C1    C46   1.454006 S    
N4    C54   1.481562 S    
O7    C3    1.300805 A    
C23   C39   1.388290 A    
O3    Cu2   1.957316 S    
C50   C54   1.537500 S    
C39   H13   1.075793 S    
C24   C40   1.388277 A    
C46   C48   1.533412 S    
C9    H8    1.082846 S    
C52   H22   1.109850 S    
C10   H7    1.081526 S    
C48   H20   1.110239 S    
C51   H21   1.109851 S    
O1    C1    1.290549 A    
O4    C2    1.289723 A    
O1    Cu1   1.954531 S    
C44   C47   1.545737 S    
C23   H3    1.083635 S    
C43   C48   1.545729 S    
C41   H17   1.110212 S    
C12   C28   1.404873 A    
C41   C43   1.546435 S    
N2    C18   1.434282 S    
C5    O9    1.349828 S    
C30   C31   1.422103 A    
O6    Cu2   1.950675 S    
C21   C23   1.395111 A    
N2    C8    1.367244 A    
O3    C1    1.289726 A    
O8    Cu1   1.951108 S    
C59   H37   1.111539 S    
C53   H25   1.110095 S    
C22   C24   1.395057 A    
C7    O12   1.349766 S    
C15   C17   1.406884 A    
C50   H24   1.110304 S    
C60   H38   1.110927 S    
C6    C22   1.403453 A    
C16   C18   1.405985 A    
C49   C53   1.537508 S    
C2    C45   1.454016 S    
C57   H32   1.110355 S    
C38   H10   1.083633 S    
C51   N3    1.481981 S    
C14   C16   1.399952 A    
C55   H27   1.111195 S    
C19   C21   1.408038 A    
C3    C27   1.470971 S    
C58   C59   1.528235 S    
C20   C22   1.408150 A    
C11   H6    1.083203 S    
C9    C11   1.392465 A    
O2    Cu2   1.954530 S    
C24   H4    1.083622 S    
C59   C60   1.526168 S    
C13   H1    1.083329 S    
O5    Cu1   1.950675 S    
C6    O10   1.349844 S    
C42   H18   1.110212 S    
C56   H29   1.111877 S    
C30   C34   1.421614 A    
Cu2   N4    2.022509 S    
C42   C48   1.545736 S    
C41   C47   1.545732 S    
C57   H33   1.110920 S    
