data_mof_unit_67162.cif
_audit_creation_date              2012-12-11T17:48:44-0500
_audit_creation_method            fapswitch 2.2
_symmetry_space_group_name_H-M    P1
_symmetry_Int_Tables_number       1
_space_group_crystal_system       triclinic
_cell_length_a                    8.262848
_cell_length_b                    12.85346
_cell_length_c                    15.231419
_cell_angle_alpha                 98.522492
_cell_angle_beta                  98.195468
_cell_angle_gamma                 98.85012
_cell_volume                      1557.96617336

loop_
_atom_site_label
_atom_site_type_symbol
_atom_type_description
_atom_site_fract_x
_atom_site_fract_y
_atom_site_fract_z
_atom_type_partial_charge
Ba1   Ba    Ba6+2 0.843750 0.550210 0.455600 1.775179
Ba2   Ba    Ba6+2 0.346090 0.449880 0.544410 1.746208
Br1   Br    Br    0.508900 0.875426 0.282270 -0.683662
Br2   Br    Br    0.014914 0.904659 0.754184 -0.611852
Br3   Br    Br    0.750868 0.030585 0.889702 -0.573117
C1    C     C_3   0.557800 0.862611 0.100617 -0.299685
C2    C     C_R   0.885167 0.473803 0.922990 -0.096172
C3    C     C_R   0.025383 0.459796 0.104493 -0.083875
C4    C     C_3   0.067621 0.771742 0.217051 0.364681
C5    C     C_R   0.857143 0.416353 0.064068 0.439724
C6    C     C_R   0.786530 0.445436 0.985007 -0.128848
C7    C     C_R   0.099153 0.462954 0.199057 0.039876
C8    C     C_R   0.266727 0.509214 0.225697 -0.300235
C9    C     C_R   0.083311 0.542394 0.797993 -0.014927
C10   C     C_R   0.155997 0.548118 0.891229 -0.023052
C11   C     C_R   0.056129 0.509333 0.952951 0.014125
C12   C     C_3   0.522547 0.792446 0.169653 0.548854
C13   C     C_R   0.324334 0.587783 0.925060 -0.059961
C14   C     C_R   0.394382 0.581538 0.012866 -0.110186
C15   C     C_R   0.297110 0.543919 0.074594 -0.024208
C16   C     C_3   0.059336 0.803087 0.124253 -0.341150
C17   C     C_R   0.125799 0.506113 0.044889 -0.035316
C18   C     C_R   0.365534 0.547749 0.166043 -0.015438
C19   C     C_R   0.918105 0.492254 0.769740 -0.272869
C20   C     C_R   0.762990 0.184721 0.555572 -0.177650
C21   C     C_R   0.408151 0.813233 0.483315 -0.214212
C22   C     C_R   0.374068 0.990360 0.458686 -0.031400
C23   C     C_3   0.382927 0.254989 0.274195 0.333942
C24   C     C_R   0.309071 0.882605 0.451390 0.020934
C25   C     C_R   0.572959 0.850719 0.524893 0.077820
C26   C     C_R   0.638143 0.963379 0.537827 -0.031083
C27   C     C_R   0.537110 0.033281 0.501888 -0.061185
C28   C     C_3   0.390256 0.785773 0.771889 0.289040
C29   C     C_R   0.604937 0.143151 0.505861 -0.010443
C30   C     C_R   0.865300 0.117718 0.589625 0.068992
C31   C     C_R   0.803157 0.007906 0.580174 -0.040030
C32   C     C_3   0.364039 0.840244 0.863139 -0.397882
C33   C     C_3   0.846854 0.203271 0.292609 0.712637
C34   C     C_3   0.298680 0.201717 0.178910 -0.294968
C35   C     C_3   0.749445 0.110792 0.219952 -0.198306
C36   C     C_3   0.868554 0.767363 0.732596 0.590652
C37   C     C_3   0.847794 0.737547 0.824067 -0.356602
C38   C     C_3   0.134617 0.248529 0.800134 0.403939
C39   C     C_3   0.171751 0.230263 0.896837 -0.288788
C40   C     C_3   0.673083 0.199558 0.795836 0.401287
C41   C     C_3   0.609396 0.082036 0.798927 0.136366
C42   C     C_R   0.818704 0.458506 0.830511 -0.003842
H1    H     H_    0.485473 0.862758 0.908141 0.123577
H2    H     H_    0.799989 0.800777 0.865424 0.173652
H3    H     H_    0.968513 0.727591 0.861042 0.075380
H4    H     H_    0.756752 0.662217 0.815017 0.056567
H5    H     H_    0.398787 0.743158 0.143998 -0.054876
H6    H     H_    0.552173 0.809821 0.035562 0.068561
H7    H     H_    0.285175 0.282676 0.309696 0.077481
H8    H     H_    0.474601 0.326970 0.272516 0.017711
H9    H     H_    0.191871 0.138846 0.181067 0.182323
H10   H     H_    0.252347 0.262206 0.141657 0.066201
H11   H     H_    0.386252 0.163436 0.141856 0.149755
H12   H     H_    0.316657 0.915302 0.857720 0.191046
H13   H     H_    0.684836 0.909673 0.119242 0.146260
H14   H     H_    0.064928 0.732840 0.073412 0.055915
H15   H     H_    0.215771 0.322719 0.793454 0.084557
H16   H     H_    0.004298 0.259956 0.785224 -0.155348
H17   H     H_    0.305366 0.226696 0.915270 0.165536
H18   H     H_    0.141227 0.296592 0.943323 0.070622
H19   H     H_    0.096462 0.153988 0.904590 0.194583
H20   H     H_    0.783490 0.231143 0.848921 0.080476
H21   H     H_    0.708568 0.204350 0.728779 -0.128688
H22   H     H_    0.606492 0.031865 0.732580 0.010462
H23   H     H_    0.277222 0.786872 0.893056 0.101859
H24   H     H_    0.959117 0.708362 0.215215 0.090609
H25   H     H_    0.481276 0.070852 0.814586 0.127554
H26   H     H_    0.653452 0.423144 0.964483 0.128349
H27   H     H_    0.526893 0.608348 0.031980 0.084653
H28   H     H_    0.406143 0.622048 0.883890 0.090107
H29   H     H_    0.323520 0.513625 0.295044 0.047313
H30   H     H_    0.864128 0.481969 0.699285 0.058692
H31   H     H_    0.295995 0.039157 0.428709 0.176775
H32   H     H_    0.888144 0.957675 0.600311 0.131527
H33   H     H_    0.813085 0.268545 0.559730 0.060203
H34   H     H_    0.763613 0.250928 0.324455 -0.055279
H35   H     H_    0.183004 0.738765 0.232421 -0.033070
H36   H     H_    0.356561 0.729051 0.475259 0.055862
H37   H     H_    0.941401 0.831902 0.105484 0.145367
H38   H     H_    0.165437 0.867605 0.124255 0.138637
H39   H     H_    0.482311 0.733242 0.782198 0.064011
H40   H     H_    0.449518 0.848543 0.738042 0.078712
H41   H     H_    0.733997 0.048079 0.384397 0.307498
H42   H     H_    0.556338 0.344830 0.130711 0.318260
H43   H     H_    0.669534 0.133888 0.165474 0.189327
H44   H     H_    0.660585 0.058634 0.247822 0.084193
H45   H     H_    0.836979 0.064455 0.189952 0.149277
H46   H     H_    0.919232 0.703929 0.693796 0.014667
H47   H     H_    0.465368 0.916330 0.093299 0.104774
O1    O     O_2   0.827880 0.435260 0.277750 -0.431437
O2    O     O_2   0.199535 0.117282 0.573410 -0.438482
O3    O     O_3   0.164283 0.161018 0.741509 -0.570075
O4    O     O_3   0.100280 0.438960 0.391170 -0.481063
O5    O     O_3   0.587780 0.631850 0.546230 -0.481186
O6    O     O_2   0.332590 0.233690 0.456160 -0.375298
O7    O     O_3   0.462776 0.181781 0.316690 -0.633661
O8    O     O_2   0.476199 0.447585 0.817617 -0.501628
O9    O     O_3   0.548999 0.259762 0.811517 -0.577281
O10   O     O_3   0.625580 0.634130 0.333250 -0.440717
O11   O     O_2   0.702430 0.544396 0.180488 -0.509472
O12   O     O_3   0.712862 0.778191 0.689486 -0.659829
O13   O     O_3   0.965876 0.264423 0.256113 -0.591217
O14   O     O_3   0.652261 0.734581 0.182120 -0.582413
O15   O     O_2   0.857130 0.766340 0.543890 -0.468560
O16   O     O_3   0.056550 0.691050 0.379010 -0.524137
O17   O     O_2   0.966295 0.873245 0.437028 -0.379055
O18   O     O_2   0.101186 0.107375 0.330346 -0.302830
O19   O     O_2   0.025176 0.231849 0.450392 -0.323575
O20   O     O_3   0.849834 0.039388 0.399369 -0.504735
O21   O     O_2   0.636524 0.237418 0.989257 -0.309386
O22   O     O_2   0.883374 0.220324 0.088572 -0.290721
O23   O     O_3   0.064565 0.861911 0.281234 -0.524873
O24   O     O_3   0.642153 0.305480 0.154546 -0.567621
O25   O     O_2   0.361830 0.564780 0.722310 -0.478270
O26   O     O_3   0.089430 0.561130 0.608830 -0.467431
O27   O     O_3   0.564130 0.365960 0.666760 -0.471376
O28   O     O_3   0.237240 0.736948 0.716515 -0.606409
O29   O     O_3   0.601940 0.368240 0.453770 -0.500126
O30   O     O_3   0.133170 0.309040 0.621000 -0.457739
P1    P     P_3+3 0.998730 0.403530 0.291970 1.074588
P2    P     P_3+3 0.687380 0.751030 0.571310 1.007206
P3    P     P_3+3 0.099552 0.828777 0.389109 1.106258
P4    P     P_3+3 0.190990 0.596560 0.708040 0.979792
P5    P     P_3+3 0.088895 0.174111 0.631154 1.096289
P6    P     P_3+3 0.581648 0.613707 0.215421 0.976158
P7    P     P_3+3 0.510070 0.230356 0.432758 0.974272
P8    P     P_3+3 0.605780 0.385521 0.783233 0.963896
S1    S     S_3+6 0.961245 0.144970 0.371120 -0.106827
S2    S     S_3+6 0.756039 0.290159 0.073322 -0.115973

loop_
_geom_bond_atom_site_label_1
_geom_bond_atom_site_label_2
_ccdc_geom_bond_type
C10   C13   A    
C25   P2    S    
C13   H28   S    
C22   C24   A    
C20   H33   S    
C4    O23   S    
C36   C37   S    
C39   H19   S    
C14   C15   A    
O18   S1    D    
C38   C39   S    
C22   H31   S    
Ba1   O5    S    
O6    P7    D    
C38   H16   S    
Ba2   O29   S    
C39   H17   S    
C2    C6    A    
C7    C8    A    
C5    S2    S    
C21   H36   S    
Ba1   P1    S    
Ba1   Ba2   S    
C25   C26   A    
O22   S2    D    
Br2   C36   S    
C10   C11   A    
C34   H10   S    
C20   C29   A    
C9    P4    S    
C8    C18   A    
C13   C14   A    
C33   S1    S    
C9    C19   A    
C33   O13   S    
C41   H22   S    
C40   O9    S    
Ba1   O15   S    
C23   O7    S    
O4    P1    S    
C36   H46   S    
C30   C31   A    
C1    H47   S    
C40   H20   S    
C3    C17   A    
C15   C18   A    
O9    P8    S    
C30   P5    S    
C41   H25   S    
O24   S2    S    
C3    C7    A    
C37   H4    S    
O25   P4    D    
Ba2   O6    S    
O10   P6    S    
C32   H23   S    
O28   P4    S    
C39   H18   S    
C12   H5    S    
C16   H37   S    
C23   H8    S    
C38   O3    S    
O5    P2    S    
C16   H38   S    
C36   O12   S    
C1    H13   S    
Ba1   P2    S    
O13   P1    S    
C6    H26   S    
C12   O14   S    
Ba2   O26   S    
C7    P1    S    
C23   C34   S    
C40   C41   S    
C34   H11   S    
C28   C32   S    
C18   P6    S    
C11   C17   A    
Ba1   O26   S    
C27   C29   A    
C28   H39   S    
Ba1   O29   S    
Ba1   O16   S    
O1    P1    D    
C26   C27   A    
C8    H29   S    
Ba1   O1    S    
C40   H21   S    
C34   H9    S    
C35   H45   S    
C32   H1    S    
O23   P3    S    
Ba1   O10   S    
C32   H12   S    
O15   P2    D    
C37   H3    S    
O7    P7    S    
C2    C11   A    
C20   C30   A    
C29   P7    S    
C21   C25   A    
C24   P3    S    
C33   H34   S    
O17   P3    D    
C28   O28   S    
C15   C17   A    
C1    H6    S    
Ba2   O27   S    
C1    C12   S    
O12   P2    S    
C23   H7    S    
O29   P7    S    
C22   C27   A    
C9    C10   A    
C19   C42   A    
C16   H14   S    
C14   H27   S    
C4    H24   S    
O8    P8    D    
C31   H32   S    
Ba1   O4    S    
Ba2   O5    S    
Ba2   O25   S    
O26   P4    S    
O11   P6    D    
O21   S2    D    
Ba2   O30   S    
Br3   C41   S    
O16   P3    S    
C42   P8    S    
C4    H35   S    
C28   H40   S    
O3    P5    S    
C33   C35   S    
C4    C16   S    
O20   S1    S    
O30   P5    S    
Br1   C12   S    
C35   H44   S    
H41   O20   S    
C5    C6    A    
C37   H2    S    
C19   H30   S    
H42   O24   S    
Ba2   O4    S    
C21   C24   A    
C3    C5    A    
C26   C31   A    
O19   S1    D    
O27   P8    S    
C35   H43   S    
O14   P6    S    
C38   H15   S    
C2    C42   A    
O2    P5    D    
Ba2   P4    S    
