data_mof_unit_11644.cif
_audit_creation_date              2012-12-11T14:44:01-0500
_audit_creation_method            fapswitch 2.2
_symmetry_space_group_name_H-M    P1
_symmetry_Int_Tables_number       1
_space_group_crystal_system       triclinic
_cell_length_a                    18.915706
_cell_length_b                    10.915033
_cell_length_c                    18.848197
_cell_angle_alpha                 89.746699
_cell_angle_beta                  90.171581
_cell_angle_gamma                 89.853895
_cell_volume                      3891.43519575

loop_
_atom_site_label
_atom_site_type_symbol
_atom_type_description
_atom_site_fract_x
_atom_site_fract_y
_atom_site_fract_z
_atom_type_partial_charge
C1    C     C_R   0.730934 0.379144 0.146286 0.567460
C2    C     C_R   0.271533 0.373106 0.855656 0.581183
C3    C     C_R   0.230934 0.879144 0.146286 0.567461
C4    C     C_R   0.771533 0.873106 0.855656 0.581183
C5    C     C_R   0.531240 0.376010 0.920432 -0.077812
C6    C     C_R   0.512437 0.397804 0.066305 -0.088256
C7    C     C_R   0.031240 0.876010 0.920433 -0.077812
C8    C     C_R   0.012437 0.897804 0.066305 -0.088256
C9    C     C_R   0.040087 0.989058 0.953052 -0.119977
C10   C     C_R   0.028810 0.000641 0.025481 -0.142874
C11   C     C_R   0.540088 0.489058 0.953052 -0.119977
C12   C     C_R   0.528810 0.500641 0.025480 -0.142874
C13   C     C_R   0.686268 0.930665 0.031159 -0.114133
C14   C     C_R   0.315943 0.907709 0.966807 -0.128006
C15   C     C_R   0.186268 0.430665 0.031159 -0.114133
C16   C     C_R   0.815944 0.407709 0.966807 -0.128005
C17   C     C_R   0.692775 0.913878 0.958154 0.247333
C18   C     C_R   0.308848 0.874861 0.038752 0.260751
C19   C     C_R   0.192775 0.413878 0.958154 0.247333
C20   C     C_R   0.808848 0.374861 0.038752 0.260751
C21   C     C_R   0.760270 0.893744 0.930406 0.040538
C22   C     C_R   0.254980 0.931879 0.078760 0.045958
C23   C     C_R   0.260270 0.393744 0.930406 0.040538
C24   C     C_R   0.754980 0.431879 0.078760 0.045958
C25   C     C_R   0.819130 0.880364 0.975592 -0.191348
C26   C     C_R   0.215232 0.027977 0.048944 -0.167104
C27   C     C_R   0.319130 0.380364 0.975592 -0.191349
C28   C     C_R   0.715232 0.527977 0.048944 -0.167103
C29   C     C_R   0.812188 0.895509 0.047897 -0.172378
C30   C     C_R   0.222795 0.058423 0.978124 -0.146736
C31   C     C_R   0.312188 0.395509 0.047897 -0.172377
C32   C     C_R   0.722795 0.558423 0.978124 -0.146736
C33   C     C_R   0.746280 0.924130 0.075622 -0.013799
C34   C     C_R   0.270315 0.994118 0.935757 -0.011109
C35   C     C_R   0.246280 0.424131 0.075622 -0.013798
C36   C     C_R   0.770315 0.494118 0.935757 -0.011109
C37   C     C_R   0.518061 0.057123 0.468801 -0.146135
C38   C     C_R   0.513420 0.059302 0.541131 -0.150300
C39   C     C_R   0.018061 0.557123 0.468801 -0.146135
C40   C     C_R   0.013420 0.559302 0.541131 -0.150300
C41   C     C_R   0.500522 0.169104 0.576467 0.027006
C42   C     C_R   0.511020 0.164977 0.428686 0.030728
C43   C     C_R   0.000522 0.669104 0.576467 0.027006
C44   C     C_R   0.011020 0.664977 0.428686 0.030728
C45   C     C_R   0.530842 0.156737 0.146985 0.541445
C46   C     C_R   0.467984 0.154588 0.853784 0.538133
C47   C     C_R   0.030842 0.656737 0.146985 0.541445
C48   C     C_R   0.967984 0.654588 0.853784 0.538133
C49   C     C_R   0.500339 0.281508 0.538211 0.015841
C50   C     C_R   0.499258 0.278384 0.463212 0.011967
C51   C     C_R   0.000339 0.781508 0.538211 0.015841
C52   C     C_R   0.999258 0.778384 0.463212 0.011967
C53   C     C_R   0.794366 0.014966 0.471525 -0.130940
C54   C     C_R   0.200708 0.004945 0.530026 -0.131364
C55   C     C_R   0.294366 0.514966 0.471525 -0.130940
C56   C     C_R   0.700708 0.504945 0.530026 -0.131364
C57   C     C_R   0.794666 0.005314 0.544119 -0.136864
C58   C     C_R   0.200192 0.996710 0.457477 -0.132849
C59   C     C_R   0.294666 0.505313 0.544119 -0.136864
C60   C     C_R   0.700192 0.496710 0.457477 -0.132849
C61   C     C_R   0.750333 0.920876 0.577445 0.034903
C62   C     C_R   0.248026 0.919080 0.423280 0.035442
C63   C     C_R   0.250333 0.420876 0.577445 0.034903
C64   C     C_R   0.748026 0.419080 0.423280 0.035442
C65   C     C_R   0.700054 0.855678 0.537732 -0.135110
C66   C     C_R   0.301114 0.858915 0.462374 -0.133976
C67   C     C_R   0.200054 0.355678 0.537732 -0.135110
C68   C     C_R   0.801114 0.358915 0.462374 -0.133976
C69   C     C_R   0.698140 0.868524 0.464384 -0.139176
C70   C     C_R   0.303323 0.870958 0.535782 -0.134999
C71   C     C_R   0.198140 0.368524 0.464384 -0.139176
C72   C     C_R   0.803322 0.370958 0.535782 -0.134999
C73   C     C_R   0.746857 0.945730 0.430891 0.038338
C74   C     C_R   0.252017 0.942208 0.569987 0.035590
C75   C     C_R   0.246857 0.445730 0.430891 0.038338
C76   C     C_R   0.752017 0.442208 0.569987 0.035590
C77   C     C_R   0.740753 0.969593 0.147331 0.548196
C78   C     C_R   0.272958 0.020576 0.859712 0.565153
C79   C     C_R   0.240753 0.469593 0.147331 0.548196
C80   C     C_R   0.772957 0.520576 0.859712 0.565153
C81   C     C_R   0.730196 0.379385 0.352166 0.545636
C82   C     C_R   0.269550 0.379847 0.648065 0.558015
C83   C     C_R   0.230196 0.879385 0.352166 0.545636
C84   C     C_R   0.769550 0.879847 0.648065 0.558015
C85   C     C_R   0.533075 0.157147 0.354497 0.545456
C86   C     C_R   0.469378 0.158050 0.647181 0.552813
C87   C     C_R   0.033075 0.657147 0.354497 0.545456
C88   C     C_R   0.969378 0.658050 0.647181 0.552813
C89   C     C_R   0.740514 0.975394 0.356185 0.543744
C90   C     C_R   0.259233 0.974480 0.644177 0.559201
C91   C     C_R   0.240514 0.475394 0.356185 0.543744
C92   C     C_R   0.759233 0.474480 0.644177 0.559201
C93   C     C_R   0.492346 0.160382 0.927444 0.028996
C94   C     C_R   0.500148 0.170133 0.075823 -0.010250
C95   C     C_R   0.992346 0.660382 0.927444 0.028996
C96   C     C_R   0.000148 0.670133 0.075823 -0.010250
C97   C     C_R   0.510884 0.271985 0.960242 0.013588
C98   C     C_R   0.507794 0.280140 0.035193 0.020752
C99   C     C_R   0.010884 0.771985 0.960242 0.013588
C100  C     C_R   0.007794 0.780140 0.035193 0.020752
C101  C     C_R   0.482143 0.061480 0.041902 -0.157416
C102  C     C_R   0.478317 0.056855 0.969374 -0.123035
C103  C     C_R   0.982143 0.561480 0.041902 -0.157416
C104  C     C_R   0.978317 0.556855 0.969374 -0.123035
Cr1   Cr    Cr6+3 0.772000 0.169640 0.250110 1.042885
Cr2   Cr    Cr6+3 0.228000 0.169640 0.749890 1.004996
Cr3   Cr    Cr6+3 0.272000 0.669640 0.250110 1.042886
Cr4   Cr    Cr6+3 0.728000 0.669640 0.749890 1.004996
Cr5   Cr    Cr6+3 0.614960 0.323350 0.249260 0.999464
Cr6   Cr    Cr6+3 0.385040 0.323350 0.750740 0.995585
Cr7   Cr    Cr6+3 0.114960 0.823350 0.249260 0.999464
Cr8   Cr    Cr6+3 0.885040 0.823350 0.750740 0.995585
Cr9   Cr    Cr6+3 0.616670 0.010620 0.250840 1.015223
Cr10  Cr    Cr6+3 0.383330 0.010620 0.749160 1.007998
Cr11  Cr    Cr6+3 0.116670 0.510620 0.250840 1.015223
Cr12  Cr    Cr6+3 0.883330 0.510620 0.749160 1.007998
H1    H     H_    0.474077 0.977197 0.071389 0.165839
H2    H     H_    0.462559 0.970724 0.946337 0.130565
H3    H     H_    0.974077 0.477197 0.071389 0.165839
H4    H     H_    0.962559 0.470724 0.946337 0.130565
H5    H     H_    0.830956 0.078813 0.447527 0.124547
H6    H     H_    0.161611 0.063735 0.554413 0.122882
H7    H     H_    0.330956 0.578813 0.447527 0.124547
H8    H     H_    0.661611 0.563735 0.554413 0.122882
H9    H     H_    0.833073 0.058257 0.573668 0.118693
H10   H     H_    0.159166 0.045605 0.428679 0.120853
H11   H     H_    0.333073 0.558257 0.573668 0.118693
H12   H     H_    0.659166 0.545605 0.428679 0.120853
H13   H     H_    0.664893 0.790555 0.562776 0.118983
H14   H     H_    0.338880 0.799250 0.436684 0.117401
H15   H     H_    0.164893 0.290555 0.562776 0.118983
H16   H     H_    0.838880 0.299250 0.436684 0.117401
H17   H     H_    0.659329 0.817932 0.434031 0.112911
H18   H     H_    0.344815 0.825206 0.565566 0.117996
H19   H     H_    0.159329 0.317932 0.434031 0.112911
H20   H     H_    0.844815 0.325206 0.565566 0.117996
H21   H     H_    0.541210 0.370810 0.864068 0.137599
H22   H     H_    0.500685 0.413270 0.121558 0.133772
H23   H     H_    0.041210 0.870810 0.864068 0.137599
H24   H     H_    0.000685 0.913270 0.121558 0.133772
H25   H     H_    0.054307 0.068287 0.921696 0.095584
H26   H     H_    0.033123 0.089624 0.050243 0.100291
H27   H     H_    0.554308 0.568287 0.921695 0.095584
H28   H     H_    0.533123 0.589623 0.050243 0.100291
H29   H     H_    0.635242 0.957187 0.052163 0.152583
H30   H     H_    0.355723 0.864242 0.934488 0.117605
H31   H     H_    0.135242 0.457187 0.052163 0.152582
H32   H     H_    0.855723 0.364243 0.934488 0.117605
H33   H     H_    0.870936 0.859467 0.954657 0.154532
H34   H     H_    0.175270 0.075503 0.079414 0.139755
H35   H     H_    0.370936 0.359467 0.954657 0.154532
H36   H     H_    0.675270 0.575503 0.079414 0.139755
H37   H     H_    0.858456 0.890065 0.081749 0.126965
H38   H     H_    0.189847 0.129814 0.955971 0.122749
H39   H     H_    0.358456 0.390066 0.081749 0.126965
H40   H     H_    0.689847 0.629814 0.955971 0.122750
H41   H     H_    0.528486 0.969074 0.444603 0.139117
H42   H     H_    0.516579 0.972501 0.569142 0.135166
H43   H     H_    0.028486 0.469074 0.444603 0.139117
H44   H     H_    0.016579 0.472501 0.569142 0.135166
O1    O     O_R   0.787540 0.042690 0.170470 -0.503212
O2    O     O_R   0.212460 0.042690 0.829530 -0.521546
O3    O     O_R   0.287540 0.542690 0.170470 -0.503211
O4    O     O_R   0.712460 0.542690 0.829530 -0.521546
O5    O     O_R   0.556540 0.252920 0.323970 -0.505627
O6    O     O_R   0.443460 0.252920 0.676030 -0.502695
O7    O     O_R   0.056540 0.752920 0.323970 -0.505627
O8    O     O_R   0.943460 0.752920 0.676030 -0.502695
O9    O     O_R   0.545870 0.051100 0.330840 -0.525804
O10   O     O_R   0.454130 0.051100 0.669160 -0.521398
O11   O     O_R   0.045870 0.551100 0.330840 -0.525804
O12   O     O_R   0.954130 0.551100 0.669160 -0.521398
O13   O     O_R   0.681340 0.959300 0.325510 -0.505286
O14   O     O_R   0.318660 0.959300 0.674490 -0.496524
O15   O     O_R   0.181340 0.459300 0.325510 -0.505286
O16   O     O_R   0.818660 0.459300 0.674490 -0.496524
O17   O     O_3   0.667880 0.167870 0.250070 -0.246227
O18   O     O_3   0.332120 0.167870 0.749930 -0.265592
O19   O     O_3   0.167880 0.667870 0.250070 -0.246227
O20   O     O_3   0.832120 0.667870 0.749930 -0.265592
O21   O     O_R   0.765660 0.292160 0.175050 -0.440773
O22   O     O_R   0.234340 0.292160 0.824950 -0.508755
O23   O     O_R   0.265660 0.792160 0.175050 -0.440773
O24   O     O_R   0.734340 0.792160 0.824950 -0.508755
O25   O     O_R   0.670190 0.408980 0.168550 -0.536404
O26   O     O_R   0.329810 0.408980 0.831450 -0.529021
O27   O     O_R   0.170190 0.908980 0.168550 -0.536404
O28   O     O_R   0.829810 0.908980 0.831450 -0.529021
O29   O     O_R   0.556580 0.251450 0.175160 -0.510625
O30   O     O_R   0.443420 0.251450 0.824840 -0.522439
O31   O     O_R   0.056580 0.751450 0.175160 -0.510625
O32   O     O_R   0.943420 0.751450 0.824840 -0.522439
O33   O     O_R   0.545920 0.049510 0.170320 -0.519400
O34   O     O_R   0.454080 0.049510 0.829680 -0.530521
O35   O     O_R   0.045920 0.549510 0.170320 -0.519400
O36   O     O_R   0.954080 0.549510 0.829680 -0.530521
O37   O     O_R   0.681390 0.957840 0.176710 -0.510597
O38   O     O_R   0.318610 0.957840 0.823290 -0.505700
O39   O     O_R   0.181390 0.457840 0.176710 -0.510597
O40   O     O_R   0.818610 0.457840 0.823290 -0.505700
O41   O     O_R   0.787500 0.044280 0.330990 -0.534592
O42   O     O_R   0.212500 0.044280 0.669010 -0.528568
O43   O     O_R   0.287500 0.544280 0.330990 -0.534592
O44   O     O_R   0.712500 0.544280 0.669010 -0.528568
O45   O     O_R   0.765610 0.293630 0.323860 -0.509271
O46   O     O_R   0.234390 0.293630 0.676140 -0.503757
O47   O     O_R   0.265610 0.793630 0.323860 -0.509271
O48   O     O_R   0.734390 0.793630 0.676140 -0.503757
O49   O     O_R   0.670140 0.410570 0.329080 -0.532085
O50   O     O_R   0.329860 0.410570 0.670920 -0.526409
O51   O     O_R   0.170140 0.910570 0.329080 -0.532085
O52   O     O_R   0.829860 0.910570 0.670920 -0.526410
O53   O     O_3   0.636033 0.936254 0.913433 -0.555184
C105  C     C_3   0.590894 0.833783 0.914335 -0.123556
H45   H     H_    0.617358 0.752537 0.891276 0.130890
H46   H     H_    0.544625 0.853686 0.879936 0.148601
H47   H     H_    0.570989 0.813223 0.968619 0.087551
O54   O     O_3   0.354814 0.793242 0.072573 -0.558136
C106  C     C_3   0.374391 0.694205 0.028902 -0.107091
H48   H     H_    0.329024 0.658402 0.997455 0.136520
H49   H     H_    0.393420 0.618621 0.063488 0.157331
H50   H     H_    0.419085 0.720401 0.993927 0.089789
O55   O     O_3   0.136033 0.436254 0.913433 -0.555184
C107  C     C_3   0.090894 0.333782 0.914335 -0.123557
H51   H     H_    0.117358 0.252537 0.891277 0.130890
H52   H     H_    0.044625 0.353686 0.879936 0.148601
H53   H     H_    0.070989 0.313223 0.968619 0.087552
O56   O     O_3   0.854815 0.293243 0.072573 -0.558138
C108  C     C_3   0.874390 0.194204 0.028902 -0.107090
H54   H     H_    0.829021 0.158402 0.997458 0.136521
H55   H     H_    0.893419 0.118621 0.063490 0.157331
H56   H     H_    0.919083 0.220398 0.993926 0.089790
C109  C     C_3   0.504245 0.403195 0.576309 -0.371029
H57   H     H_    0.532689 0.393736 0.627662 0.144910
H58   H     H_    0.535159 0.470821 0.545162 0.105189
H59   H     H_    0.450279 0.439893 0.585176 0.155236
C110  C     C_3   0.483457 0.393832 0.421069 -0.372967
H60   H     H_    0.453474 0.372092 0.371993 0.141204
H61   H     H_    0.449211 0.457539 0.451240 0.111976
H62   H     H_    0.533465 0.441245 0.407398 0.150839
C111  C     C_3   0.004245 0.903195 0.576309 -0.371029
H63   H     H_    0.032688 0.893737 0.627662 0.144911
H64   H     H_    0.035159 0.970821 0.545162 0.105189
H65   H     H_    0.950279 0.939893 0.585176 0.155236
C112  C     C_3   0.983457 0.893832 0.421069 -0.372967
H66   H     H_    0.953474 0.872092 0.371993 0.141204
H67   H     H_    0.949211 0.957539 0.451240 0.111976
H68   H     H_    0.033465 0.941245 0.407398 0.150839

loop_
_geom_bond_atom_site_label_1
_geom_bond_atom_site_label_2
_ccdc_geom_bond_type
C58   C62   A    
C89   O41   A    
C62   C83   S    
Cr7   O31   S    
C101  C102  A    
C56   C76   A    
C48   C95   S    
C55   C59   A    
C77   O37   A    
C14   C18   A    
C81   O49   A    
O55   C107  S    
C86   O6    A    
C89   O13   A    
C72   C76   A    
C43   C51   A    
C52   C112  S    
C97   C98   A    
O54   C106  S    
C51   C111  S    
O53   C105  S    
C92   O16   A    
C15   C19   A    
C41   C86   S    
Cr4   O4    S    
Cr4   O20   S    
C108  H54   S    
C7    C99   A    
C88   O12   A    
C43   C88   S    
Cr8   O52   S    
C29   H37   S    
C5    C11   A    
C108  H56   S    
C71   H19   S    
C84   O52   A    
Cr12  O40   S    
C95   C99   A    
C72   H20   S    
C106  H49   S    
Cr6   O18   S    
C59   H11   S    
C80   O40   A    
C110  H61   S    
C29   C33   A    
Cr4   O44   S    
C15   H31   S    
Cr12  O12   S    
C25   C29   A    
C25   H33   S    
C111  H63   S    
C10   H26   S    
C81   O45   A    
C37   H41   S    
C37   C42   A    
C68   H16   S    
C80   O4    A    
C83   O47   A    
C27   H35   S    
C103  C104  A    
Cr1   O21   S    
C54   C74   A    
Cr9   O37   S    
Cr3   O19   S    
C40   C43   A    
Cr2   O22   S    
C20   C24   A    
C94   C101  A    
Cr5   O29   S    
C88   O8    A    
C70   C74   A    
Cr11  O15   S    
C47   C96   S    
C69   C73   A    
C13   H29   S    
C57   H9    S    
C44   C87   S    
C66   H14   S    
C9    C10   A    
C34   C78   S    
Cr3   O47   S    
C92   O44   A    
C112  H68   S    
Cr4   O48   S    
Cr8   O20   S    
C55   C75   A    
C44   C52   A    
Cr2   O2    S    
Cr9   O17   S    
C54   H6    S    
C32   H40   S    
C112  H66   S    
C48   O36   A    
Cr7   O19   S    
Cr3   O43   S    
Cr6   O50   S    
Cr9   O33   S    
C46   O30   A    
C17   O53   S    
C45   C94   S    
C41   C49   A    
O56   C108  S    
C83   O51   A    
C85   O9    A    
C46   O34   A    
Cr10  O14   S    
C63   C67   A    
C50   C110  S    
C11   H27   S    
C45   O33   A    
C55   H7    S    
C75   C91   S    
C71   C75   A    
C79   O39   A    
C30   C34   A    
C63   C82   S    
C27   C31   A    
C51   C52   A    
C6    C98   A    
C2    O22   A    
C28   C32   A    
C62   C66   A    
C19   O55   S    
C38   H42   S    
C38   C41   A    
Cr11  O11   S    
C36   C80   S    
C49   C109  S    
Cr1   O17   S    
C106  H48   S    
C1    O21   A    
C105  H45   S    
C82   O50   A    
Cr9   O9    S    
C107  H51   S    
Cr10  O18   S    
Cr11  O39   S    
Cr6   O30   S    
C17   C21   A    
C12   H28   S    
C48   O32   A    
Cr3   O23   S    
C68   C72   A    
C111  H64   S    
C6    H22   S    
C19   C23   A    
C2    O26   A    
C13   C33   A    
C37   C38   A    
C61   C65   A    
C65   H13   S    
Cr8   O32   S    
C84   O48   A    
C93   C97   A    
Cr1   O41   S    
C99   C100  A    
C60   H12   S    
C16   C20   A    
C26   H34   S    
C87   O11   A    
C7    C9    A    
C54   C58   A    
C91   O15   A    
C42   C85   S    
C4    O24   A    
Cr1   O45   S    
C109  H58   S    
Cr5   O5    S    
C42   C50   A    
Cr12  O16   S    
C45   O29   A    
Cr2   O46   S    
C76   C92   S    
C58   H10   S    
C23   C27   A    
C112  H67   S    
C22   C26   A    
C31   C35   A    
C59   C63   A    
C7    H23   S    
Cr7   O7    S    
Cr11  O19   S    
C18   O54   S    
C107  H53   S    
C64   C68   A    
C39   C40   A    
C107  H52   S    
C95   C104  A    
C78   O2    A    
Cr9   O13   S    
Cr8   O28   S    
C109  H57   S    
C47   O35   A    
Cr10  O10   S    
C21   C25   A    
C110  H62   S    
Cr6   O26   S    
C69   H17   S    
Cr10  O34   S    
C39   H43   S    
C86   O10   A    
C53   C73   A    
C40   H44   S    
Cr5   O49   S    
C103  H3    S    
C24   C28   A    
C79   O3    A    
C3    C22   S    
C61   C84   S    
C102  H2    S    
C93   C102  A    
C14   C34   A    
C31   H39   S    
C11   C12   A    
C32   C36   A    
C47   O31   A    
C57   C61   A    
C39   C44   A    
C18   C22   A    
C1    O25   A    
C87   O7    A    
C14   H30   S    
Cr7   O27   S    
C20   O56   S    
C82   O46   A    
C60   C64   A    
C8    H24   S    
C111  H65   S    
Cr5   O25   S    
C101  H1    S    
C4    O28   A    
C28   H36   S    
Cr12  O20   S    
Cr4   O24   S    
C8    C100  A    
C105  H46   S    
C85   O5    A    
C5    H21   S    
C108  H55   S    
C53   H5    S    
C16   C36   A    
C106  H50   S    
C6    C12   A    
C4    C21   S    
Cr6   O6    S    
C33   C77   S    
C16   H32   S    
C66   C70   A    
C46   C93   S    
C3    O23   A    
C65   C69   A    
C74   C90   S    
C96   C100  A    
C35   C79   S    
C77   O1    A    
C53   C57   A    
C5    C97   A    
C67   C71   A    
C105  H47   S    
Cr11  O35   S    
C67   H15   S    
C109  H59   S    
Cr7   O51   S    
C64   C81   S    
C15   C35   A    
C9    H25   S    
C90   O14   A    
C73   C89   S    
C13   C17   A    
Cr12  O36   S    
Cr5   O17   S    
C30   H38   S    
C56   C60   A    
Cr2   O42   S    
C1    C24   S    
C8    C10   A    
C49   C50   A    
Cr10  O38   S    
C96   C103  A    
C2    C23   S    
C70   H18   S    
C94   C98   A    
C56   H8    S    
Cr1   O1    S    
Cr3   O3    S    
C78   O38   A    
C104  H4    S    
C110  H60   S    
C3    O27   A    
Cr2   O18   S    
C91   O43   A    
C90   O42   A    
C26   C30   A    
Cr8   O8    S    
