data_mof_unit_35096.cif
_audit_creation_date              2012-12-11T17:29:41-0500
_audit_creation_method            fapswitch 2.2
_symmetry_space_group_name_H-M    P1
_symmetry_Int_Tables_number       1
_space_group_crystal_system       triclinic
_cell_length_a                    8.467884
_cell_length_b                    16.688041
_cell_length_c                    18.845148
_cell_angle_alpha                 101.023771
_cell_angle_beta                  91.675132
_cell_angle_gamma                 93.708755
_cell_volume                      2606.08625161

loop_
_atom_site_label
_atom_site_type_symbol
_atom_type_description
_atom_site_fract_x
_atom_site_fract_y
_atom_site_fract_z
_atom_type_partial_charge
Ba1   Ba    Ba6+2 0.845660 0.536000 0.465120 1.809828
Ba2   Ba    Ba6+2 0.344160 0.464070 0.534880 1.822223
C1    C     C_3   0.633764 0.819119 0.275426 0.270424
C2    C     C_R   0.913666 0.418827 0.096131 -0.084920
C3    C     C_R   0.782917 0.433634 0.952837 -0.105513
C4    C     C_3   0.120101 0.696008 0.268181 0.128092
C5    C     C_R   0.937459 0.464795 0.977733 0.051445
C6    C     C_R   0.727156 0.435047 0.883187 -0.094196
C7    C     C_R   0.822806 0.466510 0.834089 -0.007678
C8    C     C_R   0.974332 0.504951 0.858531 -0.029007
C9    C     C_R   0.031400 0.504261 0.930942 0.081254
C10   C     C_R   0.769920 0.460877 0.761494 0.002413
C11   C     C_R   0.870033 0.492566 0.713426 -0.253480
C12   C     C_3   0.626505 0.739550 0.304014 1.562097
C13   C     C_R   0.018116 0.534467 0.735677 0.015026
C14   C     C_R   0.067757 0.544416 0.811189 -0.092448
C15   C     C_R   0.151431 0.495923 0.072140 0.048861
C16   C     C_3   0.117011 0.716046 0.192266 -0.218677
C17   C     C_R   0.210513 0.496002 0.144197 -0.016476
C18   C     C_R   0.115000 0.462135 0.193556 -0.103205
C19   C     C_R   0.972163 0.418578 0.166161 -0.004900
C20   C     C_R   0.200304 0.596240 0.842932 0.431345
C21   C     C_R   0.255040 0.597069 0.915006 -0.097961
C22   C     C_R   0.181568 0.543052 0.956267 -0.066645
C23   C     C_3   0.573825 0.308743 0.305750 0.255167
C24   C     C_R   0.247633 0.530763 0.023997 0.019182
C25   C     C_R   0.410361 0.547323 0.043622 -0.096488
C26   C     C_R   0.366823 0.528473 0.166196 -0.120005
C27   C     C_R   0.467805 0.548853 0.113809 -0.066268
C28   C     C_3   0.207361 0.727876 0.633993 0.598692
C29   C     C_R   0.417068 0.539426 0.239671 0.042127
C30   C     C_R   0.309967 0.520602 0.290323 0.172954
C31   C     C_R   0.165522 0.473419 0.268177 -0.007365
C32   C     C_R   0.388760 0.728797 0.468559 -0.133684
C33   C     C_R   0.537862 0.754587 0.500989 0.015819
C34   C     C_3   0.618788 0.268215 0.229857 -0.442528
C35   C     C_R   0.601300 0.834510 0.500180 -0.136726
C36   C     C_R   0.515243 0.888118 0.466518 0.197804
C37   C     C_R   0.361779 0.861072 0.434909 -0.117004
C38   C     C_R   0.296356 0.781373 0.438146 0.080426
C39   C     C_R   0.617961 0.139922 0.484622 0.334090
C40   C     C_3   0.211276 0.821385 0.665849 0.163374
C41   C     C_R   0.666757 0.224127 0.489168 -0.124891
C42   C     C_R   0.724518 0.087215 0.510473 0.336032
C43   C     C_R   0.817303 0.252847 0.517126 -0.291401
C44   C     C_R   0.921610 0.203975 0.543831 0.011267
C45   C     C_3   0.049177 0.283679 0.728804 0.555617
C46   C     C_R   0.874620 0.121052 0.541017 -0.149273
C47   C     C_3   0.982529 0.276502 0.366231 0.659809
C48   C     C_3   0.945489 0.184565 0.337177 -0.171794
C49   C     C_3   0.694166 0.697854 0.699747 0.901802
C50   C     C_3   0.695355 0.755588 0.774783 0.240484
C51   C     C_2   0.261498 0.871632 0.610271 0.387807
C52   C     C_2   0.048766 0.844214 0.690853 0.764858
C53   C     C_2   0.089881 0.143882 0.308263 0.601321
C54   C     C_2   0.799172 0.727070 0.830330 0.551349
C55   C     C_2   0.425594 0.348824 0.300808 0.538136
C56   C     C_3   0.983631 0.232201 0.782713 0.301436
C57   C     C_2   0.156481 0.354736 0.767154 0.650989
C58   C     C_2   0.570338 0.214473 0.678366 0.463470
C59   C     C_2   0.637744 0.181682 0.847208 0.468241
C60   C     C_2   0.815817 0.482999 0.637976 0.541817
C61   C     C_2   0.374691 0.663031 0.949844 0.503707
C62   C     C_2   0.273564 0.918337 0.399815 0.607670
C63   C     C_2   0.959839 0.690094 0.153149 0.618205
C64   C     C_3   0.569788 0.267096 0.752914 0.266256
C65   C     C_3   0.507077 0.217241 0.809454 0.266659
C66   C     C_R   0.997866 0.460650 0.048674 0.003876
H1    H     H_    0.705507 0.747590 0.353375 -0.049005
H2    H     H_    0.608622 0.311071 0.191690 0.062738
H3    H     H_    0.743526 0.252594 0.230137 0.119403
H4    H     H_    0.564641 0.809590 0.222971 0.034835
H5    H     H_    0.208793 0.682585 0.160300 -0.003155
H6    H     H_    0.922553 0.272677 0.825500 -0.011512
H7    H     H_    0.897929 0.182750 0.753603 0.082335
H8    H     H_    0.690807 0.292631 0.770910 -0.135658
H9    H     H_    0.060554 0.634223 0.266288 0.014979
H10   H     H_    0.453647 0.260465 0.853012 0.106240
H11   H     H_    0.607220 0.410336 0.868561 0.100821
H12   H     H_    0.871605 0.303194 0.385781 -0.127306
H13   H     H_    0.901348 0.384758 0.198619 0.095405
H14   H     H_    0.592010 0.566687 0.126280 0.099953
H15   H     H_    0.699911 0.408368 0.986322 0.068282
H16   H     H_    0.801794 0.384551 0.080695 0.062040
H17   H     H_    0.246385 0.695024 0.285175 0.202951
H18   H     H_    0.496264 0.558599 0.004779 0.095551
H19   H     H_    0.715115 0.855324 0.527316 0.140409
H20   H     H_    0.954324 0.082747 0.562798 0.146449
H21   H     H_    0.341694 0.668252 0.470960 0.017053
H22   H     H_    0.857637 0.313180 0.512831 0.125770
H23   H     H_    0.852043 0.173762 0.293664 0.006382
H24   H     H_    0.146565 0.782643 0.195786 0.161178
H25   H     H_    0.328661 0.710758 0.619807 -0.073729
H26   H     H_    0.427043 0.834805 0.708454 0.320045
H27   H     H_    0.385663 0.879130 0.599490 -0.009496
H28   H     H_    0.946874 0.830695 0.653096 -0.014823
H29   H     H_    0.075582 0.332432 0.459038 0.312246
H30   H     H_    0.147706 0.162154 0.262628 -0.012487
H31   H     H_    0.849368 0.640917 0.640412 0.283145
H32   H     H_    0.640651 0.601369 0.739477 0.250846
H33   H     H_    0.788251 0.896208 0.247807 0.330460
H34   H     H_    0.899366 0.155316 0.381362 0.058097
H35   H     H_    0.770911 0.668706 0.846001 0.003832
H36   H     H_    0.542341 0.809484 0.838396 0.344042
H37   H     H_    0.353397 0.340240 0.250994 -0.137004
H38   H     H_    0.198771 0.399925 0.736763 0.012854
H39   H     H_    0.851449 0.270851 0.671894 0.262491
H40   H     H_    0.052372 0.165880 0.849283 0.332388
H41   H     H_    0.511110 0.232842 0.632943 0.056946
H42   H     H_    0.716533 0.222176 0.886716 -0.067295
H43   H     H_    0.433554 0.110203 0.749537 0.366695
H44   H     H_    0.728918 0.520618 0.620967 0.038959
H45   H     H_    0.742578 0.817601 0.768325 0.081383
H46   H     H_    0.261477 0.707055 0.836647 0.357865
H47   H     H_    0.264771 0.562204 0.388261 0.313619
H48   H     H_    0.361479 0.694071 0.005254 0.006568
H49   H     H_    0.413818 0.148334 0.435604 0.348105
H50   H     H_    0.338112 0.962246 0.373827 0.065909
H51   H     H_    0.913743 0.626635 0.145043 -0.028217
H52   H     H_    0.142885 0.664300 0.539452 0.288758
H53   H     H_    0.502710 0.726914 0.318668 -1.463096
H54   H     H_    0.580236 0.867108 0.314722 -0.020745
H55   H     H_    0.668323 0.355301 0.328782 0.062447
H56   H     H_    0.540532 0.211995 0.209332 0.150633
N1    N     N_2   0.572138 0.970933 0.466199 -0.176311
N2    N     N_2   0.683203 0.001872 0.510140 -0.173544
O1    O     O_2   0.884010 0.444810 0.325060 -0.506858
O2    O     O_2   0.255253 0.216033 0.549251 -0.439719
O3    O     O_3   0.136192 0.233308 0.676322 -0.579131
O4    O     O_3   0.132090 0.451130 0.414310 -0.438540
O5    O     O_3   0.558660 0.599640 0.536520 -0.463851
O6    O     O_2   0.381010 0.300300 0.465220 -0.373969
O7    O     O_3   0.549969 0.250237 0.349501 -0.647272
O8    O     O_2   0.455373 0.484250 0.754805 -0.447790
O9    O     O_3   0.470155 0.330840 0.751162 -0.615421
O10   O     O_3   0.640770 0.594650 0.368950 -0.388600
O11   O     O_2   0.746043 0.525030 0.242460 -0.536813
O12   O     O_3   0.632152 0.739237 0.648157 -0.662812
O13   O     O_3   0.041157 0.314021 0.310791 -0.656249
O14   O     O_3   0.675416 0.676075 0.250695 -0.657053
O15   O     O_2   0.808690 0.699720 0.534830 -0.430362
O16   O     O_3   0.053760 0.638480 0.405010 -0.539833
O17   O     O_2   0.964541 0.787063 0.451860 -0.399584
O18   O     O_3   0.318485 0.840849 0.726137 -0.648905
O19   O     O_2   0.165950 0.905316 0.578256 -0.551601
O20   O     O_2   0.030485 0.879022 0.752914 -0.496779
O21   O     O_3   0.096964 0.284249 0.422246 -0.703256
O22   O     O_2   0.142855 0.090113 0.335693 -0.548551
O23   O     O_3   0.044487 0.755139 0.316469 -0.537294
O24   O     O_3   0.850353 0.681344 0.685669 -0.822469
O25   O     O_3   0.599097 0.625997 0.699700 -0.682915
O26   O     O_3   0.791387 0.844366 0.266108 -0.700486
O27   O     O_2   0.915805 0.769465 0.858245 -0.530109
O28   O     O_3   0.541054 0.760310 0.799152 -0.659999
O29   O     O_2   0.382567 0.390079 0.355834 -0.527083
O30   O     O_2   0.196377 0.363295 0.831177 -0.594172
O31   O     O_3   0.921748 0.316870 0.698238 -0.840772
O32   O     O_3   0.104393 0.196875 0.815307 -0.614146
O33   O     O_2   0.640258 0.151852 0.668115 -0.631076
O34   O     O_2   0.305690 0.555220 0.674980 -0.367192
O35   O     O_2   0.654867 0.108287 0.835395 -0.510198
O36   O     O_3   0.386155 0.157202 0.779701 -0.607117
O37   O     O_2   0.862519 0.428672 0.593387 -0.576497
O38   O     O_3   0.267582 0.652058 0.806006 -0.611302
O39   O     O_3   0.356999 0.543512 0.361864 -0.674148
O40   O     O_2   0.491560 0.680878 0.918216 -0.540535
O41   O     O_3   0.470026 0.107555 0.456116 -0.685016
O42   O     O_2   0.129893 0.919740 0.401647 -0.490434
O43   O     O_2   0.883978 0.739540 0.129300 -0.528975
O44   O     O_3   0.103343 0.710594 0.573227 -0.756351
O45   O     O_3   0.057610 0.548940 0.585700 -0.509632
O46   O     O_3   0.548930 0.405410 0.631060 -0.481396
O47   O     O_3   0.153072 0.686428 0.687831 -0.521185
O48   O     O_3   0.631040 0.400420 0.463490 -0.433065
O49   O     O_3   0.135930 0.361590 0.595000 -0.449062
P1    P     P_3+3 0.056550 0.421630 0.336220 1.043969
P2    P     P_3+3 0.635450 0.689180 0.556380 1.019857
P3    P     P_3+3 0.090804 0.742201 0.404677 1.069821
P4    P     P_3+3 0.133150 0.578440 0.663790 1.126309
P5    P     P_3+3 0.112200 0.254039 0.588403 1.076359
P6    P     P_3+3 0.619453 0.582335 0.274732 1.081687
P7    P     P_3+3 0.559926 0.294933 0.442858 1.034901
P8    P     P_3+3 0.566617 0.417036 0.725762 0.964031

loop_
_geom_bond_atom_site_label_1
_geom_bond_atom_site_label_2
_ccdc_geom_bond_type
C33   P2    S    
C55   H37   S    
Ba1   P1    S    
C13   P4    S    
C25   C27   A    
H29   O21   S    
C17   C18   A    
C65   O36   S    
C58   O33   D    
O9    P8    S    
O8    P8    D    
O48   P7    S    
O5    P2    S    
C43   C44   A    
C16   C63   S    
C5    C9    A    
C37   C62   S    
C55   O29   D    
C42   N2    S    
C1    O26   S    
C4    H17   S    
C45   O3    S    
C59   O35   D    
C15   C24   A    
C26   C27   A    
C34   H56   S    
C22   C24   A    
C32   C33   A    
C28   H25   S    
C40   C51   S    
C36   C37   A    
C3    H15   S    
C10   P8    S    
O11   P6    D    
O47   P4    S    
C50   O28   S    
C13   C14   A    
C9    C22   A    
C62   H50   S    
C47   O21   S    
Ba1   Ba2   S    
O17   P3    D    
C31   P1    S    
C28   O44   S    
Ba1   O16   S    
O6    P7    D    
C5    C66   A    
C4    O23   S    
Ba1   P2    S    
C61   O40   D    
C11   C60   S    
C29   C30   A    
C49   O24   S    
C6    C7    A    
C2    H16   S    
O10   P6    S    
C6    H11   S    
Ba2   O6    S    
C21   C22   A    
C46   H20   S    
O2    P5    D    
H47   O39   S    
Ba1   O10   S    
C23   O7    S    
C7    C8    A    
C28   O47   S    
C52   H28   S    
C34   H3    S    
Ba2   O45   S    
C52   O20   D    
O7    P7    S    
C21   C61   S    
C64   C65   S    
C49   O25   S    
C12   H53   S    
C30   O39   S    
C29   P6    S    
C39   C41   A    
O45   P4    S    
O13   P1    S    
C65   H10   S    
C23   C55   S    
C59   H42   S    
H39   O31   S    
C34   H2    S    
C56   H7    S    
H32   O25   S    
C63   H51   S    
C4    C16   S    
O3    P5    S    
C44   C46   A    
Ba1   O48   S    
C57   H38   S    
C49   C50   S    
C44   P5    S    
Ba1   O4    S    
C56   O32   S    
C37   C38   A    
C2    C66   A    
C4    H9    S    
O4    P1    S    
C50   H45   S    
C45   C57   S    
Ba1   O45   S    
C63   O43   D    
C25   H18   S    
O34   P4    D    
C35   C36   A    
C17   C26   A    
Ba2   O49   S    
C20   O38   S    
C59   C65   S    
H46   O38   S    
C60   O37   D    
C58   H41   S    
H31   O24   S    
C51   H27   S    
C48   C53   S    
C64   H8    S    
C39   C42   A    
C51   O19   D    
Ba2   O5    S    
C24   C25   A    
C60   H44   S    
C10   C11   A    
C43   H22   S    
C23   H55   S    
C1    C12   S    
C38   P3    S    
C18   C31   A    
Ba2   O34   S    
C19   H13   S    
C48   H34   S    
C16   H5    S    
C47   O13   S    
C40   O18   S    
N1    N2    D    
C12   H1    S    
O15   P2    D    
Ba2   P4    S    
C61   H48   S    
Ba2   O4    S    
C36   N1    S    
C56   H6    S    
C3    C5    A    
C45   O31   S    
O1    P1    D    
C15   C66   A    
C14   C20   A    
H33   O26   S    
C33   C35   A    
C35   H19   S    
C26   C29   A    
C28   C40   S    
Ba1   O1    S    
C54   H35   S    
C12   O14   S    
C54   O27   D    
Ba1   O5    S    
C3    C6    A    
C57   O30   D    
C1    H54   S    
O49   P5    S    
C41   P7    S    
O14   P6    S    
C47   H12   S    
C16   H24   S    
C30   C31   A    
C11   C13   A    
C1    H4    S    
C32   H21   S    
H26   O18   S    
C27   H14   S    
C41   C43   A    
C8    C14   A    
C40   C52   S    
C45   C56   S    
C2    C19   A    
O46   P8    S    
H52   O44   S    
C53   O22   D    
O16   P3    S    
H49   O41   S    
C39   O41   S    
C53   H30   S    
O23   P3    S    
C15   C17   A    
C7    C10   A    
Ba1   O15   S    
C8    C9    A    
C23   C34   S    
C58   C64   S    
C64   O9    S    
C49   O12   S    
C50   C54   S    
C48   H23   S    
H40   O32   S    
C18   C19   A    
C62   O42   D    
C47   C48   S    
H43   O36   S    
C20   C21   A    
C32   C38   A    
H36   O28   S    
O12   P2    S    
Ba2   O48   S    
C42   C46   A    
Ba2   O46   S    
