data_mof_unit_54803.cif
_audit_creation_date              2012-12-10T17:11:04-0500
_audit_creation_method            fapswitch 2.2
_symmetry_space_group_name_H-M    P1
_symmetry_Int_Tables_number       1
_space_group_crystal_system       triclinic
_cell_length_a                    10.065507
_cell_length_b                    10.643709
_cell_length_c                    16.490679
_cell_angle_alpha                 90.45579
_cell_angle_beta                  86.237735
_cell_angle_gamma                 88.21268
_cell_volume                      1761.96407309

loop_
_atom_site_label
_atom_site_type_symbol
_atom_type_description
_atom_site_fract_x
_atom_site_fract_y
_atom_site_fract_z
_atom_type_partial_charge
C1    C     C_R   0.497456 0.737373 0.505185 0.924632
C2    C     C_R   0.523693 0.542549 0.259818 -0.089614
C3    C     C_2   0.591196 0.066618 0.542742 -0.137667
C4    C     C_R   0.482608 0.508654 0.653272 0.854276
C5    C     C_2   0.505868 0.129764 0.498453 -0.315821
C6    C     C_2   0.596785 0.930814 0.539664 -0.161560
C7    C     C_2   0.489207 0.868740 0.521811 -0.347336
C8    C     C_2   0.080532 0.423713 0.457192 -0.148698
C9    C     C_2   0.932997 0.409107 0.469453 -0.017648
C10   C     C_R   0.501788 0.262508 0.499741 0.932633
C11   C     C_R   0.516663 0.507898 0.346248 0.847564
C12   C     C_R   0.363227 0.541650 0.788759 -0.247455
C13   C     C_R   0.474528 0.560069 0.735484 -0.043760
C14   C     C_R   0.573597 0.641540 0.757142 -0.200882
C15   C     C_R   0.563906 0.701028 0.832214 -0.191216
C16   C     C_R   0.456267 0.678474 0.887397 0.142329
C17   C     C_R   0.353569 0.599438 0.865512 0.041995
C18   C     C_R   0.093624 0.545794 0.575880 0.286877
C19   C     C_R   0.054228 0.463608 0.638814 -0.151202
C20   C     C_R   0.008465 0.511450 0.715164 -0.166628
C21   C     C_R   0.004047 0.641086 0.729716 -0.108263
C22   C     C_R   0.045840 0.723046 0.668009 -0.179745
C23   C     C_R   0.423770 0.620511 0.139152 -0.186546
C24   C     C_R   0.091519 0.675569 0.591546 -0.173405
C25   C     C_R   0.885129 0.286460 0.443828 0.213313
C26   C     C_R   0.917834 0.178454 0.487684 -0.190529
C27   C     C_R   0.891541 0.059090 0.457760 -0.158885
C28   C     C_R   0.831311 0.046721 0.384270 -0.085112
C29   C     C_R   0.799742 0.153634 0.339874 -0.177233
C30   C     C_R   0.828782 0.272906 0.368781 -0.103901
C31   C     C_R   0.272396 0.591941 0.258338 0.140346
C32   C     C_R   0.234111 0.692236 0.311625 -0.076204
C33   C     C_R   0.101070 0.708675 0.341009 -0.152727
C34   C     C_R   0.409181 0.582511 0.219665 -0.030336
C35   C     C_R   0.005488 0.626424 0.316398 -0.124117
C36   C     C_R   0.043254 0.526540 0.263393 -0.159471
C37   C     C_R   0.176097 0.509267 0.234403 -0.152922
C38   C     C_R   0.243843 0.564975 0.924511 0.120717
C39   C     C_R   0.231974 0.439408 0.948788 -0.153154
C40   C     C_R   0.130886 0.406486 0.006075 -0.152141
C41   C     C_R   0.040634 0.498359 0.039131 -0.113973
C42   C     C_R   0.050929 0.623377 0.014753 -0.142031
C43   C     C_R   0.152063 0.656765 0.957448 -0.191197
C44   C     C_R   0.649578 0.546682 0.217796 -0.225262
C45   C     C_R   0.662468 0.588319 0.138109 -0.183706
C46   C     C_R   0.549948 0.625951 0.098435 0.184196
C47   C     C_2   0.467926 0.712323 0.972433 -0.243501
C48   C     C_2   0.564521 0.654035 0.011466 -0.226121
H1    H     H_    0.760375 0.590355 0.107039 0.122164
H2    H     H_    0.691302 0.882608 0.548785 0.164508
H3    H     H_    0.134676 0.365594 0.410931 0.162916
H4    H     H_    0.059924 0.362936 0.628706 0.114605
H5    H     H_    0.977698 0.447998 0.763297 0.138996
H6    H     H_    0.969157 0.677926 0.788959 0.130888
H7    H     H_    0.043331 0.823369 0.679510 0.131034
H8    H     H_    0.124248 0.739746 0.544256 0.127815
H9    H     H_    0.966264 0.186571 0.544135 0.115976
H10   H     H_    0.917699 0.976205 0.491607 0.116903
H11   H     H_    0.810194 0.954309 0.361458 0.126890
H12   H     H_    0.661972 0.114924 0.577960 0.162901
H13   H     H_    0.755331 0.143952 0.282226 0.127396
H14   H     H_    0.810811 0.353802 0.331665 0.122178
H15   H     H_    0.306890 0.758241 0.329421 0.110458
H16   H     H_    0.071812 0.785874 0.382143 0.113898
H17   H     H_    0.902406 0.639714 0.338682 0.136623
H18   H     H_    0.969858 0.462741 0.244114 0.111162
H19   H     H_    0.203637 0.432974 0.192155 0.132913
H20   H     H_    0.302086 0.367459 0.924159 0.124706
H21   H     H_    0.122877 0.309817 0.025149 0.124297
H22   H     H_    0.963181 0.472364 0.083815 0.115069
H23   H     H_    0.436957 0.085010 0.460332 0.135415
H24   H     H_    0.980801 0.694426 0.040405 0.127645
H25   H     H_    0.159177 0.753859 0.938943 0.121344
H26   H     H_    0.285821 0.480195 0.771378 0.158810
H27   H     H_    0.384005 0.760349 0.005037 0.151867
H28   H     H_    0.643877 0.759839 0.849058 0.140527
H29   H     H_    0.391257 0.914368 0.521204 0.148483
H30   H     H_    0.890726 0.586616 0.503137 0.165324
H31   H     H_    0.738920 0.519223 0.246786 0.144125
H32   H     H_    0.648092 0.608036 0.976555 0.158217
H33   H     H_    0.334537 0.643919 0.108581 0.149208
H34   H     H_    0.658558 0.660339 0.715700 0.164939
N1    N     N_2   0.147950 0.498670 0.499150 -0.139568
N2    N     N_2   0.852290 0.498640 0.499130 -0.211764
O1    O     O_R   0.386960 0.680940 0.500010 -0.626443
O2    O     O_R   0.613100 0.680900 0.499990 -0.621310
O3    O     O_R   0.373570 0.500040 0.615810 -0.603767
O4    O     O_R   0.599710 0.500000 0.615790 -0.611781
O5    O     O_R   0.386900 0.319100 0.500010 -0.620090
O6    O     O_R   0.613040 0.319060 0.499990 -0.590327
O7    O     O_R   0.400290 0.500000 0.384210 -0.600322
O8    O     O_R   0.626430 0.499960 0.384190 -0.625103
Zn1   Zn    Zn3+2 0.349000 0.500030 0.500020 0.943911
Zn2   Zn    Zn3+2 0.651000 0.499970 0.499980 0.927455

loop_
_geom_bond_atom_site_label_1
_geom_bond_atom_site_label_2
_ccdc_geom_bond_type
C43   H25   S    
C12   H26   S    
C8    N1    D    
C39   H20   S    
C19   C20   A    
C3    C6    S    
C9    C25   S    
C4    O3    A    
C45   C46   A    
C12   C13   A    
C26   C27   A    
C18   C24   A    
C36   C37   A    
C38   C39   A    
C36   H18   S    
C35   H17   S    
C15   C16   A    
N1    Zn1   S    
O3    Zn1   S    
C1    O2    A    
C18   C19   A    
C41   C42   A    
C4    C13   S    
O2    Zn2   S    
O1    Zn1   S    
C11   O8    A    
C31   C32   A    
C10   O5    A    
C2    C44   A    
C8    C9    S    
C12   C17   A    
C7    H29   S    
C3    H12   S    
C2    C34   A    
C15   H28   S    
C23   C46   A    
C13   C14   A    
C2    C11   S    
C19   H4    S    
C16   C47   S    
C42   H24   S    
O6    Zn2   S    
O4    Zn2   S    
C1    O1    A    
C29   H13   S    
C40   H21   S    
C39   C40   A    
C16   C17   A    
C25   C26   A    
C31   C37   A    
C35   C36   A    
C29   C30   A    
C11   O7    A    
O7    Zn1   S    
C47   C48   D    
C45   H1    S    
C23   C34   A    
O8    Zn2   S    
C18   N1    S    
C31   C34   S    
N2    Zn2   S    
C6    H2    S    
C8    H3    S    
C22   H7    S    
C40   C41   A    
C30   H14   S    
C22   C24   A    
C42   C43   A    
C14   H34   S    
C44   C45   A    
C28   H11   S    
C25   C30   A    
C28   C29   A    
C23   H33   S    
C1    C7    S    
C44   H31   S    
C32   H15   S    
C20   H5    S    
C3    C5    D    
C27   H10   S    
C6    C7    D    
C4    O4    A    
C24   H8    S    
C32   C33   A    
C48   H32   S    
C47   H27   S    
C38   C43   A    
C5    H23   S    
C21   H6    S    
C33   H16   S    
C37   H19   S    
C33   C35   A    
C17   C38   S    
O5    Zn1   S    
C26   H9    S    
C9    N2    D    
C46   C48   S    
H30   N2    S    
C5    C10   S    
C20   C21   A    
C10   O6    A    
C27   C28   A    
C14   C15   A    
C21   C22   A    
C41   H22   S    
