data_mof_unit_11409.cif
_audit_creation_date              2012-12-10T19:00:14-0500
_audit_creation_method            fapswitch 2.2
_symmetry_space_group_name_H-M    P1
_symmetry_Int_Tables_number       1
_space_group_crystal_system       triclinic
_cell_length_a                    9.585589
_cell_length_b                    10.804435
_cell_length_c                    13.435613
_cell_angle_alpha                 90.329228
_cell_angle_beta                  72.597069
_cell_angle_gamma                 89.726137
_cell_volume                      1327.73655956

loop_
_atom_site_label
_atom_site_type_symbol
_atom_type_description
_atom_site_fract_x
_atom_site_fract_y
_atom_site_fract_z
_atom_type_partial_charge
C1    C     C_R   0.498858 0.737571 0.502122 0.800648
C2    C     C_R   0.439454 0.506245 0.977583 0.087069
C3    C     C_R   0.466011 0.463986 0.873251 0.089122
C4    C     C_R   0.542786 0.476557 0.031170 0.081301
C5    C     C_R   0.663874 0.398189 0.982593 0.164315
C6    C     C_R   0.680646 0.349550 0.883522 -0.255345
C7    C     C_R   0.582136 0.380304 0.830283 -0.225918
C8    C     C_R   0.528750 0.520484 0.132331 -0.258319
C9    C     C_R   0.742560 0.404199 0.137670 -0.190337
C10   C     C_R   0.374618 0.505566 0.814487 -0.098711
C11   C     C_R   0.373140 0.937048 0.503081 0.119341
C12   C     C_R   0.421518 0.497609 0.699996 0.773005
C13   C     C_R   0.493557 0.870836 0.512825 -0.098779
C14   C     C_R   0.605780 0.935183 0.538108 -0.202233
C15   C     C_R   0.605597 0.064319 0.538695 -0.187628
C16   C     C_R   0.493913 0.129452 0.513129 -0.093484
C17   C     C_R   0.373427 0.064311 0.503121 0.113831
C18   C     C_3   0.298348 0.071044 0.420582 -0.438762
C19   C     C_3   0.298144 0.930466 0.420435 -0.452059
C20   C     C_R   0.965356 0.505284 0.408816 0.209018
C21   C     C_R   0.888204 0.502822 0.590805 -0.068795
C22   C     C_R   0.036246 0.502085 0.590811 -0.071613
C23   C     C_R   0.499191 0.262488 0.502304 0.811231
C24   C     C_R   0.111954 0.508379 0.409012 0.201570
C25   C     C_3   0.161009 0.423305 0.317727 -0.481131
C26   C     C_3   0.003069 0.416919 0.317807 -0.055967
C27   C     C_R   0.578369 0.497753 0.300217 0.803979
C28   C     C_R   0.764603 0.365498 0.035226 -0.189375
C29   C     C_R   0.622424 0.479222 0.187254 -0.051455
C30   C     C_R   0.245753 0.571072 0.864071 -0.189220
C31   C     C_R   0.212542 0.603293 0.968661 -0.142428
C32   C     C_R   0.309522 0.574782 0.024326 -0.186559
Cu1   Cu    Cu3+1 0.359330 0.500020 0.500010 0.943337
Cu2   Cu    Cu3+1 0.640670 0.499980 0.499990 0.962266
H1    H     H_    0.814362 0.369571 0.179655 0.174962
H2    H     H_    0.695643 0.112417 0.554464 0.183773
H3    H     H_    0.187076 0.112357 0.450469 0.221341
H4    H     H_    0.368508 0.111278 0.346604 0.201205
H5    H     H_    0.186700 0.890760 0.450078 0.204494
H6    H     H_    0.368292 0.888750 0.346382 0.195141
H7    H     H_    0.804068 0.504225 0.664889 0.154170
H8    H     H_    0.059603 0.502076 0.664609 0.138788
H9    H     H_    0.231579 0.470020 0.247850 0.172997
H10   H     H_    0.207104 0.335264 0.337163 0.231487
H11   H     H_    0.986805 0.459658 0.247099 0.133757
H12   H     H_    0.769831 0.286399 0.847203 0.147290
H13   H     H_    0.856696 0.305244 0.998785 0.143567
H14   H     H_    0.443538 0.584385 0.172104 0.131928
H15   H     H_    0.173386 0.602212 0.820792 0.147214
H16   H     H_    0.277929 0.606429 0.104060 0.117759
H17   H     H_    0.113395 0.654953 0.005969 0.144229
H18   H     H_    0.596707 0.335408 0.755698 0.165138
H19   H     H_    0.696411 0.886392 0.552957 0.168498
N1    N     N_R   0.852320 0.499070 0.499340 -0.169878
N2    N     N_R   0.148230 0.499110 0.499340 -0.174190
O1    O     O_R   0.381190 0.680360 0.500000 -0.576709
O2    O     O_R   0.618780 0.680320 0.499990 -0.580835
O3    O     O_R   0.323230 0.500000 0.650990 -0.591356
O4    O     O_R   0.560820 0.499960 0.650980 -0.594479
O5    O     O_R   0.381220 0.319680 0.500010 -0.577816
O6    O     O_R   0.618810 0.319640 0.500000 -0.551175
O7    O     O_R   0.439180 0.500040 0.349020 -0.583563
O8    O     O_R   0.676770 0.500000 0.349010 -0.574189
I1    I     I_    0.923394 0.231502 0.348493 -0.425466

loop_
_geom_bond_atom_site_label_1
_geom_bond_atom_site_label_2
_ccdc_geom_bond_type
C17   C18   S    
Cu1   N2    S    
Cu2   O2    S    
C2    C4    A    
C8    H14   S    
C28   H13   S    
C22   N2    A    
C27   O7    A    
C1    O2    A    
Cu1   O5    S    
C5    C28   A    
C27   C29   S    
C10   C30   A    
C31   C32   A    
C9    C29   A    
C30   C31   A    
C4    C8    A    
C12   O3    A    
C25   H9    S    
Cu1   O1    S    
C2    C3    A    
C18   H4    S    
C3    C10   A    
C22   H8    S    
C13   C14   A    
C24   N2    A    
C23   O5    A    
C11   C13   A    
C32   H16   S    
Cu1   O3    S    
C27   O8    A    
C21   H7    S    
C5    C6    A    
C19   H5    S    
C25   H10   S    
C2    C32   A    
Cu2   O8    S    
C18   H3    S    
Cu1   Cu2   S    
C7    H18   S    
Cu2   N1    S    
C16   C23   S    
C3    C7    A    
C21   N1    A    
C10   C12   S    
C1    O1    A    
Cu2   O4    S    
C1    C13   S    
C19   H6    S    
C8    C29   A    
C15   C16   A    
C16   C17   A    
C15   H2    S    
C23   O6    A    
C14   H19   S    
C24   C25   S    
C20   N1    A    
C18   C19   S    
C9    H1    S    
C26   I1    S    
C14   C15   A    
C11   C19   S    
C6    H12   S    
C26   H11   S    
C25   C26   S    
C21   C22   A    
C12   O4    A    
Cu1   O7    S    
C30   H15   S    
Cu2   O6    S    
C11   C17   A    
C6    C7    A    
C20   C24   A    
C9    C28   A    
C31   H17   S    
C4    C5    A    
C20   C26   S    
