data_mof_unit_43443.cif
_audit_creation_date              2012-12-11T20:51:14-0500
_audit_creation_method            fapswitch 2.2
_symmetry_space_group_name_H-M    P1
_symmetry_Int_Tables_number       1
_space_group_crystal_system       triclinic
_cell_length_a                    30.167632
_cell_length_b                    34.314671
_cell_length_c                    8.837956
_cell_angle_alpha                 90.610842
_cell_angle_beta                  90.837909
_cell_angle_gamma                 89.884603
_cell_volume                      9147.47058525

loop_
_atom_site_label
_atom_site_type_symbol
_atom_type_description
_atom_site_fract_x
_atom_site_fract_y
_atom_site_fract_z
_atom_type_partial_charge
Ba1   Ba    Ba6+2 0.999930 0.472870 0.844940 1.786897
Ba2   Ba    Ba6+2 0.999930 0.527130 0.344940 1.791991
Ba3   Ba    Ba6+2 0.499930 0.972870 0.844940 1.787750
Ba4   Ba    Ba6+2 0.499930 0.027130 0.344940 1.782037
C1    C     C_3   0.009983 0.272863 0.609531 -0.282856
C2    C     C_R   0.211010 0.334871 0.594123 0.580233
C3    C     C_R   0.409474 0.091306 0.679995 0.084065
C4    C     C_R   0.886516 0.377601 0.109463 0.276053
C5    C     C_R   0.873544 0.617049 0.663477 0.292470
C6    C     C_R   0.387138 0.877427 0.109319 0.274752
C7    C     C_R   0.371717 0.116065 0.666182 0.294601
C8    C     C_R   0.877788 0.344209 0.201286 0.140711
C9    C     C_R   0.873271 0.655525 0.731751 0.113458
C10   C     C_R   0.378306 0.844093 0.201287 0.139214
C11   C     C_R   0.370368 0.154206 0.736727 0.106719
C12   C     C_2   0.089154 0.585342 0.856472 -0.242001
C13   C     C_R   0.724933 0.163365 0.982828 0.644443
C14   C     C_2   0.075617 0.409666 0.377222 -0.227882
C15   C     C_2   0.582951 0.088955 0.861848 -0.211331
C16   C     C_2   0.571368 0.906128 0.389859 -0.266907
C17   C     C_3   0.166444 0.512585 0.214351 0.627626
C18   C     C_3   0.160657 0.491887 0.738701 0.612763
C19   C     C_3   0.663683 0.009700 0.229223 0.639182
C20   C     C_3   0.639139 0.016689 0.702203 0.654003
C21   C     C_3   0.204240 0.527435 0.117845 -0.240929
C22   C     C_3   0.190487 0.455827 0.740503 -0.204124
C23   C     C_3   0.706136 0.026038 0.163538 -0.283325
C24   C     C_R   0.712075 0.835926 0.597423 0.584134
C25   C     C_3   0.685789 0.023799 0.763290 -0.195329
C26   C     C_3   0.839914 0.514794 0.083837 0.643399
C27   C     C_3   0.843516 0.480073 0.576580 0.651163
C28   C     C_3   0.339643 0.014593 0.083407 0.643280
C29   C     C_3   0.343457 0.979848 0.575920 0.649937
C30   C     C_3   0.787380 0.521125 0.070084 0.055299
C31   C     C_3   0.792114 0.475588 0.615913 0.044028
C32   C     C_3   0.287112 0.020756 0.068848 0.055691
C33   C     C_3   0.292056 0.975220 0.615330 0.044024
C34   C     C_3   0.000117 0.314982 0.564396 1.008283
C35   C     C_R   0.170740 0.714149 0.958896 0.598473
C36   C     C_3   0.021895 0.681116 0.099338 0.994802
C37   C     C_3   0.499867 0.814614 0.568150 1.009604
C38   C     C_3   0.518497 0.182923 0.099913 0.993151
C39   C     C_R   0.936401 0.405464 0.296451 0.091228
C40   C     C_R   0.944265 0.601660 0.777349 0.097311
C41   C     C_R   0.435899 0.905931 0.298256 0.085571
C42   C     C_R   0.442764 0.101902 0.778666 0.100584
C43   C     C_3   0.863315 0.532935 0.950679 -0.253991
C44   C     C_3   0.908830 0.546688 0.994783 -0.276924
C45   C     C_3   0.849927 0.459991 0.422410 -0.225147
C46   C     C_R   0.191674 0.297212 0.373818 0.589314
C47   C     C_3   0.832866 0.418319 0.405276 -0.482364
C48   C     C_3   0.363086 0.032449 0.949906 -0.252600
C49   C     C_3   0.408501 0.046298 0.994521 -0.280314
C50   C     C_3   0.349617 0.960028 0.421293 -0.229074
C51   C     C_3   0.332796 0.918287 0.403379 -0.481280
C52   C     C_3   0.771970 0.564161 0.037032 -0.284910
C53   C     C_3   0.789554 0.594924 0.149268 -0.253039
C54   C     C_3   0.779362 0.435217 0.687325 -0.225204
C55   C     C_3   0.771186 0.433532 0.854834 -0.365582
C56   C     C_3   0.271596 0.063734 0.035026 -0.284055
C57   C     C_R   0.669903 0.213819 0.966541 0.602577
C58   C     C_3   0.288767 0.094625 0.147467 -0.252654
C59   C     C_3   0.279452 0.934800 0.686543 -0.226135
C60   C     C_3   0.271918 0.932996 0.854376 -0.363248
C61   C     C_3   0.760124 0.506762 0.206533 -0.204373
C62   C     C_3   0.747264 0.463715 0.199357 -0.436836
C63   C     C_3   0.770081 0.511745 0.689633 -0.186346
C64   C     C_3   0.752659 0.542361 0.579407 -0.436052
C65   C     C_3   0.259689 0.006445 0.205008 -0.203930
C66   C     C_3   0.246950 0.963372 0.198229 -0.437303
C67   C     C_3   0.269808 0.011263 0.688948 -0.187416
C68   C     C_R   0.692585 0.798255 0.377297 0.590289
C69   C     C_3   0.251817 0.041598 0.578598 -0.436954
C70   C     C_3   0.090497 0.248683 0.027699 -0.226093
C71   C     C_3   0.048751 0.225320 0.989289 -0.399693
C72   C     C_3   0.971026 0.741082 0.658928 -0.260379
C73   C     C_3   0.931841 0.747978 0.550776 -0.377142
C74   C     C_3   0.591736 0.749680 0.026384 -0.230221
C75   C     C_3   0.549727 0.726345 0.991631 -0.399835
C76   C     C_3   0.461423 0.241613 0.658233 -0.258430
C77   C     C_3   0.423333 0.250195 0.547432 -0.388904
C78   C     C_R   0.203262 0.743177 0.992104 -0.092241
C79   C     C_R   0.227881 0.271477 0.403267 -0.096979
C80   C     C_R   0.702357 0.242939 0.999075 -0.094705
C81   C     C_3   0.042484 0.717253 0.175737 -0.239245
C82   C     C_R   0.729262 0.772875 0.404936 -0.095856
C83   C     C_R   0.247103 0.731214 0.027754 -0.092839
C84   C     C_R   0.248404 0.273222 0.547395 -0.087912
C85   C     C_R   0.746560 0.231149 0.029817 -0.092345
C86   C     C_R   0.750228 0.774629 0.548283 -0.086060
C87   C     C_R   0.302338 0.680015 0.052918 -0.064138
C88   C     C_R   0.257126 0.304582 0.793080 -0.082903
C89   C     C_R   0.802410 0.180248 0.046857 -0.067664
C90   C     C_R   0.759373 0.805782 0.794078 -0.081111
C91   C     C_R   0.834764 0.207982 0.084958 -0.073297
C92   C     C_3   0.509015 0.772457 0.614227 -0.277908
C93   C     C_R   0.785721 0.774592 0.843250 -0.056714
C94   C     C_R   0.334743 0.707688 0.091069 -0.072495
C95   C     C_R   0.282901 0.273237 0.843793 -0.059573
C96   C     C_R   0.823830 0.247741 0.098766 -0.020552
C97   C     C_R   0.796895 0.743959 0.743426 -0.003704
C98   C     C_R   0.324097 0.747568 0.101252 -0.020632
C99   C     C_R   0.293983 0.242417 0.744881 -0.003050
C100  C     C_R   0.779518 0.259273 0.071560 -0.053696
C101  C     C_R   0.780840 0.745157 0.593469 -0.059756
C102  C     C_R   0.280059 0.759278 0.070051 -0.053557
C103  C     C_3   0.537740 0.219681 0.175883 -0.236464
C104  C     C_R   0.278511 0.243597 0.594228 -0.061396
C105  C     C_R   0.193312 0.783820 0.996184 0.394854
C106  C     C_R   0.242645 0.242447 0.298432 0.399595
C107  C     C_R   0.692035 0.283480 0.007000 0.395196
C108  C     C_R   0.744069 0.744134 0.298960 0.399185
C109  C     C_3   0.063056 0.319624 0.004490 0.680751
C110  C     C_3   0.008788 0.677267 0.569381 0.727128
C111  C     C_3   0.563818 0.820558 0.005705 0.679014
C112  C     C_3   0.501472 0.178472 0.571993 0.728490
C113  C     C_R   0.724162 0.310298 0.055889 -0.058266
C114  C     C_R   0.258222 0.691258 0.021694 -0.019335
C115  C     C_R   0.776824 0.717099 0.341769 -0.036567
C116  C     C_R   0.225311 0.810603 0.046422 -0.059181
C117  C     C_R   0.275083 0.215306 0.342818 -0.036099
C118  C     C_R   0.768006 0.298808 0.087459 -0.098987
C119  C     C_R   0.795099 0.716894 0.489172 -0.119235
C120  C     C_R   0.268802 0.798934 0.082608 -0.098733
C121  C     C_R   0.292908 0.215208 0.490831 -0.119647
C122  C     C_R   0.800595 0.326286 0.133019 0.593540
C123  C     C_R   0.828175 0.689694 0.533406 0.593618
C124  C     C_R   0.301302 0.826340 0.129505 0.594291
C125  C     C_R   0.238817 0.304481 0.645549 -0.003964
C126  C     C_R   0.325784 0.188057 0.536545 0.592222
C127  C     C_R   0.856166 0.276200 0.139022 0.602068
C128  C     C_R   0.823326 0.711997 0.790511 0.590614
C129  C     C_R   0.356460 0.775974 0.141715 0.601736
C130  C     C_R   0.319851 0.210318 0.793402 0.592828
C131  C     C_2   0.119723 0.646932 0.798180 -0.151902
C132  C     C_2   0.126872 0.361683 0.290085 -0.123938
C133  C     C_2   0.619988 0.147779 0.795504 -0.116989
C134  C     C_2   0.627086 0.862289 0.295504 -0.118448
C135  C     C_3   0.081440 0.622148 0.785563 -0.017250
C136  C     C_R   0.758023 0.191300 0.019593 -0.016716
C137  C     C_3   0.082543 0.377776 0.277339 -0.058973
C138  C     C_3   0.579995 0.125389 0.783080 -0.009860
C139  C     C_3   0.582126 0.877000 0.281412 -0.078419
C140  C     C_1   0.107557 0.584341 0.000749 -0.106640
C141  C     C_1   0.098539 0.412405 0.511611 0.000937
C142  C     C_1   0.604750 0.085702 0.000816 -0.091753
C143  C     C_1   0.596341 0.911091 0.518816 0.051076
C144  C     C_2   0.137796 0.614251 0.040762 0.376904
C145  C     C_2   0.125450 0.381727 0.557315 0.367898
C146  C     C_2   0.636582 0.114396 0.038906 0.368875
C147  C     C_R   0.740545 0.805722 0.647277 -0.013603
C148  C     C_2   0.624928 0.881523 0.563577 0.417543
C149  C     C_2   0.147096 0.645637 0.928829 0.278854
C150  C     C_2   0.146675 0.356983 0.435597 0.149696
C151  C     C_2   0.646953 0.145520 0.926885 0.275612
C152  C     C_2   0.646828 0.857469 0.441097 0.139598
C153  C     C_R   0.896721 0.341960 0.340568 -0.128368
C154  C     C_R   0.904562 0.664002 0.839444 -0.180851
C155  C     C_R   0.397137 0.841882 0.340729 -0.127492
C156  C     C_R   0.401077 0.162825 0.846224 -0.184140
C157  C     C_3   0.093324 0.287361 0.941426 -0.108911
C158  C     C_R   0.225055 0.663384 0.985377 0.648815
C159  C     C_3   0.011082 0.722048 0.581338 -0.143634
C160  C     C_3   0.593884 0.788437 0.940323 -0.112576
C161  C     C_3   0.501930 0.223374 0.580877 -0.152588
C162  C     C_R   0.926569 0.373219 0.397899 -0.025543
C163  C     C_R   0.937989 0.635018 0.885547 -0.091067
C164  C     C_R   0.426791 0.873224 0.398451 -0.028134
C165  C     C_R   0.435651 0.134671 0.889432 -0.093033
C166  C     C_R   0.913699 0.408876 0.164660 0.095723
C167  C     C_R   0.910582 0.591439 0.679133 0.072072
C168  C     C_R   0.413816 0.908945 0.165188 0.100468
H1    H     H_    0.193451 0.552441 0.048505 0.080628
H2    H     H_    0.204502 0.450467 0.626603 0.131358
H3    H     H_    0.779533 0.573748 0.921377 0.098185
H4    H     H_    0.735153 0.565675 0.036999 0.109099
H5    H     H_    0.800481 0.444754 0.916229 0.216617
H6    H     H_    0.740236 0.449117 0.881724 0.102002
H7    H     H_    0.766524 0.402724 0.888567 0.163485
H8    H     H_    0.748930 0.423797 0.629582 0.096145
H9    H     H_    0.805614 0.413273 0.670228 0.174862
H10   H     H_    0.282455 0.085967 0.265679 0.154502
H11   H     H_    0.324728 0.099665 0.132269 0.196345
H12   H     H_    0.271410 0.122658 0.126370 0.115323
H13   H     H_    0.721004 0.004644 0.084030 0.130315
H14   H     H_    0.279392 0.073341 0.919614 0.098145
H15   H     H_    0.234768 0.065104 0.033961 0.108686
H16   H     H_    0.301332 0.944370 0.914706 0.216807
H17   H     H_    0.240961 0.948408 0.882465 0.101498
H18   H     H_    0.267558 0.902154 0.888057 0.165022
H19   H     H_    0.248791 0.923505 0.629883 0.096064
H20   H     H_    0.305561 0.912810 0.668015 0.174288
H21   H     H_    0.720214 0.459353 0.114971 0.135586
H22   H     H_    0.775903 0.445020 0.171096 0.195735
H23   H     H_    0.733608 0.454509 0.308965 0.127213
H24   H     H_    0.709084 0.027808 0.668488 0.127249
H25   H     H_    0.777796 0.514180 0.311406 0.138829
H26   H     H_    0.728149 0.522708 0.215619 0.103949
H27   H     H_    0.779682 0.553599 0.509264 0.205762
H28   H     H_    0.725803 0.529975 0.506509 0.119090
H29   H     H_    0.738672 0.567303 0.644195 0.124003
H30   H     H_    0.740799 0.503308 0.755593 0.108935
H31   H     H_    0.794816 0.526168 0.761563 0.123698
H32   H     H_    0.219826 0.958919 0.114168 0.135393
H33   H     H_    0.275617 0.944739 0.169710 0.196079
H34   H     H_    0.233442 0.954183 0.308080 0.126932
H35   H     H_    0.775539 0.503634 0.975258 0.036301
H36   H     H_    0.277172 0.013978 0.310075 0.138187
H37   H     H_    0.227662 0.022340 0.213405 0.103832
H38   H     H_    0.278587 0.052969 0.507718 0.205382
H39   H     H_    0.224993 0.028893 0.506386 0.119367
H40   H     H_    0.237655 0.066484 0.643262 0.123824
H41   H     H_    0.240731 0.002639 0.755601 0.109096
H42   H     H_    0.294538 0.025943 0.760086 0.124965
H43   H     H_    0.013430 0.308362 0.350215 0.285764
H44   H     H_    0.041456 0.693387 0.897106 0.291003
H45   H     H_    0.513611 0.807702 0.354398 0.286319
H46   H     H_    0.773991 0.474153 0.507051 0.039320
H47   H     H_    0.535591 0.196276 0.896023 0.288005
H48   H     H_    0.145573 0.787192 0.851337 0.329220
H49   H     H_    0.222844 0.267265 0.114177 0.319917
H50   H     H_    0.643047 0.286951 0.867039 0.328406
H51   H     H_    0.723735 0.769223 0.115925 0.320287
H52   H     H_    0.148326 0.596245 0.245674 0.308051
H53   H     H_    0.131807 0.341867 0.707958 0.308758
H54   H     H_    0.648521 0.095132 0.241856 0.310422
H55   H     H_    0.633716 0.842507 0.715701 0.300549
H56   H     H_    0.855303 0.356616 0.932747 0.317026
H57   H     H_    0.275523 0.003132 0.974112 0.035688
H58   H     H_    0.810770 0.617628 0.615659 0.296527
H59   H     H_    0.356908 0.856046 0.931490 0.317282
H60   H     H_    0.308981 0.115680 0.617912 0.296449
H61   H     H_    0.954321 0.445501 0.436423 0.287438
H62   H     H_    0.001460 0.590399 0.866403 0.276234
H63   H     H_    0.452124 0.945477 0.443440 0.287754
H64   H     H_    0.499158 0.090995 0.870306 0.274217
H65   H     H_    0.000245 0.330111 0.022763 0.295393
H66   H     H_    0.949279 0.657027 0.533794 0.270845
H67   H     H_    0.500985 0.830700 0.026441 0.294025
H68   H     H_    0.273880 0.973724 0.506529 0.040189
H69   H     H_    0.440491 0.161979 0.542111 0.270376
H70   H     H_    0.018533 0.241590 0.022242 0.195429
H71   H     H_    0.047345 0.218170 0.866549 0.129903
H72   H     H_    0.049511 0.197559 0.052685 0.129174
H73   H     H_    0.119691 0.230506 0.997690 0.150912
H74   H     H_    0.092306 0.254109 0.151809 0.162214
H75   H     H_    0.942002 0.766590 0.455324 0.144718
H76   H     H_    0.918535 0.720156 0.505223 0.190815
H77   H     H_    0.904838 0.763032 0.612516 0.115218
H78   H     H_    0.960264 0.723425 0.755497 0.151654
H79   H     H_    0.040659 0.262234 0.554417 0.063595
H80   H     H_    0.981500 0.769889 0.705585 0.140224
H81   H     H_    0.519756 0.742786 0.025912 0.193713
H82   H     H_    0.547643 0.718870 0.869264 0.130381
H83   H     H_    0.550763 0.698747 0.056051 0.130534
H84   H     H_    0.620681 0.731521 0.993577 0.150410
H85   H     H_    0.594507 0.755015 0.150376 0.164885
H86   H     H_    0.433870 0.271930 0.463033 0.141777
H87   H     H_    0.412263 0.223472 0.486902 0.191330
H88   H     H_    0.394765 0.262336 0.610381 0.117714
H89   H     H_    0.449800 0.222739 0.749785 0.144256
H90   H     H_    0.068519 0.729964 0.104741 0.146724
H91   H     H_    0.471607 0.269707 0.711898 0.141991
H92   H     H_    0.155023 0.467590 0.337931 0.293000
H93   H     H_    0.168204 0.547905 0.745576 0.289570
H94   H     H_    0.644925 0.961624 0.320158 0.288078
H95   H     H_    0.596300 0.042765 0.577589 0.314050
H96   H     H_    0.539595 0.761379 0.559787 0.063232
H97   H     H_    0.171502 0.430006 0.775811 0.130859
H98   H     H_    0.563577 0.232831 0.105030 0.147585
H99   H     H_    0.013994 0.270578 0.733301 0.129613
H100  H     H_    0.058270 0.709570 0.285251 0.097374
H101  H     H_    0.512842 0.770343 0.738148 0.128818
H102  H     H_    0.553303 0.212656 0.286523 0.098364
H103  H     H_    0.128175 0.297669 0.952698 0.085174
H104  H     H_    0.041295 0.729675 0.648849 0.073134
H105  H     H_    0.628744 0.798821 0.949610 0.085282
H106  H     H_    0.532019 0.232203 0.646810 0.069160
H107  H     H_    0.714781 0.340753 0.063943 0.138134
H108  H     H_    0.699394 0.053478 0.102717 0.080010
H109  H     H_    0.787688 0.695877 0.258428 0.159592
H110  H     H_    0.216169 0.841149 0.051741 0.137325
H111  H     H_    0.286041 0.193912 0.260291 0.159827
H112  H     H_    0.868439 0.198069 0.104854 0.120227
H113  H     H_    0.798231 0.775010 0.958769 0.124024
H114  H     H_    0.368202 0.697635 0.114071 0.121230
H115  H     H_    0.295131 0.273706 0.959641 0.123356
H116  H     H_    0.888593 0.318108 0.414380 0.124420
H117  H     H_    0.906026 0.692160 0.894888 0.157095
H118  H     H_    0.388988 0.818035 0.414537 0.125699
H119  H     H_    0.696861 0.998397 0.830712 0.077380
H120  H     H_    0.401636 0.190676 0.904086 0.159329
H121  H     H_    0.312009 0.649613 0.048306 0.124555
H122  H     H_    0.250015 0.328118 0.871776 0.117054
H123  H     H_    0.812340 0.149947 0.039098 0.121070
H124  H     H_    0.752215 0.829137 0.873517 0.119946
H125  H     H_    0.125531 0.668999 0.713559 0.106327
H126  H     H_    0.143452 0.351532 0.188997 0.124607
H127  H     H_    0.626483 0.170209 0.712976 0.093571
H128  H     H_    0.643932 0.852379 0.194604 0.130716
H129  H     H_    0.981962 0.253694 0.574280 0.103454
H130  H     H_    0.232406 0.536807 0.191827 0.115354
H131  H     H_    0.016702 0.739918 0.193864 0.075816
H132  H     H_    0.480735 0.753581 0.578985 0.102777
H133  H     H_    0.511177 0.241726 0.192277 0.072809
H134  H     H_    0.084451 0.558361 0.792704 0.060932
H135  H     H_    0.046181 0.427143 0.359744 0.134289
H136  H     H_    0.566459 0.063666 0.813116 0.068872
H137  H     H_    0.538680 0.918637 0.384677 0.145213
H138  H     H_    0.065377 0.317449 0.129580 -0.090316
H139  H     H_    0.003108 0.666116 0.685342 -0.078649
H140  H     H_    0.566198 0.817752 0.130484 -0.085666
H141  H     H_    0.218198 0.459867 0.823145 0.097066
H142  H     H_    0.497501 0.167153 0.688411 -0.075476
H143  H     H_    0.086866 0.282587 0.818670 0.085751
H144  H     H_    0.015171 0.735026 0.468399 0.108480
H145  H     H_    0.586747 0.783707 0.817938 0.088611
H146  H     H_    0.505349 0.235801 0.466548 0.114143
H147  H     H_    0.159701 0.534146 0.305385 0.037894
H148  H     H_    0.140833 0.493226 0.843363 0.036616
H149  H     H_    0.653993 0.028854 0.324658 0.055658
H150  H     H_    0.617024 0.013455 0.800713 -0.025534
H151  H     H_    0.042681 0.342553 0.691981 0.342116
H152  H     H_    0.730525 0.032119 0.256121 0.105307
H153  H     H_    0.053809 0.641755 0.215260 0.321110
H154  H     H_    0.542329 0.842352 0.696239 0.339935
H155  H     H_    0.553603 0.144677 0.210677 0.321397
H156  H     H_    0.920704 0.541769 0.110525 0.185996
H157  H     H_    0.933629 0.534156 0.918222 0.144315
H158  H     H_    0.904803 0.577658 0.994502 0.061985
H159  H     H_    0.865878 0.511240 0.859853 0.131110
H160  H     H_    0.845675 0.557730 0.899180 0.026224
H161  H     H_    0.849989 0.398329 0.483504 0.142660
H162  H     H_    0.796627 0.415759 0.416778 0.142123
H163  H     H_    0.686345 0.050440 0.835566 0.052814
H164  H     H_    0.837012 0.409389 0.288154 0.166649
H165  H     H_    0.830069 0.475585 0.341552 0.135970
H166  H     H_    0.884857 0.461831 0.390751 -0.003745
H167  H     H_    0.420480 0.041258 0.110012 0.185322
H168  H     H_    0.433414 0.034231 0.917334 0.142537
H169  H     H_    0.403996 0.077158 0.996439 0.062695
H170  H     H_    0.365764 0.010580 0.859744 0.131367
H171  H     H_    0.345467 0.057130 0.897529 0.024808
H172  H     H_    0.350061 0.898292 0.481207 0.142599
H173  H     H_    0.296579 0.915543 0.415187 0.141263
H174  H     H_    0.215870 0.503954 0.040774 0.131051
H175  H     H_    0.336943 0.909504 0.286021 0.168082
H176  H     H_    0.329518 0.975707 0.341408 0.136461
H177  H     H_    0.384343 0.962240 0.388604 0.006993
H178  H     H_    0.874748 0.516645 0.262989 0.309377
H179  H     H_    0.900074 0.460221 0.644800 0.298600
H180  H     H_    0.374184 0.016980 0.263255 0.310256
H181  H     H_    0.400123 0.960181 0.643766 0.298067
H182  H     H_    0.783325 0.586275 0.267537 0.154494
H183  H     H_    0.825535 0.599733 0.133586 0.196368
H184  H     H_    0.772400 0.623073 0.128563 0.114290
N1    N     N_R   0.181675 0.674860 0.957098 -0.416411
N2    N     N_R   0.184084 0.329852 0.465986 -0.423217
N3    N     N_R   0.681337 0.174690 0.958330 -0.415463
N4    N     N_R   0.684763 0.830726 0.470268 -0.424795
N5    N     N_R   0.844483 0.315153 0.155640 -0.424793
N6    N     N_R   0.840711 0.685657 0.685234 -0.425428
N7    N     N_R   0.345001 0.815049 0.155411 -0.424588
N8    N     N_R   0.337697 0.184040 0.688975 -0.424450
O1    O     O_2   0.914200 0.445720 0.903420 -0.385288
O2    O     O_3   0.049151 0.663432 0.509787 -0.622016
O3    O     O_3   0.626672 0.048553 0.615344 -0.751230
O4    O     O_3   0.578657 0.857018 0.952344 -0.568994
O5    O     O_3   0.541817 0.166331 0.508602 -0.619037
O6    O     O_3   0.049930 0.518940 0.045960 -0.429123
O7    O     O_3   0.049930 0.481060 0.545960 -0.456241
O8    O     O_3   0.549930 0.018940 0.045960 -0.438329
O9    O     O_3   0.549930 0.981060 0.545960 -0.509380
O10   O     O_2   0.234875 0.628849 0.978420 -0.575012
O11   O     O_2   0.210823 0.365690 0.664244 -0.596899
O12   O     O_2   0.734991 0.128939 0.972199 -0.589177
O13   O     O_2   0.914200 0.554280 0.403420 -0.434168
O14   O     O_2   0.711680 0.866723 0.667899 -0.555008
O15   O     O_2   0.132338 0.723713 0.935309 -0.607928
O16   O     O_2   0.165818 0.289214 0.270962 -0.618476
O17   O     O_2   0.631134 0.223109 0.949375 -0.603486
O18   O     O_2   0.666538 0.790055 0.275230 -0.617301
O19   O     O_2   0.789769 0.360248 0.152590 -0.613231
O20   O     O_2   0.846166 0.670062 0.435810 -0.533522
O21   O     O_2   0.290563 0.860382 0.147352 -0.613413
O22   O     O_2   0.344236 0.168528 0.439675 -0.534956
O23   O     O_2   0.894731 0.266286 0.158734 -0.569706
O24   O     O_2   0.414200 0.945720 0.903420 -0.386192
O25   O     O_2   0.830134 0.707452 0.925753 -0.583522
O26   O     O_2   0.394849 0.765900 0.164219 -0.570205
O27   O     O_2   0.325784 0.205606 0.928990 -0.584347
O28   O     O_3   0.950020 0.480960 0.143730 -0.478557
O29   O     O_3   0.950020 0.519040 0.643730 -0.476511
O30   O     O_3   0.450020 0.980960 0.143730 -0.474474
O31   O     O_3   0.450020 0.019040 0.643730 -0.479024
O32   O     O_3   0.985090 0.412220 0.642040 -0.454532
O33   O     O_3   0.985090 0.587780 0.142040 -0.467732
O34   O     O_3   0.485090 0.912220 0.642040 -0.460949
O35   O     O_2   0.414200 0.054280 0.403420 -0.430756
O36   O     O_3   0.485090 0.087780 0.142040 -0.469366
O37   O     O_2   0.906419 0.383187 0.700963 -0.442931
O38   O     O_2   0.913547 0.628541 0.187844 -0.410046
O39   O     O_2   0.406315 0.883541 0.700492 -0.440248
O40   O     O_2   0.412736 0.126929 0.192818 -0.404935
O41   O     O_3   0.852109 0.474121 0.087490 -0.679755
O42   O     O_3   0.854569 0.520934 0.570826 -0.627871
O43   O     O_3   0.352057 0.973976 0.088513 -0.681283
O44   O     O_3   0.354585 0.020720 0.570646 -0.627836
O45   O     O_3   0.966009 0.329527 0.659195 -0.579666
O46   O     O_3   0.133253 0.492351 0.608005 -0.647591
O47   O     O_3   0.982287 0.672158 0.174327 -0.537578
O48   O     O_3   0.465734 0.829591 0.661834 -0.579569
O49   O     O_3   0.480188 0.172013 0.178776 -0.538829
O50   O     O_2   0.085560 0.445380 0.786390 -0.432015
O51   O     O_2   0.085560 0.554620 0.286390 -0.466267
O52   O     O_2   0.585560 0.945380 0.786390 -0.399696
O53   O     O_2   0.585560 0.054620 0.286390 -0.488387
O54   O     O_3   0.014550 0.412170 0.047860 -0.451036
O55   O     O_3   0.014550 0.587830 0.547860 -0.402255
O56   O     O_3   0.514550 0.912170 0.047860 -0.456256
O57   O     O_3   0.129159 0.503867 0.121266 -0.620819
O58   O     O_3   0.514550 0.087830 0.547860 -0.410391
O59   O     O_2   0.101073 0.425391 0.044280 -0.423258
O60   O     O_2   0.099723 0.602624 0.486984 -0.462441
O61   O     O_2   0.600790 0.926615 0.050255 -0.406544
O62   O     O_2   0.596034 0.110002 0.473533 -0.429084
O63   O     O_3   0.038560 0.337628 0.582205 -0.772366
O64   O     O_3   0.051898 0.649853 0.107872 -0.781301
O65   O     O_3   0.538629 0.836810 0.586736 -0.779729
O66   O     O_3   0.550267 0.152970 0.103851 -0.778392
O67   O     O_3   0.852098 0.533525 0.218353 -0.732571
O68   O     O_3   0.640007 0.983639 0.608810 -0.640325
O69   O     O_3   0.869382 0.461072 0.683491 -0.710169
O70   O     O_3   0.351608 0.033702 0.217450 -0.732133
O71   O     O_3   0.369408 0.960674 0.682174 -0.709909
O72   O     O_3   0.986834 0.314341 0.411279 -0.758347
O73   O     O_3   0.012597 0.689881 0.947702 -0.800088
O74   O     O_3   0.486944 0.813989 0.414672 -0.759817
O75   O     O_3   0.507379 0.191817 0.949638 -0.798455
O76   O     O_3   0.152820 0.798725 0.951929 -0.696916
O77   O     O_3   0.227856 0.240378 0.150224 -0.705471
O78   O     O_3   0.651093 0.298272 0.967310 -0.697356
O79   O     O_3   0.631058 0.005258 0.113302 -0.620346
O80   O     O_3   0.729005 0.742282 0.151022 -0.706510
O81   O     O_3   0.157594 0.617951 0.182012 -0.704644
O82   O     O_3   0.123176 0.369700 0.704890 -0.671514
O83   O     O_3   0.656681 0.117592 0.179975 -0.701165
O84   O     O_3   0.624743 0.870248 0.712251 -0.652420
O85   O     O_3   0.865298 0.382335 0.971639 -0.657396
O86   O     O_3   0.837489 0.603319 0.581950 -0.689012
O87   O     O_3   0.366292 0.881907 0.970763 -0.656247
O88   O     O_3   0.336029 0.101900 0.583950 -0.687941
O89   O     O_3   0.965863 0.433720 0.342452 -0.713301
O90   O     O_3   0.077715 0.355827 0.948442 -0.574266
O91   O     O_3   0.980138 0.577388 0.796979 -0.705933
O92   O     O_3   0.463617 0.935250 0.346919 -0.716184
O93   O     O_3   0.479069 0.078243 0.796538 -0.714492
O94   O     O_3   0.019042 0.313275 0.957923 -0.745674
O95   O     O_3   0.974110 0.666056 0.471161 -0.668415
O96   O     O_3   0.519751 0.814559 0.958933 -0.747533
O97   O     O_3   0.466670 0.165544 0.477689 -0.661685
O98   O     O_3   0.180870 0.478236 0.284145 -0.711506
O99   O     O_3   0.187980 0.524869 0.737073 -0.715794
O100  O     O_3   0.673510 0.972943 0.288664 -0.697154
P1    P     P_3+3 0.909970 0.458430 0.077330 1.034848
P2    P     P_3+3 0.061092 0.617466 0.584573 1.015465
P3    P     P_3+3 0.567934 0.893538 0.086161 1.043791
P4    P     P_3+3 0.558081 0.121148 0.581227 1.017038
P5    P     P_3+3 0.956261 0.631154 0.092619 1.078949
P6    P     P_3+3 0.946421 0.375081 0.597850 1.050857
P7    P     P_3+3 0.454972 0.130737 0.095813 1.080705
P8    P     P_3+3 0.446449 0.875051 0.598520 1.046597
P9    P     P_3+3 0.909970 0.541570 0.577330 1.069574
P10   P     P_3+3 0.409970 0.958430 0.077330 1.036495
P11   P     P_3+3 0.409970 0.041570 0.577330 1.073712
P12   P     P_3+3 0.089830 0.458070 0.612460 1.002911
P13   P     P_3+3 0.089830 0.541930 0.112460 0.994398
P14   P     P_3+3 0.589830 0.958070 0.612460 1.019971
P15   P     P_3+3 0.589830 0.041930 0.112460 0.981127
P16   P     P_3+3 0.067852 0.392719 0.081380 1.039010

loop_
_geom_bond_atom_site_label_1
_geom_bond_atom_site_label_2
_ccdc_geom_bond_type
C17   O98   S    
C95   C99   A    
C47   H161  S    
C30   C52   S    
Ba2   O7    S    
C69   H40   S    
C72   H78   S    
C35   O15   D    
C131  C135  A    
C140  P13   S    
H59   O87   S    
C126  N8    Am   
C12   C140  A    
O41   P1    S    
C46   N2    Am   
C134  C139  A    
Ba3   P10   S    
C129  O26   D    
C84   C104  A    
Ba4   O9    S    
H181  O71   S    
Ba1   O6    S    
C163  P5    S    
C78   C83   A    
C2    O11   D    
C96   C100  A    
C52   C53   S    
C101  C119  A    
C56   C58   S    
C130  N8    Am   
C28   C48   S    
C58   H11   S    
C142  C146  A    
C7    C11   A    
C148  C152  S    
H66   O95   S    
C45   C47   S    
H52   O81   S    
C130  O27   D    
C8    C153  D    
Ba4   P15   S    
C49   H167  S    
C19   H149  S    
C79   C84   A    
C43   H159  S    
C19   O79   S    
O2    P2    S    
C76   H91   S    
H53   O82   S    
C33   C59   S    
O55   P2    S    
C154  C163  S    
C60   H17   S    
C159  H104  S    
C66   H32   S    
C77   H87   S    
C1    H99   S    
H95   O3    S    
C83   C114  A    
C82   C86   A    
C67   C69   S    
C70   H73   S    
C112  O5    S    
C128  O25   D    
C123  N6    Am   
C90   C93   A    
C94   C98   A    
Ba4   O30   S    
H54   O83   S    
C73   H75   S    
H67   O96   S    
O90   P16   S    
C3    C42   D    
C132  C137  A    
O36   P7    S    
C22   H97   S    
C69   H38   S    
C110  O2    S    
C75   H81   S    
O43   P10   S    
C157  H143  S    
H92   O98   S    
C145  O82   S    
C81   H131  S    
C115  C119  A    
C33   C67   S    
C8    N5    S    
C5    C167  A    
C144  C149  S    
C134  H128  S    
C72   H80   S    
C41   C168  D    
C17   O57   S    
C39   C162  S    
C45   H165  S    
C114  C158  A    
C50   H177  S    
C51   H175  S    
C146  O83   S    
C74   C75   S    
C128  N6    Am   
C86   C101  A    
H62   O91   S    
C57   C80   A    
H49   O77   S    
H51   O80   S    
Ba2   P9    S    
C109  O90   S    
C36   O47   S    
H47   O75   S    
C30   H35   S    
C67   H42   S    
C37   O48   S    
C11   C156  D    
C20   O3    S    
C74   H85   S    
C88   C125  A    
C87   C94   A    
C111  O4    S    
C63   H31   S    
C109  C157  S    
C97   C128  A    
C21   H1    S    
C102  C120  A    
C71   H70   S    
C54   H8    S    
C68   N4    Am   
H180  O70   S    
C1    H129  S    
Ba2   O28   S    
C123  O20   D    
C105  C116  A    
C68   O18   D    
C92   H96   S    
O52   P14   D    
C133  C138  A    
C25   H163  S    
C161  H106  S    
C111  O96   S    
H61   O89   S    
C115  H109  S    
C109  O94   S    
C150  N2    S    
Ba3   O34   S    
C167  P9    S    
C162  P6    S    
C54   H9    S    
C28   C32   S    
C81   H100  S    
C106  C117  A    
Ba3   O52   S    
C37   C92   S    
C100  C118  A    
O56   P3    S    
C59   H20   S    
O61   P3    D    
C26   O67   S    
C36   O64   S    
C133  C151  A    
C65   H36   S    
C23   H13   S    
C144  O81   S    
O47   P5    S    
C5    C9    A    
C157  H103  S    
C44   H157  S    
Ba4   O8    S    
C48   H171  S    
C16   H137  S    
C29   O44   S    
C158  O10   D    
C31   C63   S    
C38   O75   S    
O32   P6    S    
C161  H146  S    
C13   N3    Am   
C89   C91   A    
C6    O87   S    
C103  H98   S    
C65   C66   S    
C112  H142  S    
C84   C125  A    
C53   H182  S    
C156  H120  S    
C18   O99   S    
C153  H116  S    
C17   H147  S    
C15   C142  A    
C26   C30   S    
C137  P16   S    
C18   H148  S    
C78   C105  A    
C34   O72   S    
C40   O91   S    
O39   P8    D    
C6    C10   A    
O33   P5    S    
Ba2   O33   S    
C57   O17   D    
H151  O63   S    
O51   P13   D    
Ba1   P1    S    
C21   H130  S    
Ba2   O55   S    
C113  C118  A    
C106  O77   S    
C117  C121  A    
C122  O19   D    
C19   O100  S    
C119  C123  A    
C138  P4    S    
C4    C8    A    
C85   C136  A    
C37   O65   S    
Ba4   O35   S    
C79   C106  A    
C41   O92   S    
C60   H16   S    
C27   O69   S    
C146  C151  S    
C18   C22   S    
C160  H105  S    
C133  H127  S    
Ba3   Ba4   S    
O40   P7    D    
C48   C49   S    
C29   C50   S    
C17   C21   S    
C47   H164  S    
C23   H152  S    
C69   H39   S    
C14   C137  A    
O5    P4    S    
C12   H134  S    
Ba2   O51   S    
C23   H108  S    
C112  O97   S    
C10   C155  D    
C107  C113  A    
C3    P11   S    
O8    P15   S    
C98   C129  A    
C164  P8    S    
C127  O23   D    
C48   H170  S    
C14   H135  S    
C35   N1    Am   
O6    P13   S    
H154  O65   S    
O59   P16   D    
C39   C166  D    
C58   H12   S    
C59   C60   S    
O62   P4    D    
O30   P10   S    
C24   C147  A    
O50   P12   D    
O29   P9    S    
C72   C159  S    
C139  P3    S    
C117  H111  S    
C62   H22   S    
C53   H184  S    
Ba2   P13   S    
C88   C95   A    
C11   N8    S    
C24   N4    Am   
C81   H90   S    
C14   C141  A    
O28   P1    S    
C62   H23   S    
O57   P13   S    
C4    O85   S    
C39   O89   S    
C66   H33   S    
C74   C160  S    
C141  P12   S    
C77   H86   S    
Ba1   O32   S    
O68   P14   S    
Ba3   O56   S    
C64   H27   S    
H58   O86   S    
C105  O76   S    
C151  N3    S    
C99   C130  A    
Ba1   O54   S    
Ba3   P14   S    
C131  H125  S    
C70   H74   S    
C38   O49   S    
C22   H2    S    
C6    C168  A    
C20   O68   S    
C88   H122  S    
C168  P10   S    
C89   H123  S    
C18   O46   S    
Ba2   O13   S    
C90   H124  S    
C20   C25   S    
C71   H72   S    
O58   P4    S    
C50   C51   S    
H179  O69   S    
Ba4   O58   S    
C32   H57   S    
H69   O97   S    
C46   C79   A    
C156  C165  S    
Ba3   O9    S    
C38   C103  S    
C120  C124  A    
C116  H110  S    
C47   H162  S    
C1    C34   S    
C142  P15   S    
Ba2   O6    S    
C16   C139  A    
C166  P1    S    
C27   C45   S    
O1    P1    D    
C4    C166  A    
C55   H6    S    
O48   P8    S    
C22   H141  S    
O49   P7    S    
C80   C107  A    
C63   C64   S    
O4    P3    S    
C35   C78   A    
H93   O99   S    
C122  N5    Am   
C91   C96   A    
C159  H144  S    
C33   H68   S    
C49   H169  S    
Ba1   O7    S    
C90   C147  A    
C67   H41   S    
C29   C33   S    
H153  O64   S    
C36   C81   S    
C145  C150  S    
C58   H10   S    
C132  C150  A    
C124  O21   D    
C34   O63   S    
C21   H174  S    
C49   H168  S    
C52   H4    S    
C43   H160  S    
C15   C138  A    
Ba3   O8    S    
C31   C54   S    
C27   C31   S    
C112  C161  S    
C158  N1    Am   
C73   H77   S    
C76   C161  S    
C62   H21   S    
C51   H172  S    
C77   H88   S    
C13   O12   D    
C64   H29   S    
C110  O95   S    
O13   P9    D    
C86   C147  A    
C93   H113  S    
C108  C115  A    
C68   C82   A    
C95   H115  S    
C109  H138  S    
C34   O45   S    
H155  O66   S    
C73   H76   S    
C74   H84   S    
C55   H7    S    
C111  H140  S    
C54   C55   S    
C40   C167  D    
O34   P8    S    
C89   C136  A    
C28   O70   S    
O79   P15   S    
C59   H19   S    
O53   P15   D    
H65   O94   S    
O42   P9    S    
O24   P10   D    
H63   O92   S    
C155  H118  S    
O35   P11   D    
C44   H158  S    
C46   O16   D    
C91   H112  S    
C38   O66   S    
C27   O42   S    
C26   O41   S    
C154  H117  S    
H43   O72   S    
C40   C163  S    
C141  C145  A    
C160  H145  S    
C45   H166  S    
C50   H176  S    
C1    H79   S    
C140  C144  A    
Ba4   P11   S    
C124  N7    Am   
C96   C127  A    
C103  H133  S    
C3    C7    A    
C149  N1    S    
C143  P14   S    
C10   N7    S    
C36   O73   S    
C108  O80   S    
C37   O74   S    
Ba3   O31   S    
O44   P11   S    
Ba1   O29   S    
C155  C164  S    
Ba1   Ba2   S    
H48   O76   S    
C111  C160  S    
C103  H102  S    
H94   O100  S    
C107  O78   S    
C116  C120  A    
C121  C126  A    
C9    N6    S    
Ba4   O36   S    
C99   C104  A    
C19   C23   S    
C104  C121  A    
C25   H119  S    
H178  O67   S    
H60   O88   S    
C148  O84   S    
C127  N5    Am   
C92   H101  S    
O9    P14   S    
C126  O22   D    
C2    C125  A    
C165  P7    S    
C30   C61   S    
O45   P6    S    
C41   C164  S    
C132  H126  S    
Ba1   P12   S    
C2    N2    Am   
C97   C101  A    
C66   H34   S    
C87   C114  A    
C70   C71   S    
C52   H3    S    
C110  H139  S    
O60   P2    D    
C26   C43   S    
C55   H5    S    
C72   C73   S    
Ba4   O53   S    
C87   H121  S    
H50   O78   S    
H64   O93   S    
O37   P6    D    
C118  C122  A    
C82   C108  A    
C29   O71   S    
C43   C44   S    
H45   O74   S    
C16   C143  A    
C61   H26   S    
H44   O73   S    
C61   H25   S    
Ba1   O50   S    
C57   N3    Am   
O54   P16   S    
C85   C100  A    
C12   C135  A    
C65   H37   S    
C80   C85   A    
O46   P12   S    
C53   H183  S    
C31   H46   S    
C75   H82   S    
C9    C154  D    
C32   C65   S    
C134  C152  A    
C56   H14   S    
C28   O43   S    
Ba1   O1    S    
C15   H136  S    
C42   O93   S    
C76   H89   S    
C76   C77   S    
C32   C56   S    
C153  C162  S    
C70   C157  S    
C60   H18   S    
C56   H15   S    
C25   H24   S    
C92   H132  S    
C152  N4    S    
C131  C149  A    
C42   C165  S    
C20   H150  S    
C64   H28   S    
C143  C148  A    
C113  H107  S    
C63   H30   S    
H56   O85   S    
C110  C159  S    
C83   C102  A    
C44   H156  S    
C98   C102  A    
C13   C136  A    
C24   O14   D    
C135  P2    S    
H55   O84   S    
O7    P12   S    
O38   P5    D    
C71   H71   S    
Ba3   O24   S    
O31   P11   S    
C7    O88   S    
C51   H173  S    
C61   C62   S    
C129  N7    Am   
C75   H83   S    
C5    O86   S    
C93   C97   A    
C94   H114  S    
