data_mof_unit_14675.cif
_audit_creation_date              2012-12-10T16:52:38-0500
_audit_creation_method            fapswitch 2.2
_symmetry_space_group_name_H-M    P1
_symmetry_Int_Tables_number       1
_space_group_crystal_system       triclinic
_cell_length_a                    7.839829
_cell_length_b                    8.569203
_cell_length_c                    13.794603
_cell_angle_alpha                 93.316257
_cell_angle_beta                  93.176757
_cell_angle_gamma                 94.246011
_cell_volume                      920.98495457

loop_
_atom_site_label
_atom_site_type_symbol
_atom_type_description
_atom_site_fract_x
_atom_site_fract_y
_atom_site_fract_z
_atom_type_partial_charge
C1    C     C_R   0.045183 0.794678 0.497549 0.964571
C2    C     C_R   0.936228 0.486121 0.318113 0.866345
C3    C     C_R   0.092486 0.517949 0.787022 -0.058727
C4    C     C_R   0.899355 0.452622 0.214652 -0.069118
C5    C     C_R   0.033907 0.620709 0.947190 -0.189851
C6    C     C_R   0.920168 0.285235 0.069680 -0.191220
C7    C     C_R   0.985788 0.595534 0.848591 -0.194845
C8    C     C_R   0.986108 0.342149 0.161901 -0.190025
C9    C     C_R   0.237991 0.454513 0.824824 -0.275377
C10   C     C_R   0.752268 0.509409 0.174466 -0.278092
C11   C     C_R   0.288249 0.476568 0.923444 0.087211
C12   C     C_R   0.954798 0.205315 0.502379 0.965851
C13   C     C_R   0.673094 0.440817 0.087918 0.091624
C14   C     C_R   0.187804 0.567170 0.984200 0.179673
C15   C     C_R   0.762492 0.331834 0.032981 0.174184
C16   C     C_R   0.442839 0.421533 0.961063 0.062516
C17   C     C_R   0.507185 0.477157 0.055505 0.062494
C18   C     C_R   0.401643 0.563275 0.115555 -0.236647
C19   C     C_R   0.535004 0.313010 0.907498 -0.230478
C20   C     C_R   0.244053 0.606227 0.080362 -0.222251
C21   C     C_R   0.691630 0.268357 0.943485 -0.225583
C22   C     C_2   0.068621 0.958444 0.496091 -0.387916
C23   C     C_2   0.931335 0.041542 0.503738 -0.385360
C24   C     C_R   0.063109 0.510885 0.682008 0.867836
H1    H     H_    0.167470 0.673132 0.128190 0.149922
H2    H     H_    0.870722 0.643416 0.819869 0.157880
H3    H     H_    0.434805 0.595351 0.191325 0.157105
H4    H     H_    0.486071 0.255281 0.839019 0.148094
H5    H     H_    0.487099 0.374476 0.427629 0.189504
H6    H     H_    0.512896 0.625567 0.572336 0.188737
H7    H     H_    0.757441 0.183676 0.901038 0.146594
H8    H     H_    0.698194 0.603323 0.214916 0.149577
H9    H     H_    0.316735 0.397268 0.774325 0.159092
H10   H     H_    0.954292 0.686566 0.993732 0.140745
H11   H     H_    0.988525 0.200545 0.028872 0.138392
H12   H     H_    0.197906 0.010036 0.488781 0.179178
H13   H     H_    0.802047 0.989952 0.511038 0.179009
H14   H     H_    0.100721 0.296543 0.193029 0.159620
N1    N     N_2   0.440860 0.456490 0.474790 -0.174643
N2    N     N_2   0.559140 0.543510 0.525210 -0.173915
O1    O     O_R   0.891570 0.738930 0.506190 -0.611465
O2    O     O_R   0.108430 0.261070 0.493810 -0.611942
O3    O     O_R   0.174650 0.711050 0.490030 -0.625063
O4    O     O_R   0.825350 0.288950 0.509970 -0.624257
O5    O     O_R   0.909850 0.521900 0.644940 -0.615927
O6    O     O_R   0.090150 0.478100 0.355060 -0.618963
O7    O     O_R   0.192930 0.494020 0.628780 -0.622141
O8    O     O_R   0.807070 0.505980 0.371220 -0.616993
Zn1   Zn    Zn3+2 0.810990 0.518620 0.510790 0.934356
Zn2   Zn    Zn3+2 0.189010 0.481380 0.489210 0.930692

loop_
_geom_bond_atom_site_label_1
_geom_bond_atom_site_label_2
_ccdc_geom_bond_type
O4    Zn1   S    
C2    C4    S    
O3    Zn2   S    
C3    C9    A    
O5    Zn1   S    
C9    C11   A    
C11   C16   A    
O6    Zn2   S    
C18   C20   A    
C13   C17   A    
C4    C8    A    
C5    H10   S    
H5    N1    S    
C17   C18   A    
C5    C14   A    
H6    N2    S    
C1    C22   S    
C12   O4    A    
C2    O6    A    
C9    H9    S    
C19   H4    S    
C21   H7    S    
C12   C23   S    
C3    C24   S    
C7    H2    S    
C8    H14   S    
O2    Zn2   S    
C16   C19   A    
C6    C8    A    
C24   O5    A    
O1    Zn1   S    
O8    Zn1   S    
C19   C21   A    
O7    Zn2   S    
C3    C7    A    
C13   C15   A    
C11   C14   A    
C20   H1    S    
C4    C10   A    
N2    Zn1   S    
C10   H8    S    
C15   C21   A    
N1    Zn2   S    
C22   H12   S    
C6    H11   S    
C14   C20   A    
C1    O1    A    
N1    N2    D    
C5    C7    A    
C22   C23   D    
C12   O2    A    
C2    O8    A    
C6    C15   A    
C23   H13   S    
C24   O7    A    
C1    O3    A    
C18   H3    S    
C16   C17   A    
C10   C13   A    
