data_mof_unit_55863.cif
_audit_creation_date              2012-12-10T17:22:39-0500
_audit_creation_method            fapswitch 2.2
_symmetry_space_group_name_H-M    P1
_symmetry_Int_Tables_number       1
_space_group_crystal_system       triclinic
_cell_length_a                    10.629884
_cell_length_b                    10.860749
_cell_length_c                    9.58482
_cell_angle_alpha                 90.509152
_cell_angle_beta                  90.276224
_cell_angle_gamma                 92.689815
_cell_volume                      1105.27510716

loop_
_atom_site_label
_atom_site_type_symbol
_atom_type_description
_atom_site_fract_x
_atom_site_fract_y
_atom_site_fract_z
_atom_type_partial_charge
C1    C     C_R   0.510569 0.263277 0.500152 0.802985
C2    C     C_3   0.962635 0.599179 0.430769 -0.183069
C3    C     C_3   0.039776 0.495367 0.366597 -0.164874
C4    C     C_3   0.122495 0.499393 0.498738 0.006681
C5    C     C_R   0.590538 0.124805 0.751778 -0.154887
C6    C     C_R   0.579503 0.067769 0.880960 -0.155006
C7    C     C_R   0.517731 0.952767 0.890421 -0.142195
C8    C     C_R   0.478852 0.889549 0.769330 -0.168293
C9    C     C_R   0.502445 0.940565 0.635491 0.091277
C10   C     C_R   0.539918 0.066529 0.629567 0.095416
C11   C     C_R   0.523190 0.129705 0.502324 -0.110381
C12   C     C_R   0.259397 0.499433 0.499588 0.796005
C13   C     C_R   0.501087 0.062863 0.378531 -0.191477
C14   C     C_R   0.490433 0.935634 0.380517 -0.214808
C15   C     C_R   0.490372 0.872615 0.507461 -0.116753
C16   C     C_R   0.668474 0.663627 0.146385 -0.152086
C17   C     C_R   0.751247 0.742826 0.075094 -0.222048
C18   C     C_R   0.751542 0.742260 0.931340 -0.198171
C19   C     C_R   0.668745 0.662806 0.858023 -0.152076
C20   C     C_R   0.582882 0.580202 0.926292 0.190884
C21   C     C_R   0.582786 0.580362 0.075965 0.211662
C22   C     C_R   0.421564 0.423273 0.072747 -0.071377
C23   C     C_R   0.493902 0.737722 0.501712 0.779159
C24   C     C_R   0.421582 0.423322 0.924755 -0.064227
C25   C     C_R   0.740511 0.500710 0.500431 0.767460
C26   C     C_3   0.037558 0.400415 0.569409 -0.208791
C27   C     C_3   0.953185 0.398202 0.438507 0.022293
C28   C     C_3   0.877310 0.500506 0.501261 -0.013627
C29   C     C_3   0.960406 0.504482 0.632997 -0.151607
C30   C     C_3   0.047766 0.603266 0.562468 -0.155042
Cu1   Cu    Cu3+1 0.499990 0.499990 0.640660 0.917913
Cu2   Cu    Cu3+1 0.500010 0.500010 0.359340 0.934387
H1    H     H_    0.426177 0.803507 0.784223 0.169147
H2    H     H_    0.479621 0.886677 0.281884 0.163857
H3    H     H_    0.357308 0.360399 0.127103 0.135345
H4    H     H_    0.676235 0.672115 0.256427 0.198747
H5    H     H_    0.815519 0.805330 0.132159 0.154954
H6    H     H_    0.815755 0.804558 0.875866 0.154533
H7    H     H_    0.675544 0.671249 0.748147 0.203958
H8    H     H_    0.357370 0.360425 0.868418 0.142871
H9    H     H_    0.070922 0.318819 0.625174 0.132564
H10   H     H_    0.089989 0.687713 0.613444 0.127696
H11   H     H_    0.928952 0.680403 0.374563 0.128885
H12   H     H_    0.074320 0.490808 0.257607 0.141598
H13   H     H_    0.491444 0.108850 0.279459 0.162913
H14   H     H_    0.640815 0.213577 0.748834 0.163020
H15   H     H_    0.615386 0.114523 0.974189 0.146502
N1    N     N_R   0.501210 0.501210 0.147910 -0.197479
N2    N     N_R   0.501250 0.501290 0.852040 -0.203868
O1    O     O_R   0.499990 0.319640 0.618810 -0.590355
O2    O     O_R   0.500000 0.319660 0.381240 -0.576394
O3    O     O_R   0.316850 0.499960 0.618770 -0.580586
O4    O     O_R   0.316860 0.499980 0.381190 -0.583696
O5    O     O_R   0.500000 0.680340 0.618760 -0.613711
O6    O     O_R   0.500010 0.680360 0.381190 -0.600044
O7    O     O_R   0.683140 0.500020 0.618810 -0.608248
O8    O     O_R   0.683150 0.500040 0.381230 -0.591465
C31   C     C_1   0.898452 0.285990 0.371349 0.205135
N3    N     N_1   0.855006 0.197590 0.318519 -0.301206
H16   H     H_    0.502101 0.911199 0.991517 0.140431
H17   H     H_    0.925449 0.508730 0.741838 0.149571

loop_
_geom_bond_atom_site_label_1
_geom_bond_atom_site_label_2
_ccdc_geom_bond_type
C14   H2    S    
C22   N1    A    
Cu2   O2    S    
C23   O6    A    
C20   N2    A    
Cu1   O7    S    
C4    C12   S    
C1    O2    A    
C1    O1    A    
C2    H11   S    
Cu2   O6    S    
C4    C26   S    
C12   O4    A    
C1    C11   S    
C25   O7    A    
Cu1   O3    S    
C2    C30   S    
C21   N1    A    
C15   C23   S    
C17   C18   A    
C18   H6    S    
C5    C10   A    
C17   H5    S    
C13   C14   A    
C16   H4    S    
C25   C28   S    
C13   H13   S    
C22   H3    S    
Cu2   N1    S    
C26   C27   S    
C29   C30   S    
C19   H7    S    
Cu2   O8    S    
Cu1   N2    S    
C9    C10   A    
C3    C27   S    
C28   C29   S    
C12   O3    A    
C7    H16   S    
C2    C3    S    
C6    C7    A    
C22   C24   A    
C8    H1    S    
Cu1   O5    S    
C9    C15   A    
C5    C6    A    
C29   H17   S    
C3    H12   S    
C7    C8    A    
C10   C11   A    
Cu1   O1    S    
C3    C4    S    
C25   O8    A    
C16   C17   A    
C6    H15   S    
Cu2   O4    S    
C11   C13   A    
C20   C21   A    
C23   O5    A    
C18   C19   A    
C5    H14   S    
C24   N2    A    
C14   C15   A    
C30   H10   S    
C2    C28   S    
C26   C29   S    
C24   H8    S    
C31   N3    T    
C16   C21   A    
Cu1   Cu2   S    
C4    C30   S    
C19   C20   A    
C26   H9    S    
C8    C9    A    
C27   C28   S    
C27   C31   S    
