data_mof_unit_48745.cif
_audit_creation_date              2012-12-10T17:11:31-0500
_audit_creation_method            fapswitch 2.2
_symmetry_space_group_name_H-M    P1
_symmetry_Int_Tables_number       1
_space_group_crystal_system       triclinic
_cell_length_a                    15.032876
_cell_length_b                    13.001146
_cell_length_c                    11.746191
_cell_angle_alpha                 100.700255
_cell_angle_beta                  94.776958
_cell_angle_gamma                 90.403645
_cell_volume                      2247.38194969

loop_
_atom_site_label
_atom_site_type_symbol
_atom_type_description
_atom_site_fract_x
_atom_site_fract_y
_atom_site_fract_z
_atom_type_partial_charge
C1    C     C_R   0.502557 0.299023 0.477715 0.852078
C2    C     C_R   0.497380 0.700976 0.522286 0.837695
C3    C     C_R   0.035088 0.349202 0.341476 -0.190284
C4    C     C_R   0.965076 0.651878 0.658169 -0.181702
C5    C     C_R   0.491818 0.815057 0.535976 -0.118932
C6    C     C_R   0.507983 0.184942 0.463997 -0.116131
C7    C     C_R   0.533047 0.011501 0.354226 -0.238324
C8    C     C_R   0.466604 0.988501 0.645636 -0.242657
C9    C     C_R   0.533142 0.120014 0.360963 -0.011960
C10   C     C_R   0.466325 0.879977 0.638851 -0.015219
C11   C     C_R   0.486185 0.139872 0.557911 -0.251029
C12   C     C_R   0.513756 0.860139 0.442118 -0.255302
C13   C     C_R   0.488366 0.032262 0.551265 0.150712
C14   C     C_R   0.511484 0.967740 0.448698 0.150232
C15   C     C_R   0.405659 0.418005 0.018037 -0.323880
C16   C     C_R   0.594087 0.583627 0.981657 -0.329233
C17   C     C_R   0.414459 0.423047 0.139417 0.205096
C18   C     C_R   0.584374 0.578686 0.860176 0.214928
C19   C     C_R   0.542702 0.533710 0.157941 0.018861
C20   C     C_R   0.457771 0.466040 0.842113 0.019716
C21   C     C_R   0.534751 0.529716 0.035317 0.047773
C22   C     C_R   0.465658 0.470811 0.964687 0.044156
C23   C     C_R   0.328779 0.499834 0.499717 0.832921
C24   C     C_R   0.671264 0.500612 0.500345 0.819743
C25   C     C_R   0.819677 0.576824 0.578160 -0.197722
C26   C     C_R   0.180508 0.424270 0.421612 -0.217334
C27   C     C_R   0.767896 0.500878 0.500175 -0.063667
C28   C     C_R   0.232216 0.499947 0.499848 -0.062413
C29   C     C_R   0.808229 0.426399 0.419867 -0.232243
C30   C     C_R   0.191909 0.574424 0.580136 -0.231051
C31   C     C_R   0.900989 0.425319 0.419448 0.099465
C32   C     C_R   0.099151 0.575669 0.580324 0.100839
C33   C     C_R   0.953406 0.500779 0.499640 0.059903
C34   C     C_R   0.046737 0.500288 0.500011 0.065036
C35   C     C_R   0.912510 0.576969 0.579187 0.104796
C36   C     C_R   0.087654 0.424116 0.420447 0.106825
C37   C     C_R   0.942222 0.349948 0.340799 -0.190373
C38   C     C_R   0.057933 0.651065 0.658937 -0.196356
Cu1   Cu    Cu3+1 0.506660 0.507730 0.615930 0.992241
Cu2   Cu    Cu3+1 0.493340 0.492270 0.384070 0.994731
H1    H     H_    0.787574 0.637220 0.635689 0.165173
H2    H     H_    0.212956 0.364098 0.364314 0.160830
H3    H     H_    0.351440 0.372232 0.964937 0.163755
H4    H     H_    0.648206 0.630053 0.034133 0.153055
H5    H     H_    0.767417 0.368686 0.358918 0.183097
H6    H     H_    0.232719 0.631972 0.641254 0.182843
H7    H     H_    0.902659 0.291544 0.278995 0.155717
H8    H     H_    0.097500 0.709408 0.720817 0.156954
H9    H     H_    0.065782 0.290299 0.280119 0.148115
H10   H     H_    0.934374 0.710753 0.719565 0.160230
H11   H     H_    0.533529 0.811349 0.363357 0.161928
H12   H     H_    0.466528 0.188673 0.636734 0.161285
H13   H     H_    0.552252 0.961115 0.276124 0.166330
H14   H     H_    0.447254 0.038911 0.723638 0.166494
H15   H     H_    0.404780 0.419078 0.788388 0.131865
H16   H     H_    0.595887 0.580258 0.211729 0.130970
N1    N     N_R   0.516670 0.519360 0.790130 -0.223157
N2    N     N_R   0.483330 0.480640 0.209870 -0.220195
O1    O     O_R   0.504720 0.354460 0.582000 -0.603184
O2    O     O_R   0.495280 0.645540 0.418000 -0.601704
O3    O     O_R   0.493480 0.341410 0.386200 -0.521618
O4    O     O_R   0.506520 0.658590 0.613800 -0.530741
O5    O     O_R   0.375880 0.506510 0.597910 -0.582596
O6    O     O_R   0.624120 0.493490 0.402090 -0.584119
O7    O     O_R   0.364640 0.493450 0.402110 -0.578440
O8    O     O_R   0.635360 0.506550 0.597890 -0.577726
C39   C     C_2   0.434735 0.838739 0.738318 0.911388
O9    O     O_2   0.459927 0.880912 0.837852 -0.555698
O10   O     O_R   0.373208 0.754957 0.718806 -0.778643
H17   H     H_    0.356885 0.734319 0.793669 0.328065
C40   C     C_2   0.564057 0.161315 0.261195 0.894972
O11   O     O_2   0.537540 0.119940 0.161862 -0.561210
O12   O     O_R   0.626381 0.244287 0.280174 -0.779123
H18   H     H_    0.642177 0.265081 0.205168 0.327966
C41   C     C_2   0.652335 0.637132 0.813824 0.868722
O13   O     O_2   0.729710 0.608975 0.819700 -0.622687
O14   O     O_R   0.631055 0.730461 0.776461 -0.741918
H19   H     H_    0.684495 0.765235 0.750699 0.312215
C42   C     C_2   0.343561 0.365972 0.183185 0.862649
O15   O     O_2   0.361548 0.296328 0.237332 -0.586128
O16   O     O_R   0.254520 0.383321 0.148326 -0.776936
H20   H     H_    0.211537 0.329886 0.167430 0.319267

loop_
_geom_bond_atom_site_label_1
_geom_bond_atom_site_label_2
_ccdc_geom_bond_type
C19   H16   S    
C18   C41   S    
Cu2   O2    S    
C27   C29   A    
O12   H18   S    
C24   C27   S    
C6    C9    A    
O16   H20   S    
C3    H9    S    
C10   C39   S    
C16   C21   A    
C19   C21   A    
C1    O1    A    
C2    O2    A    
Cu1   N1    S    
C17   C42   S    
C7    C9    A    
C11   H12   S    
C15   C22   A    
C31   C33   A    
C32   C38   A    
C37   H7    S    
C16   H4    S    
C38   H8    S    
C24   O8    A    
C17   N2    A    
C23   O5    A    
C4    C35   A    
C24   O6    A    
C13   C14   A    
C20   H15   S    
C7    C14   A    
C19   N2    A    
Cu2   N2    S    
C39   O9    D    
C5    C12   A    
C8    H14   S    
C6    C11   A    
C40   O12   S    
O14   H19   S    
Cu2   O3    S    
C1    C6    S    
C4    H10   S    
C39   O10   S    
C32   C34   A    
C41   O13   D    
C18   N1    A    
Cu1   O1    S    
C33   C34   A    
C16   C18   A    
C23   C28   S    
C41   O14   S    
C25   C35   A    
C26   C36   A    
C12   C14   A    
Cu2   O7    S    
Cu1   O8    S    
C2    C5    S    
C7    H13   S    
C25   H1    S    
Cu1   Cu2   S    
C12   H11   S    
C26   H2    S    
C42   O16   S    
C15   C17   A    
Cu1   O4    S    
C30   H6    S    
C9    C40   S    
C20   C22   A    
C1    O3    A    
C25   C27   A    
Cu1   O5    S    
C26   C28   A    
Cu2   O6    S    
C23   O7    A    
C28   C30   A    
C15   H3    S    
C40   O11   D    
C29   C31   A    
C30   C32   A    
C11   C13   A    
C3    C36   A    
C33   C35   A    
C34   C36   A    
O10   H17   S    
C42   O15   D    
C8    C13   A    
C31   C37   A    
C5    C10   A    
C3    C37   A    
C8    C10   A    
C29   H5    S    
C4    C38   A    
C20   N1    A    
C21   C22   A    
C2    O4    A    
