data_mof_unit_40860.cif
_audit_creation_date              2012-12-11T16:20:07-0500
_audit_creation_method            fapswitch 2.2
_symmetry_space_group_name_H-M    P1
_symmetry_Int_Tables_number       1
_space_group_crystal_system       triclinic
_cell_length_a                    13.486152
_cell_length_b                    14.053697
_cell_length_c                    30.110635
_cell_angle_alpha                 98.058794
_cell_angle_beta                  89.624565
_cell_angle_gamma                 118.915745
_cell_volume                      4933.72000069

loop_
_atom_site_label
_atom_site_type_symbol
_atom_type_description
_atom_site_fract_x
_atom_site_fract_y
_atom_site_fract_z
_atom_type_partial_charge
C1    C     C_R   0.720770 0.098902 0.568920 0.548345
C2    C     C_1   0.379960 0.702359 0.772810 0.090489
C3    C     C_2   0.466700 0.900256 0.288670 0.579390
C4    C     C_2   0.155191 0.978402 0.396730 0.599596
C5    C     C_2   0.502475 0.382029 0.114889 0.593262
C6    C     C_2   0.531353 0.294424 0.310026 0.581498
C7    C     C_2   0.878797 0.391030 0.100730 0.618511
C8    C     C_2   0.828238 0.365823 0.337576 0.599686
C9    C     C_2   0.821159 0.973990 0.381827 0.606638
C10   C     C_2   0.807333 0.998005 0.168644 0.570270
C11   C     C_2   0.581341 0.749394 0.680455 0.571613
C12   C     C_1   0.385014 0.715345 0.734402 0.122511
C13   C     C_R   0.401380 0.831034 0.559292 0.552925
C14   C     C_R   0.310745 0.608194 0.900481 -0.006649
C15   C     C_3   0.341625 0.068243 0.718297 -0.035816
C16   C     C_3   0.216917 0.152066 0.711425 -0.280250
C17   C     C_3   0.205579 0.157617 0.762953 -0.242727
C18   C     C_1   0.295960 0.201190 0.876357 0.017094
C19   C     C_3   0.334658 0.164482 0.699900 0.008853
C20   C     C_3   0.340834 0.083303 0.770420 -0.191313
C21   C     C_R   0.383695 0.730795 0.688599 -0.004340
C22   C     C_3   0.315827 0.177619 0.787796 -0.008303
C23   C     C_3   0.414983 0.286392 0.776884 -0.218573
C24   C     C_3   0.426301 0.280932 0.724929 -0.024587
C25   C     C_R   0.395797 0.119837 0.568591 0.570020
C26   C     C_1   0.304868 0.185922 0.836581 -0.045630
C27   C     C_1   0.341972 0.153747 0.650792 0.044752
C28   C     C_1   0.359976 0.140370 0.611880 0.111099
C29   C     C_3   0.786535 0.244739 0.726731 -0.194565
C30   C     C_3   0.947654 0.203967 0.715608 -0.215824
C31   C     C_3   0.966340 0.212837 0.767176 -0.240016
C32   C     C_R   0.288633 0.733688 0.670798 0.042450
C33   C     C_1   0.900466 0.204935 0.878567 0.037840
C34   C     C_3   0.820875 0.161702 0.702395 -0.003480
C35   C     C_3   0.806313 0.258626 0.778650 -0.025682
C36   C     C_3   0.853736 0.182451 0.790441 -0.006575
C37   C     C_R   0.721027 0.095515 0.442670 0.564314
C38   C     C_3   0.770154 0.059647 0.770333 -0.056186
C39   C     C_3   0.748128 0.049123 0.718722 -0.228699
C40   C     C_1   0.875024 0.193956 0.839289 -0.031435
C41   C     C_1   0.799333 0.148903 0.653482 -0.055655
C42   C     C_1   0.770461 0.131409 0.614089 0.009720
C43   C     C_R   0.293057 0.768825 0.628852 0.036607
C44   C     C_3   0.361391 0.792900 0.270214 -0.035372
C45   C     C_3   0.237643 0.589513 0.271329 -0.237280
C46   C     C_3   0.228135 0.568069 0.218975 -0.030006
C47   C     C_1   0.309112 0.607931 0.110870 0.052972
C48   C     C_3   0.353411 0.690998 0.289071 -0.000173
C49   C     C_R   0.382548 0.784446 0.424826 0.561999
C50   C     C_3   0.351611 0.771485 0.217779 -0.244101
C51   C     C_3   0.338143 0.656423 0.200321 0.002465
C52   C     C_3   0.444400 0.654707 0.218895 -0.195896
C53   C     C_3   0.448176 0.666418 0.270980 -0.202257
C54   C     C_R   0.304465 0.719715 0.846514 0.037762
C55   C     C_1   0.327608 0.635846 0.150885 -0.020792
C56   C     C_1   0.360614 0.710891 0.338492 -0.031852
C57   C     C_1   0.368182 0.737373 0.378572 0.033884
C58   C     C_R   0.360876 0.131551 0.399412 -0.012717
C59   C     C_R   0.445514 0.213195 0.377679 -0.141906
C60   C     C_R   0.434809 0.211193 0.331467 0.060871
C61   C     C_R   0.395887 0.114709 0.442921 0.566613
C62   C     C_R   0.335422 0.127537 0.306637 0.011131
C63   C     C_R   0.245599 0.053045 0.328511 -0.115496
C64   C     C_R   0.255879 0.055213 0.375042 0.054579
C65   C     C_R   0.277287 0.683360 0.888758 0.027243
C66   C     C_R   0.233983 0.074053 0.142684 -0.118379
C67   C     C_R   0.229482 0.104413 0.100990 -0.131526
C68   C     C_R   0.409381 0.273487 0.121710 0.054705
C69   C     C_R   0.413717 0.240232 0.162920 -0.092714
C70   C     C_R   0.324375 0.143677 0.174004 0.005803
C71   C     C_1   0.320358 0.125605 0.219579 0.027288
C72   C     C_1   0.323056 0.121448 0.258996 0.043877
C73   C     C_R   0.390013 0.793824 0.603730 -0.052529
C74   C     C_R   0.313958 0.206283 0.090434 -0.005591
C75   C     C_R   0.782497 0.134797 0.402223 -0.025311
C76   C     C_R   0.377960 0.578442 0.872297 -0.152910
C77   C     C_R   0.810366 0.068152 0.370622 0.047033
C78   C     C_R   0.828893 0.091978 0.326754 -0.106236
C79   C     C_R   0.827472 0.183817 0.314699 -0.006164
C80   C     C_R   0.817530 0.260140 0.347538 0.035012
C81   C     C_R   0.793992 0.233589 0.390979 -0.159176
C82   C     C_R   0.845226 0.283087 0.162852 -0.090465
C83   C     C_R   0.870832 0.294020 0.117997 0.070168
C84   C     C_R   0.860891 0.114574 0.108030 -0.137221
C85   C     C_R   0.481491 0.786607 0.621852 -0.157249
C86   C     C_R   0.831588 0.102072 0.152305 0.052312
C87   C     C_R   0.405309 0.615256 0.831489 -0.130528
C88   C     C_R   0.830677 0.190589 0.180403 0.000867
C89   C     C_1   0.827873 0.193157 0.228082 0.097259
C90   C     C_1   0.828475 0.191836 0.267810 0.112153
C91   C     C_R   0.888158 0.212407 0.091241 -0.010017
C92   C     C_R   0.283716 0.232987 0.922339 0.550408
C93   C     C_R   0.268024 0.549138 0.938905 0.569696
C94   C     C_R   0.946252 0.222233 0.923360 0.555430
C95   C     C_R   0.291914 0.243934 0.049864 0.555221
C96   C     C_R   0.275152 0.558721 0.064910 0.568801
C97   C     C_R   0.480132 0.755093 0.663858 0.033383
C98   C     C_R   0.366260 0.682476 0.818044 -0.014424
C99   C     C_R   0.951550 0.232129 0.049918 0.571712
C100  C     C_2   0.221347 0.727913 0.921622 0.606407
C101  C     C_2   0.547419 0.319014 0.711885 0.607098
C102  C     C_2   0.435570 0.044306 0.702527 0.570185
C103  C     C_2   0.270984 0.797176 0.831853 0.601151
C104  C     C_2   0.880433 0.378754 0.798808 0.588628
C105  C     C_2   0.661371 0.007494 0.794134 0.592719
C106  C     C_2   0.186524 0.704669 0.697304 0.617661
C107  C     C_2   0.199848 0.450583 0.201045 0.575140
C108  C     C_2   0.196345 0.779888 0.612429 0.638896
Cr1   Cr    Cr6+3 0.583400 0.162540 0.509180 1.062672
Cr2   Cr    Cr6+3 0.584070 0.916690 0.495550 1.078744
Cr3   Cr    Cr6+3 0.332550 0.920810 0.495240 1.119318
Cr4   Cr    Cr6+3 0.086700 0.177000 0.983690 1.059865
Cr5   Cr    Cr6+3 0.336880 0.419130 0.994740 1.088150
Cr6   Cr    Cr6+3 0.084850 0.422220 0.995960 1.110551
H1    H     H_    0.205953 0.218284 0.699663 0.124965
H2    H     H_    0.770455 0.987905 0.700955 0.152278
H3    H     H_    0.695213 0.213469 0.718146 0.188224
H4    H     H_    0.722761 0.231884 0.793206 0.175257
H5    H     H_    0.813406 0.010973 0.775082 0.137080
H6    H     H_    0.227893 0.516578 0.285472 0.168398
H7    H     H_    0.533359 0.732060 0.285692 0.189232
H8    H     H_    0.155985 0.050414 0.077969 0.154768
H9    H     H_    0.525363 0.273707 0.395901 0.180033
H10   H     H_    0.839300 0.348275 0.184631 0.164847
H11   H     H_    0.778804 0.288056 0.415741 0.178729
H12   H     H_    0.147345 0.072400 0.693793 0.141860
H13   H     H_    0.274909 0.005204 0.780676 0.162437
H14   H     H_    0.218545 0.790226 0.985928 0.343815
H15   H     H_    0.262205 0.991165 0.705184 0.162903
H16   H     H_    0.132400 0.079660 0.770112 0.135373
H17   H     H_    0.656097 0.357897 0.662589 0.350907
H18   H     H_    0.493495 0.302657 0.795780 0.185775
H19   H     H_    0.557007 0.065643 0.659400 0.315714
H20   H     H_    0.144675 0.823060 0.812017 0.337848
H21   H     H_    0.025772 0.521498 0.798156 0.385531
H22   H     H_    0.975390 0.146925 0.697740 0.122348
H23   H     H_    0.188864 0.226362 0.775594 0.123678
H24   H     H_    0.000831 0.286071 0.705344 0.173494
H25   H     H_    0.656791 0.017530 0.709527 0.175164
H26   H     H_    0.568281 0.896389 0.833975 0.359754
H27   H     H_    0.071309 0.746228 0.722552 0.351831
H28   H     H_    0.276830 0.776214 0.205282 0.112776
H29   H     H_    0.287153 0.802279 0.281325 0.129967
H30   H     H_    0.167119 0.603905 0.283492 0.127169
H31   H     H_    0.155779 0.578310 0.207579 0.134855
H32   H     H_    0.239039 0.328811 0.200410 0.344770
H33   H     H_    0.030228 0.704518 0.591892 0.348771
H34   H     H_    0.405347 0.342476 0.714463 0.109697
H35   H     H_    0.436045 0.588679 0.281304 0.165560
H36   H     H_    0.522612 0.723830 0.208724 0.155958
H37   H     H_    0.531439 0.046669 0.329380 0.341891
H38   H     H_    0.427051 0.835698 0.203774 0.174436
H39   H     H_    0.445183 0.577977 0.204335 0.198133
H40   H     H_    0.164473 0.998962 0.151201 0.146112
H41   H     H_    0.167199 0.993316 0.309107 0.159314
H42   H     H_    0.010187 0.832792 0.390356 0.353397
H43   H     H_    0.556113 0.807257 0.603103 0.198213
H44   H     H_    0.483504 0.293818 0.187740 0.159203
H45   H     H_    0.423861 0.101963 0.786342 0.206628
H46   H     H_    0.669148 0.474681 0.106546 0.355134
H47   H     H_    0.630439 0.328332 0.257581 0.348584
H48   H     H_    0.841831 0.450627 0.049853 0.342732
H49   H     H_    0.870487 0.475286 0.294437 0.352441
H50   H     H_    0.878641 0.914252 0.426452 0.352971
H51   H     H_    0.730745 0.893029 0.212900 0.351019
H52   H     H_    0.867808 0.048983 0.087144 0.178653
H53   H     H_    0.452457 0.586685 0.809344 0.154792
H54   H     H_    0.842973 0.037492 0.301452 0.174024
H55   H     H_    0.404461 0.521132 0.880572 0.151543
H56   H     H_    0.399717 0.356156 0.789732 0.108700
H57   H     H_    0.739826 0.774803 0.669802 0.350775
H58   H     H_    0.833741 0.324759 0.714072 0.183990
H59   H     H_    0.034877 0.296296 0.781560 0.175940
H60   H     H_    0.996414 0.154859 0.773642 0.099685
O1    O     O_R   0.494060 0.188820 0.559230 -0.481420
O2    O     O_R   0.170530 0.527770 0.952070 -0.475190
O3    O     O_R   0.987720 0.318450 0.945940 -0.482541
O4    O     O_R   0.678470 0.153390 0.554100 -0.486134
O5    O     O_R   0.976400 0.159230 0.032040 -0.519258
O6    O     O_R   0.193740 0.188470 0.029020 -0.505500
O7    O     O_R   0.364860 0.335530 0.039220 -0.462278
O8    O     O_R   0.330170 0.515340 0.044800 -0.470401
O9    O     O_R   0.177230 0.536000 0.050040 -0.487881
O10   O     O_R   0.993930 0.326080 0.036750 -0.455319
O11   O     O_3   0.169480 0.339450 0.991460 -0.279213
O12   O     O_R   0.480140 0.824500 0.445020 -0.485874
O13   O     O_R   0.697870 0.003940 0.549410 -0.503634
O14   O     O_R   0.480980 0.827230 0.535590 -0.504404
O15   O     O_R   0.309390 0.811640 0.537920 -0.468294
O16   O     O_R   0.341810 0.023400 0.546180 -0.476377
O17   O     O_R   0.493150 0.185870 0.461540 -0.521553
O18   O     O_R   0.677630 0.150660 0.463530 -0.510872
O19   O     O_R   0.696960 0.000990 0.451710 -0.459482
O20   O     O_2   0.138193 0.733670 0.909735 -0.448602
O21   O     O_R   0.263766 0.762223 0.966623 -0.684644
O22   O     O_2   0.624174 0.345059 0.740279 -0.534066
O23   O     O_R   0.308480 0.808690 0.440220 -0.487429
O24   O     O_R   0.572823 0.331448 0.667271 -0.658082
O25   O     O_2   0.444021 0.971134 0.716732 -0.504126
O26   O     O_R   0.507312 0.098631 0.670181 -0.699147
O27   O     O_2   0.344262 0.889269 0.826662 -0.501505
O28   O     O_R   0.156439 0.763327 0.822284 -0.638198
O29   O     O_2   0.847631 0.419840 0.829903 -0.458443
O30   O     O_R   0.984767 0.443112 0.781632 -0.684030
O31   O     O_2   0.591848 0.039306 0.792797 -0.479541
O32   O     O_R   0.641482 0.922554 0.818218 -0.668256
O33   O     O_2   0.144023 0.619494 0.713511 -0.488727
O34   O     O_R   0.340970 0.020670 0.455610 -0.461060
O35   O     O_R   0.139830 0.774891 0.703917 -0.694846
O36   O     O_2   0.117461 0.392929 0.174381 -0.524486
O37   O     O_R   0.266773 0.407739 0.215033 -0.713026
O38   O     O_2   0.209407 0.870839 0.609037 -0.510152
O39   O     O_R   0.089739 0.686437 0.602206 -0.660522
O40   O     O_2   0.560624 0.918415 0.277189 -0.501403
O41   O     O_R   0.455692 0.978748 0.319124 -0.703435
O42   O     O_2   0.139356 0.004730 0.435479 -0.489792
O43   O     O_R   0.075706 0.877371 0.372164 -0.684988
O44   O     O_2   0.484998 0.459904 0.115726 -0.496308
O45   O     O_3   0.500010 0.000010 0.499990 -0.292575
O46   O     O_R   0.611824 0.396477 0.110139 -0.671512
O47   O     O_2   0.585443 0.389085 0.329559 -0.470986
O48   O     O_R   0.562553 0.264488 0.268210 -0.696795
O49   O     O_2   0.921972 0.480809 0.124844 -0.510884
O50   O     O_R   0.832376 0.378874 0.057562 -0.658039
O51   O     O_2   0.805605 0.422818 0.365752 -0.476597
O52   O     O_R   0.866818 0.402377 0.296745 -0.713549
O53   O     O_2   0.786637 0.889706 0.354469 -0.502955
O54   O     O_R   0.875499 0.983437 0.422896 -0.645167
O55   O     O_2   0.843624 0.939616 0.149501 -0.517406
O56   O     O_R   0.969690 0.151000 0.934080 -0.499986
O57   O     O_R   0.740932 0.965036 0.205186 -0.678444
O58   O     O_2   0.581620 0.714926 0.715520 -0.501242
O59   O     O_R   0.676841 0.782230 0.655237 -0.715014
O60   O     O_R   0.187530 0.180840 0.938210 -0.491032
O61   O     O_R   0.358160 0.327300 0.941250 -0.506560
O62   O     O_R   0.323950 0.507710 0.953980 -0.511617

loop_
_geom_bond_atom_site_label_1
_geom_bond_atom_site_label_2
_ccdc_geom_bond_type
C11   O59   S    
Cr5   O62   S    
C7    C83   S    
C1    C42   S    
C67   H8    S    
C43   C73   A    
C11   O58   D    
C30   H24   S    
C41   C42   T    
H48   O50   S    
C50   H28   S    
C35   C36   S    
C18   C26   T    
H14   O21   S    
C2    C12   T    
C33   C94   S    
H32   O37   S    
Cr4   O56   S    
C13   O15   A    
C105  O32   S    
C54   C65   A    
C49   O23   A    
C45   C46   S    
C25   C28   S    
C15   C19   S    
Cr2   O14   S    
Cr6   O11   S    
C85   H43   S    
C4    O42   D    
C104  O30   S    
C60   C62   A    
C84   C86   A    
C25   O16   A    
C16   C19   S    
C31   H59   S    
C38   C39   S    
C86   C88   A    
C45   C48   S    
C46   H31   S    
C107  O37   S    
Cr1   O18   S    
C68   C74   A    
Cr6   O9    S    
C49   C57   S    
C56   C57   T    
Cr5   O61   S    
C24   C101  S    
C79   C90   S    
Cr1   O4    S    
C32   C43   A    
C87   H53   S    
C49   O12   A    
Cr5   O8    S    
C68   C69   A    
C39   H2    S    
C20   H45   S    
C45   H30   S    
C23   C24   S    
C70   C71   S    
C84   C91   A    
H49   O52   S    
C19   C27   S    
C14   C93   S    
C108  O39   S    
C82   C88   A    
C101  O22   D    
Cr4   O6    S    
C87   C98   A    
C58   C61   S    
Cr6   O2    S    
C66   C67   A    
C37   C75   S    
C59   C60   A    
C15   C102  S    
C13   O14   A    
C32   C106  S    
H47   O48   S    
C53   H35   S    
C48   C53   S    
C34   C41   S    
Cr3   O45   S    
C5    C68   S    
C82   H10   S    
C108  O38   D    
H20   O28   S    
C3    O41   S    
C1    O13   A    
C93   O62   A    
C59   H9    S    
C15   C20   S    
C3    C44   S    
C21   C32   A    
C39   H25   S    
Cr2   O13   S    
C33   C40   T    
C30   C34   S    
C34   C39   S    
C104  O29   D    
C6    C60   S    
C54   C103  S    
C36   C40   S    
H17   O24   S    
C85   C97   A    
C79   C80   A    
C20   H13   S    
C9    O53   D    
C35   C104  S    
C24   H34   S    
C96   O8    A    
C106  O33   D    
C107  O36   D    
C8    O52   S    
C78   C79   A    
C75   C81   A    
C58   C64   A    
C58   C59   A    
C77   C78   A    
C106  O35   S    
C29   H3    S    
C46   C51   S    
C10   O55   D    
C51   C52   S    
C3    O40   D    
C94   O3    A    
C14   C76   A    
C66   H40   S    
C103  O27   D    
C99   O5    A    
C62   C63   A    
Cr1   O45   S    
C76   H55   S    
C102  O26   S    
C7    O49   D    
C1    O4    A    
C25   O1    A    
C5    O44   D    
C15   H15   S    
C30   C31   S    
C47   C96   S    
Cr6   O3    S    
Cr5   O11   S    
C46   C107  S    
Cr2   O19   S    
C50   C51   S    
C62   C72   S    
H50   O54   S    
C67   C74   A    
C9    C77   S    
C88   C89   S    
Cr2   O45   S    
C75   C77   A    
C76   C87   A    
C73   C85   A    
C99   O10   A    
H42   O43   S    
C29   C34   S    
Cr4   O5    S    
C38   H5    S    
C45   H6    S    
C13   C73   S    
C4    O43   S    
H19   O26   S    
C30   H22   S    
Cr5   O7    S    
C96   O9    A    
Cr6   O10   S    
C16   H1    S    
H27   O35   S    
Cr4   O11   S    
C52   C53   S    
C94   O56   A    
C47   C55   T    
H57   O59   S    
C100  O21   S    
C44   C50   S    
C48   C56   S    
C29   C35   S    
Cr2   O12   S    
H51   O57   S    
C93   O2    A    
C81   H11   S    
C17   H16   S    
C101  O24   S    
C74   C95   S    
C22   C23   S    
C95   O7    A    
C65   C100  S    
C20   C22   S    
C80   C81   A    
H33   O39   S    
H26   O32   S    
C17   H23   S    
C8    O51   D    
Cr1   O1    S    
C105  O31   D    
H21   O30   S    
C100  O20   D    
C83   C91   A    
C4    C64   S    
C92   O61   A    
C78   H54   S    
C17   C22   S    
C11   C97   S    
C18   C92   S    
C6    O47   D    
C38   C105  S    
C36   C38   S    
C19   C24   S    
C52   H39   S    
C103  O28   S    
C63   H41   S    
C71   C72   T    
C53   H7    S    
C102  O25   D    
Cr3   O23   S    
C61   O17   A    
C7    O50   S    
C10   C86   S    
H46   O46   S    
C23   H56   S    
Cr1   O17   S    
C44   H29   S    
Cr4   O60   S    
C12   C21   S    
C92   O60   A    
C10   O57   S    
C14   C65   A    
C69   H44   S    
C23   H18   S    
C9    O54   S    
C51   C55   S    
C43   C108  S    
C29   H58   S    
C69   C70   A    
C84   H52   S    
C21   C97   A    
C61   O34   A    
C63   C64   A    
C5    O46   S    
C50   H38   S    
C95   O6    A    
C37   O18   A    
C66   C70   A    
C2    C98   S    
Cr3   O16   S    
C52   H36   S    
C82   C83   A    
C22   C26   S    
C27   C28   T    
C8    C80   S    
C31   C36   S    
C54   C98   A    
C35   H4    S    
H37   O41   S    
Cr3   O15   S    
C91   C99   S    
C89   C90   T    
C16   H12   S    
Cr3   O34   S    
C44   C48   S    
C16   C17   S    
C37   O19   A    
C6    O48   S    
C31   H60   S    
