data_mof_unit_53353.cif
_audit_creation_date              2012-12-10T17:06:13-0500
_audit_creation_method            fapswitch 2.2
_symmetry_space_group_name_H-M    P1
_symmetry_Int_Tables_number       1
_space_group_crystal_system       triclinic
_cell_length_a                    10.610084
_cell_length_b                    11.038254
_cell_length_c                    9.939002
_cell_angle_alpha                 111.694507
_cell_angle_beta                  97.876825
_cell_angle_gamma                 92.501742
_cell_volume                      1065.73025975

loop_
_atom_site_label
_atom_site_type_symbol
_atom_type_description
_atom_site_fract_x
_atom_site_fract_y
_atom_site_fract_z
_atom_type_partial_charge
C1    C     C_R   0.492313 0.253946 0.439647 0.762019
C2    C     C_R   0.507687 0.746054 0.560352 0.762018
C3    C     C_R   0.259742 0.499606 0.500682 0.841273
C4    C     C_R   0.740257 0.500394 0.499318 0.841275
C5    C     C_3   0.058975 0.608215 0.604499 0.597974
C6    C     C_3   0.941025 0.391785 0.395501 0.597973
C7    C     C_3   0.974991 0.505345 0.632062 -0.265149
C8    C     C_3   0.025009 0.494655 0.367937 -0.265160
C9    C     C_3   0.877098 0.500970 0.499441 -0.101348
C10   C     C_3   0.122901 0.499030 0.500559 -0.101350
C11   C     C_3   0.960502 0.606028 0.474304 -0.335200
C12   C     C_3   0.039498 0.393972 0.525696 -0.335191
C13   C     C_2   0.490079 0.113005 0.403926 0.297602
C14   C     C_2   0.509920 0.886995 0.596074 0.297603
C15   C     C_2   0.504674 0.069658 0.513954 -0.197645
C16   C     C_2   0.495323 0.930342 0.486046 -0.197645
C17   C     C_2   0.516750 0.504902 0.078515 0.025999
C18   C     C_2   0.483249 0.495098 0.921485 0.025998
Cu1   Cu    Cu3+1 0.522260 0.521810 0.644920 0.997015
Cu2   Cu    Cu3+1 0.477740 0.478190 0.355080 0.997014
H1    H     H_    0.952099 0.511172 0.739850 0.174210
H2    H     H_    0.047902 0.488830 0.260150 0.174206
H3    H     H_    0.925558 0.692826 0.455779 0.161752
H4    H     H_    0.074441 0.307173 0.544220 0.161756
H5    H     H_    0.475592 0.861557 0.372645 0.225090
H6    H     H_    0.524405 0.138443 0.627355 0.225089
H7    H     H_    0.639796 0.607938 0.924741 0.198498
H8    H     H_    0.360204 0.392061 0.075259 0.198497
N1    N     N_2   0.444270 0.445410 0.137360 -0.323188
N2    N     N_2   0.555730 0.554590 0.862640 -0.323187
O1    O     O_R   0.511880 0.332340 0.577400 -0.578640
O2    O     O_R   0.488120 0.667660 0.422600 -0.578640
O3    O     O_R   0.474280 0.295500 0.332650 -0.556543
O4    O     O_R   0.525720 0.704500 0.667350 -0.556542
O5    O     O_R   0.335640 0.518390 0.622350 -0.537577
O6    O     O_R   0.664360 0.481610 0.377650 -0.537578
O7    O     O_R   0.298050 0.481550 0.377590 -0.598578
O8    O     O_R   0.701950 0.518450 0.622410 -0.598579
O9    O     O_3   0.131974 0.720107 0.712881 -0.574094
C19   C     C_3   0.049527 0.804125 0.793625 -0.302586
H9    H     H_    0.995558 0.756213 0.852066 0.169308
H10   H     H_    0.982639 0.838610 0.722262 0.154985
H11   H     H_    0.108158 0.891803 0.877928 0.189491
O10   O     O_3   0.868026 0.279890 0.287123 -0.574103
C20   C     C_3   0.950471 0.195892 0.206347 -0.302559
H12   H     H_    0.017415 0.161439 0.277693 0.154974
H13   H     H_    0.004379 0.243811 0.147862 0.169320
H14   H     H_    0.891842 0.108193 0.122077 0.189482
O11   O     O_3   0.536623 0.973604 0.741380 -0.579384
C21   C     C_3   0.422051 0.986084 0.800267 -0.256466
H15   H     H_    0.385279 0.892309 0.805611 0.198300
H16   H     H_    0.347555 0.020829 0.736631 0.179956
H17   H     H_    0.441877 0.060491 0.914056 0.200237
O12   O     O_3   0.463377 0.026395 0.258620 -0.579383
C22   C     C_3   0.577949 0.013915 0.199734 -0.256459
H18   H     H_    0.652445 0.979172 0.263372 0.179959
H19   H     H_    0.614721 0.107691 0.194389 0.198299
H20   H     H_    0.558124 0.939508 0.085945 0.200237
C23   C     C_2   0.360417 0.420689 0.837905 0.905091
O13   O     O_2   0.356530 0.305628 0.757216 -0.637026
O14   O     O_R   0.247453 0.479468 0.863601 -0.752816
H21   H     H_    0.168411 0.416136 0.810424 0.317435
C24   C     C_2   0.639582 0.579312 0.162096 0.905093
O15   O     O_2   0.643468 0.694374 0.242783 -0.637026
O16   O     O_R   0.752546 0.520534 0.136402 -0.752822
H22   H     H_    0.831588 0.583867 0.189578 0.317436

loop_
_geom_bond_atom_site_label_1
_geom_bond_atom_site_label_2
_ccdc_geom_bond_type
C8    H2    S    
C22   H18   S    
C24   O16   S    
C22   H19   S    
C18   N2    D    
Cu1   O8    S    
C17   N1    D    
C12   H4    S    
C21   H16   S    
Cu1   Cu2   S    
C13   C15   D    
C3    O5    A    
Cu1   O1    S    
C19   H11   S    
C2    O4    A    
C6    C9    S    
C5    O9    S    
C17   C18   S    
C1    O3    A    
C23   O13   D    
C6    O10   S    
C3    C10   S    
Cu1   O5    S    
C20   H12   S    
C17   C24   S    
H7    N2    S    
Cu2   O7    S    
C9    C11   S    
O14   H21   S    
C10   C12   S    
C8    C11   S    
Cu2   O3    S    
C19   H10   S    
H8    N1    S    
C4    O8    A    
O16   H22   S    
C5    C7    S    
Cu2   N1    S    
C20   H13   S    
C5    C11   S    
C6    C12   S    
C7    C12   S    
C2    C14   S    
O11   C21   S    
C14   C16   D    
C20   H14   S    
C21   H17   S    
C1    C13   S    
O9    C19   S    
C5    C10   S    
C15   C16   S    
C14   O11   S    
C18   C23   S    
C1    O1    A    
C4    O6    A    
C3    O7    A    
C2    O2    A    
C13   O12   S    
Cu2   O2    S    
C22   H20   S    
C11   H3    S    
C16   H5    S    
C7    C9    S    
O12   C22   S    
C19   H9    S    
C15   H6    S    
C6    C8    S    
C21   H15   S    
C4    C9    S    
C7    H1    S    
Cu1   N2    S    
C8    C10   S    
O10   C20   S    
C24   O15   D    
C23   O14   S    
Cu1   O4    S    
Cu2   O6    S    
