data_mof_unit_49650.cif
_audit_creation_date              2012-12-11T15:50:35-0500
_audit_creation_method            fapswitch 2.2
_symmetry_space_group_name_H-M    P1
_symmetry_Int_Tables_number       1
_space_group_crystal_system       monoclinic
_cell_length_a                    6.918303
_cell_length_b                    14.546375
_cell_length_c                    16.125111
_cell_angle_alpha                 90.0
_cell_angle_beta                  90.0
_cell_angle_gamma                 89.999909
_cell_volume                      1622.77037617

loop_
_atom_site_label
_atom_site_type_symbol
_atom_type_description
_atom_site_fract_x
_atom_site_fract_y
_atom_site_fract_z
_atom_type_partial_charge
O1    O     O_R   0.638140 0.833910 0.163320 -0.544698
O2    O     O_R   0.361860 0.166090 0.836680 -0.544698
O3    O     O_R   0.361860 0.166090 0.663320 -0.544698
O4    O     O_R   0.638140 0.833910 0.336680 -0.544698
O5    O     O_R   0.138140 0.666090 0.336680 -0.544698
O6    O     O_R   0.861860 0.333910 0.663320 -0.544698
O7    O     O_R   0.861860 0.333910 0.836680 -0.544698
O8    O     O_R   0.138140 0.666090 0.163320 -0.544698
O9    O     O_R   0.308390 0.844930 0.336080 -0.521767
O10   O     O_R   0.691610 0.155070 0.663920 -0.521767
O11   O     O_R   0.691610 0.155070 0.836080 -0.521767
O12   O     O_R   0.308390 0.844930 0.163920 -0.521767
O13   O     O_R   0.808390 0.655070 0.163920 -0.521768
O14   O     O_R   0.191610 0.344930 0.836080 -0.521768
O15   O     O_R   0.191610 0.344930 0.663920 -0.521768
O16   O     O_R   0.808390 0.655070 0.336080 -0.521768
C1    C     C_R   0.476974 0.868621 0.363868 0.746579
C2    C     C_R   0.523026 0.131379 0.636132 0.746579
C3    C     C_R   0.523026 0.131379 0.863868 0.746578
C4    C     C_R   0.476974 0.868621 0.136131 0.746579
C5    C     C_R   0.976975 0.631379 0.136131 0.746580
C6    C     C_R   0.023025 0.368621 0.863868 0.746580
C7    C     C_R   0.023025 0.368621 0.636131 0.746581
C8    C     C_R   0.976975 0.631379 0.363868 0.746581
O17   O     O_3   0.471620 0.691320 0.250000 -0.351071
O18   O     O_3   0.528380 0.308680 0.750000 -0.351071
O19   O     O_3   0.971620 0.808680 0.250000 -0.351069
O20   O     O_3   0.028380 0.191320 0.750000 -0.351069
V1    V     V_3+5 0.196770 0.760880 0.250000 1.602771
V2    V     V_3+5 0.803230 0.239120 0.750000 1.602771
V3    V     V_3+5 0.696770 0.739120 0.250000 1.602770
V4    V     V_3+5 0.303230 0.260880 0.750000 1.602770
C9    C     C_R   0.838515 0.497259 0.447122 0.297166
C10   C     C_R   0.161485 0.502741 0.552878 0.297166
C11   C     C_R   0.161481 0.502743 0.947120 0.297166
C12   C     C_R   0.838519 0.497257 0.052880 0.297166
C13   C     C_R   0.338507 0.002736 0.052873 0.297168
C14   C     C_R   0.661493 0.997263 0.947126 0.297168
C15   C     C_R   0.661493 0.997263 0.552874 0.297169
C16   C     C_R   0.338507 0.002737 0.447126 0.297169
C17   C     C_R   0.853452 0.436148 0.513961 -0.162083
C18   C     C_R   0.146548 0.563851 0.486039 -0.162083
C19   C     C_R   0.146544 0.563854 0.013959 -0.162088
C20   C     C_R   0.853456 0.436146 0.986040 -0.162088
C21   C     C_R   0.353445 0.063847 0.986035 -0.162076
C22   C     C_R   0.646555 0.936153 0.013965 -0.162076
C23   C     C_R   0.646555 0.936153 0.486035 -0.162078
C24   C     C_R   0.353445 0.063847 0.513965 -0.162078
H1    H     H_    0.739558 0.386023 0.523055 0.171552
H2    H     H_    0.260442 0.613977 0.476945 0.171552
H3    H     H_    0.260439 0.613979 0.023053 0.171551
H4    H     H_    0.739561 0.386021 0.976947 0.171551
H5    H     H_    0.239542 0.113968 0.976937 0.171561
H6    H     H_    0.760458 0.886032 0.023063 0.171561
H7    H     H_    0.760459 0.886033 0.476936 0.171563
H8    H     H_    0.239541 0.113967 0.523064 0.171563
C25   C     C_R   0.013735 0.437244 0.567518 -0.155702
C26   C     C_R   0.986265 0.562756 0.432482 -0.155702
C27   C     C_R   0.986265 0.562756 0.067518 -0.155700
C28   C     C_R   0.013735 0.437244 0.932482 -0.155700
C29   C     C_R   0.513735 0.062756 0.932482 -0.155705
C30   C     C_R   0.486265 0.937244 0.067518 -0.155704
C31   C     C_R   0.486264 0.937244 0.432482 -0.155704
C32   C     C_R   0.513735 0.062756 0.567518 -0.155704
Br1   Br    Br    0.616539 0.482559 0.376584 -0.456896
Br2   Br    Br    0.383461 0.517441 0.623416 -0.456896
Br3   Br    Br    0.383456 0.517444 0.876581 -0.456895
Br4   Br    Br    0.616544 0.482556 0.123419 -0.456895
Br5   Br    Br    0.116516 0.017431 0.123405 -0.456913
Br6   Br    Br    0.883483 0.982569 0.876595 -0.456913
Br7   Br    Br    0.883485 0.982570 0.623404 -0.456914
Br8   Br    Br    0.116515 0.017430 0.376596 -0.456914

loop_
_geom_bond_atom_site_label_1
_geom_bond_atom_site_label_2
_ccdc_geom_bond_type
O17   V3    S    
C14   Br6   S    
O18   V4    S    
C9    C26   A    
C13   Br5   S    
O12   V1    S    
O19   V1    S    
C10   C18   A    
C24   H8    S    
C12   C27   A    
C2    C32   S    
C10   Br2   S    
C13   C30   A    
C9    Br1   S    
O15   V4    S    
O16   V3    S    
C15   C32   A    
O11   C3    A    
C16   C31   A    
C22   C30   A    
O8    V1    S    
C15   C23   A    
O10   C2    A    
C5    C27   S    
C6    C28   S    
C3    C29   S    
C24   C32   A    
O1    V3    S    
O3    C2    A    
O2    V4    S    
C16   C24   A    
C18   C26   A    
O11   V2    S    
C10   C25   A    
C11   C19   A    
C19   C27   A    
C14   C29   A    
C20   H4    S    
O15   C7    A    
C21   H5    S    
O16   C8    A    
O7    V2    S    
O12   C4    A    
C17   H1    S    
O5    V1    S    
O17   V1    S    
O19   V3    S    
O20   V4    S    
C11   C28   A    
O10   V2    S    
C11   Br3   S    
C22   H6    S    
O8    C5    A    
O13   C5    A    
C18   H2    S    
O4    C1    A    
O9    C1    A    
O6    V2    S    
O18   V2    S    
C12   C20   A    
C13   C21   A    
C23   H7    S    
C7    C25   S    
O1    C4    A    
C16   Br8   S    
O2    C3    A    
O13   V3    S    
O14   V4    S    
C12   Br4   S    
O9    V1    S    
O7    C6    A    
C9    C17   A    
O14   C6    A    
O20   V2    S    
C17   C25   A    
C1    C31   S    
C23   C31   A    
C19   H3    S    
O5    C8    A    
C20   C28   A    
O6    C7    A    
C21   C29   A    
C4    C30   S    
O3    V4    S    
C14   C22   A    
O4    V3    S    
C8    C26   S    
C15   Br7   S    
