data_mof_unit_26839.cif
_audit_creation_date              2012-10-26T19:48:45-0400
_audit_creation_method            fapswitch 2.2
_symmetry_space_group_name_H-M    P1
_symmetry_Int_Tables_number       1
_space_group_crystal_system       triclinic
_cell_length_a                    10.720706
_cell_length_b                    9.409027
_cell_length_c                    27.793593
_cell_angle_alpha                 90.161071
_cell_angle_beta                  90.148208
_cell_angle_gamma                 89.998456
_cell_volume                      2803.55851809

loop_
_atom_site_label
_atom_site_type_symbol
_atom_type_description
_atom_site_fract_x
_atom_site_fract_y
_atom_site_fract_z
_atom_type_partial_charge
Br1   Br    Br    0.122173 0.392148 0.025079 -0.560728
Br2   Br    Br    0.666317 0.246529 0.357741 -0.563076
C1    C     C_R   0.259646 0.499784 0.499914 0.548774
C2    C     C_R   0.387188 0.512987 0.974584 0.034844
C3    C     C_R   0.615262 0.482522 0.974482 0.017652
C4    C     C_R   0.502663 0.499735 0.407518 0.584075
C5    C     C_R   0.501078 0.497840 0.949264 0.032993
C6    C     C_R   0.280811 0.556255 0.948547 -0.098122
C7    C     C_R   0.281406 0.562047 0.898532 -0.102243
C8    C     C_R   0.390068 0.530243 0.872912 0.024617
C9    C     C_R   0.500939 0.500785 0.898249 -0.027113
C10   C     C_R   0.611841 0.475724 0.872580 0.025336
C11   C     C_R   0.608971 0.476230 0.822089 0.399835
C12   C     C_R   0.443603 0.612885 0.279715 -0.058162
C13   C     C_R   0.391581 0.530883 0.822415 0.401307
C14   C     C_R   0.512309 0.373970 0.721422 -0.056792
C15   C     C_R   0.512195 0.373085 0.671251 -0.148358
C16   C     C_R   0.740109 0.499775 0.499909 0.562180
C17   C     C_R   0.485928 0.629211 0.671074 -0.148218
C18   C     C_R   0.485631 0.629724 0.721244 -0.056713
C19   C     C_R   0.499011 0.502206 0.746561 0.242795
C20   C     C_R   0.385478 0.493734 0.025250 0.028905
C21   C     C_R   0.500878 0.497686 0.050555 0.012174
C22   C     C_R   0.615974 0.496294 0.025302 0.018757
C23   C     C_R   0.503652 0.505718 0.253527 0.201240
C24   C     C_R   0.274479 0.467905 0.051991 0.135860
C25   C     C_R   0.727082 0.519615 0.101709 -0.090810
C26   C     C_R   0.724917 0.455465 0.947818 -0.132828
C27   C     C_R   0.722790 0.451005 0.897787 -0.103161
C28   C     C_R   0.499681 0.500204 0.592592 0.552634
C29   C     C_R   0.727995 0.510226 0.051813 -0.122607
C30   C     C_3   0.072139 0.575788 0.545380 -0.231790
C31   C     C_3   0.071253 0.344109 0.499602 -0.232979
C32   C     C_3   0.928203 0.575923 0.545349 -0.234341
C33   C     C_3   0.928501 0.344104 0.499657 -0.234546
C34   C     C_R   0.501439 0.501295 0.101569 -0.035624
C35   C     C_3   0.071538 0.576188 0.454538 -0.234178
C36   C     C_3   0.121707 0.499000 0.499854 0.045781
C37   C     C_3   0.878031 0.498984 0.499851 0.043006
C38   C     C_3   0.927553 0.576026 0.454508 -0.228999
C39   C     C_3   0.628178 0.083589 0.496741 -0.104285
C40   C     C_3   0.628190 0.916266 0.496717 -0.103484
C41   C     C_3   0.445893 0.084127 0.545971 -0.102793
C42   C     C_3   0.445830 0.916544 0.545954 -0.102746
C43   C     C_3   0.425753 0.083383 0.460557 -0.101993
C44   C     C_3   0.426043 0.915952 0.460470 -0.104106
C45   C     C_R   0.388914 0.491601 0.127221 -0.004191
C46   C     C_R   0.391560 0.494199 0.177762 0.407194
C47   C     C_R   0.613020 0.518381 0.177491 0.405854
C48   C     C_R   0.565617 0.396400 0.277937 -0.016157
C49   C     C_R   0.568033 0.393139 0.328134 0.132106
C50   C     C_R   0.444425 0.609979 0.329850 -0.171870
C51   C     C_R   0.277091 0.471734 0.102133 -0.064589
C52   C     C_R   0.614720 0.513385 0.127027 0.031026
C53   C     C_R   0.505325 0.499838 0.354605 0.013452
C54   C     C_R   0.499250 0.500811 0.645590 0.001619
Cu1   Cu    Cu3+1 0.499860 0.642410 0.500020 0.879806
Cu2   Cu    Cu3+1 0.499860 0.357590 0.500020 0.902928
H1    H     H_    0.396239 0.693296 0.349344 0.124190
H2    H     H_    0.105114 0.286278 0.467147 0.126927
H3    H     H_    0.107152 0.521603 0.578306 0.120476
H4    H     H_    0.105709 0.285761 0.531815 0.120334
H5    H     H_    0.893468 0.522000 0.578299 0.121080
H6    H     H_    0.894717 0.286021 0.531957 0.115382
H7    H     H_    0.396249 0.698459 0.261173 0.154187
H8    H     H_    0.893946 0.687577 0.546397 0.118848
H9    H     H_    0.894009 0.286033 0.467279 0.146336
H10   H     H_    0.105792 0.687846 0.453767 0.121318
H11   H     H_    0.106291 0.522448 0.421454 0.126759
H12   H     H_    0.613103 0.314236 0.257670 0.172549
H13   H     H_    0.893097 0.687605 0.453652 0.123583
H14   H     H_    0.892516 0.521987 0.421450 0.150232
H15   H     H_    0.687071 0.122032 0.527113 0.107233
H16   H     H_    0.687188 0.878197 0.527049 0.112052
H17   H     H_    0.672564 0.122435 0.463139 0.161214
H18   H     H_    0.672440 0.876922 0.463043 0.130869
H19   H     H_    0.500324 0.121100 0.577677 0.114970
H20   H     H_    0.500184 0.879860 0.577655 0.115264
H21   H     H_    0.328022 0.122534 0.462512 0.110139
H22   H     H_    0.328442 0.876309 0.462180 0.112025
H23   H     H_    0.815380 0.530645 0.120402 0.184353
H24   H     H_    0.463437 0.120846 0.425661 0.168545
H25   H     H_    0.464499 0.878503 0.425585 0.135048
H26   H     H_    0.349101 0.124238 0.550819 0.112806
H27   H     H_    0.348996 0.876598 0.550744 0.112650
H28   H     H_    0.191099 0.453242 0.121534 0.200856
H29   H     H_    0.522555 0.275012 0.740834 0.129581
H30   H     H_    0.196554 0.592948 0.880076 0.172514
H31   H     H_    0.197695 0.592832 0.966498 0.172804
H32   H     H_    0.522837 0.272608 0.652649 0.112872
H33   H     H_    0.813406 0.433454 0.964778 0.147909
H34   H     H_    0.475385 0.729198 0.652333 0.112447
H35   H     H_    0.809090 0.429506 0.878921 0.176473
H36   H     H_    0.475557 0.729243 0.740508 0.129541
H37   H     H_    0.817950 0.518649 0.034785 0.150148
H38   H     H_    0.106575 0.687369 0.546521 0.120558
N1    N     N_R   0.502547 0.507741 0.201829 -0.395900
N2    N     N_R   0.499794 0.502945 0.798149 -0.399003
N3    N     N_3   0.500250 0.143650 0.501060 -0.229910
N4    N     N_3   0.500250 0.856350 0.501060 -0.227938
O1    O     O_R   0.317570 0.620260 0.500030 -0.516448
O2    O     O_2   0.285648 0.557827 0.797739 -0.489971
O3    O     O_2   0.720922 0.534034 0.202073 -0.475790
O4    O     O_2   0.714549 0.451482 0.797082 -0.490274
O5    O     O_R   0.317570 0.379740 0.500030 -0.517288
O6    O     O_R   0.499900 0.620250 0.430280 -0.516035
O7    O     O_R   0.499900 0.379750 0.430280 -0.467155
O8    O     O_R   0.682190 0.620260 0.500010 -0.516822
O9    O     O_R   0.682190 0.379740 0.500010 -0.506446
O10   O     O_R   0.499860 0.620280 0.569750 -0.511120
O11   O     O_R   0.499860 0.379720 0.569750 -0.512752
O12   O     O_2   0.284263 0.481181 0.202662 -0.481370

loop_
_geom_bond_atom_site_label_1
_geom_bond_atom_site_label_2
_ccdc_geom_bond_type
C17   C54   A    
C27   H35   S    
C14   C19   A    
C38   H13   S    
C35   H11   S    
C10   C27   A    
Cu2   O9    S    
C39   C40   S    
C17   C18   A    
C16   O9    A    
C4    C53   S    
C2    C6    A    
C32   H8    S    
C25   C52   A    
C43   C44   S    
C1    O5    A    
C5    C9    A    
C46   N1    A    
C28   O10   A    
C26   C27   A    
C41   N3    S    
C30   H3    S    
C31   H4    S    
C35   C38   S    
C8    C13   A    
C7    H30   S    
C43   H24   S    
C47   C52   A    
C35   H10   S    
C34   C45   A    
Cu2   O7    S    
C11   N2    A    
C23   C48   A    
C44   N4    S    
C17   H34   S    
C12   C50   A    
Cu1   O10   S    
C1    C36   S    
C14   C15   A    
C14   H29   S    
C4    O7    A    
C39   N3    S    
C51   H28   S    
C30   C36   S    
C7    C8    A    
C50   C53   A    
C45   C51   A    
C1    O1    A    
Cu1   O6    S    
C12   C23   A    
C41   H26   S    
C2    C5    A    
C40   H16   S    
C15   H32   S    
C25   C29   A    
Cu2   O11   S    
C25   H23   S    
C43   N3    S    
C37   C38   S    
C3    C5    A    
C6    C7    A    
Cu1   N4    S    
C28   C54   S    
C32   C37   S    
C30   C32   S    
C33   C37   S    
C16   C37   S    
C35   C36   S    
C50   H1    S    
C40   N4    S    
C39   H17   S    
C3    C26   A    
C2    C20   A    
C45   C46   A    
C33   H9    S    
C21   C22   A    
C48   C49   A    
C4    O6    A    
C43   H21   S    
C18   C19   A    
C11   O4    S    
C15   C54   A    
C33   H6    S    
C23   N1    S    
C30   H38   S    
C31   H2    S    
C8    C9    A    
C41   C42   S    
Br1   C24   S    
C13   N2    A    
C42   H27   S    
C24   C51   A    
C18   H36   S    
C38   H14   S    
C46   O12   S    
Cu2   N3    S    
C47   O3    S    
C9    C10   A    
C41   H19   S    
Cu1   O1    S    
C40   H18   S    
C31   C36   S    
C28   O11   A    
Cu2   O5    S    
C42   H20   S    
C48   H12   S    
C22   C29   A    
C44   H22   S    
C19   N2    S    
C42   N4    S    
Cu1   Cu2   S    
C3    C22   A    
C29   H37   S    
C32   H5    S    
C31   C33   S    
C12   H7    S    
C26   H33   S    
C49   C53   A    
C13   O2    S    
C16   O8    A    
C47   N1    A    
C34   C52   A    
Br2   C49   S    
C39   H15   S    
C44   H25   S    
Cu1   O8    S    
C10   C11   A    
C21   C34   A    
C20   C24   A    
C20   C21   A    
C6    H31   S    
