data_mof_unit_50177.cif
_audit_creation_date              2012-12-10T17:42:43-0500
_audit_creation_method            fapswitch 2.2
_symmetry_space_group_name_H-M    P1
_symmetry_Int_Tables_number       1
_space_group_crystal_system       triclinic
_cell_length_a                    9.974814
_cell_length_b                    10.735246
_cell_length_c                    13.119943
_cell_angle_alpha                 94.759079
_cell_angle_beta                  72.093176
_cell_angle_gamma                 89.801573
_cell_volume                      1331.62288573

loop_
_atom_site_label
_atom_site_type_symbol
_atom_type_description
_atom_site_fract_x
_atom_site_fract_y
_atom_site_fract_z
_atom_type_partial_charge
Br1   Br    Br    0.465636 0.235752 0.252016 -0.559230
Br2   Br    Br    0.640796 0.720649 0.716180 -0.445669
Br3   Br    Br    0.810653 0.978816 0.699888 -0.484294
C1    C     C_R   0.501708 0.738768 0.493123 0.891408
C2    C     C_R   0.385069 0.434770 0.807535 -0.205625
C3    C     C_R   0.338968 0.857185 0.368207 -0.176666
C4    C     C_R   0.425182 0.477998 0.698781 0.958221
C5    C     C_R   0.261719 0.916536 0.313501 -0.177686
C6    C     C_R   0.282037 0.041424 0.296929 -0.136028
C7    C     C_R   0.376881 0.107933 0.337621 0.236876
C8    C     C_R   0.436245 0.055855 0.410594 0.064826
C9    C     C_R   0.424539 0.925996 0.420533 0.072112
C10   C     C_R   0.505730 0.869539 0.477305 -0.120218
C11   C     C_R   0.597193 0.938828 0.519044 -0.149178
C12   C     C_R   0.446863 0.440552 0.972224 0.099418
C13   C     C_R   0.598952 0.065440 0.517684 -0.188008
C14   C     C_R   0.514408 0.125496 0.468960 -0.100836
C15   C     C_R   0.826826 0.711628 0.615029 0.207547
C16   C     C_R   0.504819 0.259935 0.488271 0.916556
C17   C     C_R   0.898528 0.816687 0.642612 0.259503
C18   C     C_R   0.031990 0.800299 0.649890 -0.243046
C19   C     C_R   0.099963 0.685776 0.618753 -0.178778
C20   C     C_R   0.050763 0.593968 0.558579 0.129893
C21   C     C_R   0.906588 0.599119 0.557932 0.058763
C22   C     C_R   0.950978 0.407951 0.445403 -0.118779
C23   C     C_R   0.488345 0.422773 0.859534 0.044660
C24   C     C_R   0.093768 0.408682 0.444659 -0.069274
C25   C     C_R   0.576934 0.507567 0.297584 0.900685
C26   C     C_R   0.801572 0.468010 0.010413 -0.151807
C27   C     C_R   0.622208 0.506811 0.181422 -0.029415
C28   C     C_R   0.244281 0.410898 0.863892 0.388411
C29   C     C_R   0.204389 0.406920 0.975159 -0.185978
C30   C     C_R   0.302554 0.429700 0.029941 -0.236455
C31   C     C_R   0.552501 0.463606 0.021877 0.114433
C32   C     C_R   0.696933 0.447541 0.960813 0.167013
C33   C     C_R   0.734281 0.406690 0.852216 -0.167911
C34   C     C_R   0.630961 0.391446 0.802612 -0.112885
C35   C     C_R   0.518575 0.503086 0.130473 -0.200570
C36   C     C_R   0.764623 0.494020 0.121039 -0.191672
Cl1   Cl    Cl    0.122041 0.367921 0.796073 -0.652605
H1    H     H_    0.846679 0.500168 0.159274 0.156610
H2    H     H_    0.165395 0.333830 0.398977 0.164194
H3    H     H_    0.911323 0.459634 0.964583 0.187489
H4    H     H_    0.410694 0.525417 0.177806 0.153274
H5    H     H_    0.264909 0.428552 0.116288 0.160830
H6    H     H_    0.097193 0.387033 0.019834 0.161464
H7    H     H_    0.664034 0.352258 0.719789 0.185128
H8    H     H_    0.663348 0.895417 0.557859 0.217761
H9    H     H_    0.332540 0.757108 0.363606 0.178708
H10   H     H_    0.195398 0.862851 0.275691 0.156173
H11   H     H_    0.235572 0.082576 0.242523 0.168167
H12   H     H_    0.663034 0.116916 0.559101 0.198985
H13   H     H_    0.916323 0.332599 0.400434 0.150618
H14   H     H_    0.080182 0.874585 0.686141 0.211900
H15   H     H_    0.192798 0.672050 0.640968 0.235964
H16   H     H_    0.842926 0.386610 0.805219 0.215175
N1    N     N_R   0.856860 0.501200 0.500990 -0.106804
N2    N     N_R   0.142450 0.501280 0.501020 -0.104510
O1    O     O_R   0.385310 0.683220 0.500000 -0.663947
O2    O     O_R   0.614640 0.683250 0.500010 -0.595434
O3    O     O_R   0.328400 0.499950 0.653610 -0.578902
O4    O     O_R   0.557730 0.499970 0.653620 -0.586994
O5    O     O_R   0.385360 0.316750 0.499990 -0.579270
O6    O     O_R   0.614690 0.316780 0.500000 -0.642952
O7    O     O_R   0.442270 0.500030 0.346380 -0.610965
O8    O     O_R   0.671600 0.500050 0.346390 -0.620645
Zn1   Zn    Zn3+2 0.346880 0.499980 0.499990 0.984311
Zn2   Zn    Zn3+2 0.653120 0.500020 0.500010 0.975958

loop_
_geom_bond_atom_site_label_1
_geom_bond_atom_site_label_2
_ccdc_geom_bond_type
C5    C6    A    
C20   N2    A    
O8    Zn2   S    
C8    C9    A    
C4    O4    A    
C35   H4    S    
C19   H15   S    
C33   H16   S    
C34   H7    S    
C30   H5    S    
C6    C7    A    
O3    Zn1   S    
C12   C31   A    
C25   O8    A    
C32   C33   A    
C6    H11   S    
O4    Zn2   S    
C16   O6    A    
C20   C21   A    
C29   C30   A    
C26   C36   A    
C25   C27   S    
C25   O7    A    
Br3   C17   S    
C36   H1    S    
C23   C34   A    
C31   C35   A    
C10   C11   A    
C9    C10   A    
C24   H2    S    
C1    O2    A    
C13   C14   A    
C22   N1    A    
C15   C21   A    
O6    Zn2   S    
C1    O1    A    
C33   C34   A    
C14   C16   S    
C22   H13   S    
C27   C36   A    
C11   C13   A    
C3    H9    S    
C3    C9    A    
C18   H14   S    
O5    Zn1   S    
C2    C28   A    
C22   C24   A    
C7    C8    A    
N1    Zn2   S    
C2    C23   A    
C5    H10   S    
N2    Zn1   S    
C28   Cl1   S    
O2    Zn2   S    
C15   C17   A    
C31   C32   A    
C21   N1    A    
C1    C10   S    
C2    C4    S    
C11   H8    S    
C26   C32   A    
C19   C20   A    
C4    O3    A    
C12   C23   A    
C3    C5    A    
C27   C35   A    
O1    Zn1   S    
C17   C18   A    
C18   C19   A    
C29   H6    S    
C12   C30   A    
C28   C29   A    
C26   H3    S    
Br1   C7    S    
C13   H12   S    
C16   O5    A    
Br2   C15   S    
O7    Zn1   S    
C24   N2    A    
C8    C14   A    
