data_mof_unit_12508.cif
_audit_creation_date              2012-12-10T17:22:42-0500
_audit_creation_method            fapswitch 2.2
_symmetry_space_group_name_H-M    P1
_symmetry_Int_Tables_number       1
_space_group_crystal_system       triclinic
_cell_length_a                    10.623621
_cell_length_b                    10.763571
_cell_length_c                    9.644452
_cell_angle_alpha                 90.223701
_cell_angle_beta                  89.959346
_cell_angle_gamma                 93.891112
_cell_volume                      1100.2740437

loop_
_atom_site_label
_atom_site_type_symbol
_atom_type_description
_atom_site_fract_x
_atom_site_fract_y
_atom_site_fract_z
_atom_type_partial_charge
C1    C     C_R   0.496794 0.262705 0.499780 0.849351
C2    C     C_3   0.960502 0.500262 0.370285 0.705321
C3    C     C_3   0.035245 0.397377 0.434188 -0.183607
C4    C     C_3   0.122816 0.499998 0.500758 -0.074165
C5    C     C_R   0.284880 0.116065 0.622809 -0.133180
C6    C     C_R   0.184837 0.044723 0.682709 -0.113411
C7    C     C_R   0.184995 0.915453 0.683602 -0.127197
C8    C     C_R   0.285180 0.856734 0.624549 -0.151244
C9    C     C_R   0.388147 0.927194 0.564202 0.086567
C10   C     C_R   0.388088 0.058546 0.563411 0.025777
C11   C     C_R   0.489590 0.128300 0.499214 -0.215367
C12   C     C_R   0.259638 0.499465 0.500163 0.774827
C13   C     C_R   0.586204 0.069249 0.432638 0.602373
C14   C     C_R   0.585782 0.940974 0.433145 -0.251644
C15   C     C_R   0.489485 0.870202 0.500394 -0.167894
C16   C     C_R   0.669550 0.664288 0.149476 -0.036669
C17   C     C_R   0.755784 0.745157 0.083655 -0.259358
C18   C     C_R   0.759214 0.748178 0.942041 -0.217047
C19   C     C_R   0.676518 0.670932 0.863854 0.650703
C20   C     C_R   0.585337 0.582687 0.926713 0.053643
C21   C     C_R   0.584015 0.581364 0.076439 0.045802
C22   C     C_R   0.420062 0.422552 0.073167 0.712952
C23   C     C_R   0.496867 0.736889 0.500167 0.836640
C24   C     C_R   0.420161 0.422692 0.925721 -0.136131
C25   C     C_R   0.740427 0.500331 0.499816 0.866190
C26   C     C_3   0.040949 0.500418 0.632089 -0.114881
C27   C     C_3   0.950925 0.398019 0.565338 -0.228404
C28   C     C_3   0.877446 0.500597 0.499447 -0.079765
C29   C     C_3   0.965491 0.603016 0.565900 -0.232245
C30   C     C_3   0.049898 0.602905 0.434767 -0.263503
Cu1   Cu    Cu3+1 0.499990 0.499990 0.640660 0.992836
Cu2   Cu    Cu3+1 0.500010 0.500010 0.359340 1.043382
H1    H     H_    0.662433 0.896469 0.383132 0.159643
H2    H     H_    0.820138 0.806662 0.143409 0.182100
H3    H     H_    0.934553 0.686958 0.619905 0.188852
H4    H     H_    0.066465 0.313884 0.379467 0.179927
H5    H     H_    0.106291 0.089929 0.727437 0.141603
N1    N     N_R   0.501210 0.501210 0.147910 -0.236027
N2    N     N_R   0.501250 0.501290 0.852040 -0.218314
O1    O     O_R   0.499990 0.319640 0.618810 -0.600893
O2    O     O_R   0.500000 0.319660 0.381240 -0.493959
O3    O     O_R   0.316850 0.499960 0.618770 -0.612788
O4    O     O_R   0.316860 0.499980 0.381190 -0.534125
O5    O     O_R   0.500000 0.680340 0.618760 -0.511815
O6    O     O_R   0.500010 0.680360 0.381190 -0.626177
O7    O     O_R   0.683140 0.500020 0.618810 -0.514782
O8    O     O_R   0.683150 0.500040 0.381230 -0.571240
H6    H     H_    0.907702 0.314524 0.618900 0.174699
H7    H     H_    0.106611 0.860348 0.729092 0.135293
H8    H     H_    0.279903 0.756139 0.624872 0.137543
F1    F     F_    0.337586 0.342525 0.140806 -0.650669
H9    H     H_    0.674970 0.671670 0.258567 0.198934
H10   H     H_    0.826840 0.812801 0.891162 0.172599
F2    F     F_    0.693191 0.691754 0.728608 -0.677941
H11   H     H_    0.354555 0.359108 0.870494 0.159366
H12   H     H_    0.076793 0.500550 0.740201 0.170780
H13   H     H_    0.092971 0.686146 0.380605 0.159641
F3    F     F_    0.917103 0.500191 0.235144 -0.645842
F4    F     F_    0.683080 0.136432 0.370178 -0.655520
H14   H     H_    0.279237 0.216012 0.621581 0.128461

loop_
_geom_bond_atom_site_label_1
_geom_bond_atom_site_label_2
_ccdc_geom_bond_type
C27   H6    S    
C19   C20   A    
C4    C26   S    
Cu2   O2    S    
C2    F3    S    
C16   C21   A    
C13   F4    S    
Cu1   O3    S    
Cu2   N1    S    
C4    C12   S    
C9    C10   A    
C29   H3    S    
Cu1   Cu2   S    
C1    O1    A    
C2    C30   S    
Cu1   O5    S    
C14   H1    S    
C15   C23   S    
C17   C18   A    
C9    C15   A    
C6    H5    S    
C5    C10   A    
C13   C14   A    
Cu1   O1    S    
C25   C28   S    
C11   C13   A    
C26   C27   S    
C29   C30   S    
C3    H4    S    
C23   O6    A    
C25   O7    A    
C19   F2    S    
C3    C27   S    
C28   C29   S    
Cu2   O4    S    
Cu1   N2    S    
C2    C3    S    
C6    C7    A    
C5    H14   S    
C5    C6    A    
Cu2   O8    S    
C22   C24   A    
C16   C17   A    
C10   C11   A    
C21   N1    A    
C17   H2    S    
C12   O3    A    
C3    C4    S    
C22   N1    A    
C30   H13   S    
C8    H8    S    
C7    C8    A    
C24   N2    A    
C20   C21   A    
C7    H7    S    
C26   C29   S    
C18   C19   A    
Cu2   O6    S    
C1    O2    A    
C27   C28   S    
C20   N2    A    
C25   O8    A    
C14   C15   A    
C22   F1    S    
C2    C28   S    
C18   H10   S    
C12   O4    A    
C4    C30   S    
C23   O5    A    
C16   H9    S    
C26   H12   S    
C8    C9    A    
C24   H11   S    
Cu1   O7    S    
C1    C11   S    
