data_mof_unit_34864.cif
_audit_creation_date              2012-10-26T20:46:39-0400
_audit_creation_method            fapswitch 2.2
_symmetry_space_group_name_H-M    P1
_symmetry_Int_Tables_number       1
_space_group_crystal_system       triclinic
_cell_length_a                    15.123741
_cell_length_b                    13.931519
_cell_length_c                    10.928426
_cell_angle_alpha                 89.997987
_cell_angle_beta                  90.855154
_cell_angle_gamma                 90.000412
_cell_volume                      2302.3266694

loop_
_atom_site_label
_atom_site_type_symbol
_atom_type_description
_atom_site_fract_x
_atom_site_fract_y
_atom_site_fract_z
_atom_type_partial_charge
C1    C     C_R   0.330179 0.499879 0.499849 0.603760
C2    C     C_R   0.452024 0.891798 0.411794 -0.140742
C3    C     C_R   0.547964 0.891809 0.588163 -0.140734
C4    C     C_R   0.452925 0.790092 0.412032 0.386751
C5    C     C_R   0.547055 0.790106 0.587971 0.386809
C6    C     C_R   0.500000 0.945252 0.499966 -0.043146
C7    C     C_R   0.500532 0.499847 0.265232 0.639988
C8    C     C_R   0.499582 0.499846 0.734765 0.640447
C9    C     C_2   0.512368 0.422130 0.934639 0.232593
C10   C     C_2   0.488817 0.421939 0.065309 0.233106
C11   C     C_2   0.491478 0.499456 0.866625 -0.076666
C12   C     C_R   0.669822 0.499878 0.500131 0.603342
C13   C     C_2   0.508837 0.499498 0.133383 -0.076556
C14   C     C_R   0.093436 0.539836 0.401559 -0.120183
C15   C     C_R   0.906558 0.540266 0.598145 -0.120212
C16   C     C_R   0.185709 0.538533 0.399297 0.021294
C17   C     C_R   0.814288 0.538951 0.600401 0.021435
C18   C     C_R   0.233481 0.499366 0.500084 -0.032255
C19   C     C_R   0.766523 0.499358 0.499894 -0.032265
C20   C     C_R   0.187508 0.459315 0.600382 0.015459
C21   C     C_R   0.812504 0.458862 0.399902 0.015444
C22   C     C_R   0.095122 0.460275 0.598366 -0.117413
C23   C     C_R   0.048361 0.500792 0.500200 -0.022133
C24   C     C_R   0.904890 0.459826 0.401923 -0.117485
C25   C     C_3   0.622763 0.309320 0.946377 -0.062088
C26   C     C_3   0.379400 0.308049 0.053671 -0.062452
C27   C     C_3   0.419732 0.764991 0.208022 -0.089575
C28   C     C_3   0.580094 0.765082 0.792037 -0.089441
C29   C     C_2   0.229455 0.573086 0.287021 0.599143
C30   C     C_2   0.770523 0.573876 0.712449 0.599437
C31   C     C_2   0.232641 0.417331 0.709760 0.563296
C32   C     C_2   0.767380 0.416386 0.290842 0.563153
C33   C     C_3   0.710296 0.238200 0.609838 -0.106080
C34   C     C_R   0.951643 0.500788 0.499792 -0.022082
C35   C     C_3   0.289728 0.238181 0.389934 -0.106367
C36   C     C_R   0.563589 0.108399 0.566755 -0.141768
C37   C     C_R   0.436423 0.108413 0.433169 -0.141793
C38   C     C_R   0.563314 0.210021 0.565535 0.394413
C39   C     C_R   0.436697 0.210038 0.434424 0.394524
C40   C     C_R   0.500003 0.054943 0.499962 -0.043617
Cu1   Cu    Cu3+1 0.500000 0.596430 0.500000 1.113814
Cu2   Cu    Cu3+1 0.500000 0.403570 0.500000 1.174467
H1    H     H_    0.463759 0.563409 0.908117 0.023845
H2    H     H_    0.586281 0.927520 0.658287 0.102511
H3    H     H_    0.604470 0.275330 0.034395 0.153495
H4    H     H_    0.670436 0.369150 0.962400 0.128302
H5    H     H_    0.656999 0.254023 0.891564 0.155246
H6    H     H_    0.397720 0.274804 0.965204 0.153264
H7    H     H_    0.331050 0.367370 0.038537 0.127848
H8    H     H_    0.345964 0.252000 0.108214 0.155515
H9    H     H_    0.398398 0.705992 0.146253 0.143881
H10   H     H_    0.491739 0.776370 0.193034 0.091571
H11   H     H_    0.381273 0.829657 0.180941 0.114247
H12   H     H_    0.535976 0.563766 0.091929 0.023194
H13   H     H_    0.601332 0.706094 0.853886 0.143419
H14   H     H_    0.508082 0.776524 0.806907 0.091549
H15   H     H_    0.618576 0.829727 0.819132 0.114424
H16   H     H_    0.321949 0.550307 0.159556 0.320818
H17   H     H_    0.678316 0.551212 0.840353 0.320857
H18   H     H_    0.227911 0.321839 0.848450 0.327547
H19   H     H_    0.772021 0.320068 0.153085 0.327337
H20   H     H_    0.720728 0.231875 0.509375 0.125758
H21   H     H_    0.731258 0.171534 0.657752 0.096441
H22   H     H_    0.753910 0.296805 0.643698 0.156735
H23   H     H_    0.056184 0.569651 0.324973 0.155047
H24   H     H_    0.279226 0.231716 0.490367 0.125336
H25   H     H_    0.268816 0.171575 0.341849 0.096452
H26   H     H_    0.246125 0.296819 0.356140 0.156944
H27   H     H_    0.943793 0.570414 0.674529 0.154849
H28   H     H_    0.058935 0.429963 0.674070 0.162996
H29   H     H_    0.941079 0.429172 0.326445 0.162847
H30   H     H_    0.614144 0.072857 0.620217 0.102424
H31   H     H_    0.385881 0.072877 0.379678 0.102255
H32   H     H_    0.413691 0.927503 0.341679 0.102444
N1    N     N_R   0.500000 0.258690 0.500000 -0.210093
N2    N     N_R   0.500000 0.741330 0.500000 -0.213346
O1    O     O_R   0.371460 0.581430 0.500010 -0.466711
O2    O     O_3   0.454980 0.339600 0.119384 -0.510863
O3    O     O_3   0.401113 0.738299 0.329742 -0.503120
O4    O     O_3   0.598797 0.738331 0.670364 -0.502877
O5    O     O_2   0.200139 0.643083 0.232364 -0.502465
O6    O     O_R   0.301294 0.522864 0.240110 -0.691508
O7    O     O_2   0.799550 0.644349 0.766377 -0.502178
O8    O     O_R   0.698999 0.523484 0.759977 -0.691473
O9    O     O_2   0.304384 0.447769 0.744754 -0.545969
O10   O     O_R   0.191240 0.344307 0.775509 -0.709033
O11   O     O_2   0.695742 0.446835 0.255430 -0.545771
O12   O     O_R   0.628540 0.581430 0.499990 -0.467015
O13   O     O_R   0.808675 0.342864 0.225873 -0.709239
O14   O     O_3   0.622092 0.261790 0.638158 -0.504458
O15   O     O_3   0.377948 0.261834 0.361781 -0.504937
O16   O     O_R   0.371470 0.418560 0.500010 -0.470653
O17   O     O_R   0.628530 0.418560 0.499990 -0.470516
O18   O     O_R   0.500000 0.581410 0.321940 -0.491105
O19   O     O_R   0.500000 0.581410 0.678060 -0.490913
O20   O     O_R   0.500010 0.418540 0.321940 -0.400836
O21   O     O_R   0.499990 0.418540 0.678060 -0.401497
O22   O     O_3   0.547070 0.340273 0.880438 -0.510440

loop_
_geom_bond_atom_site_label_1
_geom_bond_atom_site_label_2
_ccdc_geom_bond_type
C9    O22   S    
C31   O9    D    
Cu2   O17   S    
C1    O1    A    
Cu1   Cu2   S    
C3    C6    A    
C10   O2    S    
C28   H15   S    
C7    O20   A    
C1    C18   S    
C26   O2    S    
Cu2   O20   S    
C19   C21   A    
C37   C40   A    
C27   O3    S    
H16   O6    S    
Cu1   O1    S    
C30   O7    D    
Cu1   O12   S    
C32   O13   S    
C27   H9    S    
C33   H20   S    
C11   H1    S    
C39   N1    A    
C9    C10   S    
C25   H5    S    
C15   C34   A    
C18   C20   A    
C2    H32   S    
C26   H6    S    
C31   O10   S    
C17   C30   S    
C2    C6    A    
C8    O19   A    
C39   O15   S    
C28   H13   S    
H19   O13   S    
C38   N1    A    
C28   H14   S    
C15   H27   S    
C21   C32   S    
C3    H2    S    
C12   O12   A    
C36   C40   A    
C6    C40   S    
H17   O8    S    
C4    O3    S    
C26   H7    S    
H18   O10   S    
C35   H24   S    
C16   C29   S    
C32   O11   D    
C24   C34   A    
C14   C23   A    
C2    C4    A    
C8    O21   A    
C29   O5    D    
C8    C11   S    
Cu1   O18   S    
C35   H25   S    
C33   H21   S    
C23   C34   S    
Cu2   N1    S    
C5    O4    S    
C9    C11   D    
C20   C22   A    
C1    O16   A    
C14   C16   A    
C12   O17   A    
Cu2   O21   S    
C25   H3    S    
C27   H10   S    
C13   H12   S    
C15   C17   A    
C7    O18   A    
C37   H31   S    
C3    C5    A    
C10   C13   D    
C27   H11   S    
C38   O14   S    
C5    N2    A    
C26   H8    S    
C29   O6    S    
C37   C39   A    
C33   O14   S    
Cu1   N2    S    
Cu1   O19   S    
C35   H26   S    
C33   H22   S    
C12   C19   S    
C36   C38   A    
C17   C19   A    
C14   H23   S    
Cu2   O16   S    
C30   O8    S    
C28   O4    S    
C4    N2    A    
C25   O22   S    
C7    C13   S    
C16   C18   A    
C21   C24   A    
C22   C23   A    
C25   H4    S    
C22   H28   S    
C36   H30   S    
C24   H29   S    
C20   C31   S    
C35   O15   S    
