data_mof_unit_32860.cif
_audit_creation_date              2013-03-05T16:00:57-0500
_audit_creation_method            fapswitch 2.2
_symmetry_space_group_name_H-M    P1
_symmetry_Int_Tables_number       1
_space_group_crystal_system       triclinic
_cell_length_a                    6.919184
_cell_length_b                    34.285717
_cell_length_c                    38.401121
_cell_angle_alpha                 99.602648
_cell_angle_beta                  89.82588
_cell_angle_gamma                 90.552144
_cell_volume                      8981.79562362

loop_
_atom_site_label
_atom_site_type_symbol
_atom_site_description
_atom_site_fract_x
_atom_site_fract_y
_atom_site_fract_z
_atom_type_partial_charge
O1    O     O_R   0.494320 0.461440 0.460990 -0.579250
O2    O     O_R   0.821450 0.462560 0.532500 -0.554036
O3    O     O_R   0.994330 0.538560 0.539010 -0.591676
C1    C     C_R   0.652127 0.453940 0.543940 1.074941
O4    O     O_R   0.823870 0.456770 0.460860 -0.586825
O5    O     O_R   0.996760 0.532730 0.466860 -0.582991
C2    C     C_R   0.654146 0.445456 0.448435 1.100663
O6    O     O_R   0.491880 0.467270 0.533140 -0.597474
O7    O     O_3   0.661650 0.524930 0.502050 -0.260852
V1    V     V_3+5 0.935500 0.495380 0.499620 1.306071
O8    O     O_R   0.326630 0.537440 0.467500 -0.543289
C3    C     C_R   0.158238 0.546731 0.456734 1.087019
O9    O     O_R   0.324210 0.543230 0.539140 -0.617396
C4    C     C_R   0.155591 0.553957 0.552076 1.024680
V2    V     V_3+5 0.435810 0.504620 0.500380 1.295708
O10   O     O_3   0.159790 0.475070 0.497950 -0.244619
C5    C     C_R   0.911737 0.827142 0.794988 0.633517
N1    N     N_R   0.050365 0.829378 0.820764 -0.176108
C6    C     C_R   0.199223 0.802948 0.817791 0.557355
C7    C     C_R   0.214785 0.773224 0.787918 0.013043
C8    C     C_R   0.074730 0.770579 0.760948 0.020858
C9    C     C_R   0.922540 0.798204 0.763903 -0.319305
C10   C     C_R   0.367757 0.746167 0.784466 -0.110424
C11   C     C_R   0.380629 0.716416 0.754998 -0.107204
C12   C     C_R   0.240725 0.712864 0.728195 0.020436
C13   C     C_R   0.087888 0.740164 0.731012 -0.043232
C14   C     C_R   0.948873 0.737010 0.703962 -0.359365
C15   C     C_R   0.798099 0.764727 0.706857 0.752398
C16   C     C_R   0.785764 0.795432 0.735995 0.184423
C17   C     C_R   0.249617 0.682376 0.698703 0.532867
N2    N     N_R   0.113409 0.679493 0.672468 -0.181904
C18   C     C_R   0.966511 0.706460 0.674405 0.698412
O11   O     O_2   0.763321 0.852647 0.799779 -0.426792
O12   O     O_2   0.331227 0.805208 0.843869 -0.510477
H1    H     H_    0.478354 0.747846 0.804579 0.170327
H2    H     H_    0.500607 0.696127 0.753366 0.174429
O13   O     O_2   0.392219 0.655507 0.696571 -0.481356
O14   O     O_2   0.839222 0.703977 0.647570 -0.437696
C19   C     C_R   0.290436 0.643279 0.620878 -0.036353
H3    H     H_    0.410892 0.663731 0.626577 0.212240
C20   C     C_R   0.301780 0.612638 0.591822 -0.134927
H4    H     H_    0.431525 0.610054 0.575783 0.170150
C21   C     C_R   0.145931 0.586150 0.583216 -0.215163
C22   C     C_R   0.979953 0.590662 0.604729 -0.298422
H5    H     H_    0.858357 0.570488 0.599047 0.172100
C23   C     C_R   0.970039 0.620759 0.634211 0.846376
C24   C     C_R   0.124637 0.647709 0.642413 -0.057619
C25   C     C_R   0.882376 0.857589 0.875640 -0.129119
H6    H     H_    0.776189 0.834013 0.869631 0.193076
C26   C     C_R   0.867086 0.884641 0.907327 0.354390
C27   C     C_R   0.009489 0.914752 0.915780 -0.327777
C28   C     C_R   0.163424 0.916488 0.892000 -0.236650
H7    H     H_    0.270754 0.939875 0.897786 0.178018
C29   C     C_R   0.177499 0.889682 0.860089 0.434916
C30   C     C_R   0.036129 0.859434 0.852044 -0.010060
C31   C     C_R   0.043928 0.867486 0.184383 0.620405
O15   O     O_2   0.005772 0.906231 0.194658 -0.467770
N3    N     N_R   0.063004 0.852459 0.149217 -0.169473
C32   C     C_R   0.090018 0.812749 0.138213 0.637407
C33   C     C_R   0.901664 0.872044 0.098071 -0.111404
C34   C     C_R   0.879178 0.896528 0.072679 0.333873
C35   C     C_R   0.150745 0.937159 0.099058 0.242609
C36   C     C_R   0.177079 0.910874 0.123439 0.300651
C37   C     C_R   0.049212 0.878484 0.123218 -0.038723
C38   C     C_R   0.084259 0.801774 0.199251 -0.070166
C39   C     C_R   0.064019 0.842840 0.209951 -0.097663
C40   C     C_R   0.072499 0.858886 0.245836 -0.114545
C41   C     C_R   0.088623 0.786124 0.162812 -0.318066
C42   C     C_R   0.005075 0.929438 0.072623 -0.472546
H8    H     H_    0.073105 0.890703 0.253992 0.224374
C43   C     C_R   0.150523 0.574799 0.431080 -0.535530
C44   C     C_R   0.075920 0.766627 0.286693 0.080516
C45   C     C_R   0.150402 0.710548 0.240096 0.007167
C46   C     C_R   0.116141 0.725921 0.276110 0.093144
C47   C     C_R   0.012656 0.779281 0.321721 -0.107046
C48   C     C_R   0.017156 0.754213 0.346718 -0.053237
C49   C     C_R   0.075600 0.714899 0.337274 -0.032625
C50   C     C_R   0.120698 0.700328 0.301771 -0.137426
C51   C     C_R   0.169697 0.660203 0.291955 -0.318089
C52   C     C_R   0.167337 0.635301 0.317819 0.588112
N4    N     N_R   0.129476 0.650318 0.352611 -0.173586
C53   C     C_R   0.086797 0.689654 0.362561 0.510293
C54   C     C_R   0.982342 0.623594 0.402948 -0.133747
C55   C     C_R   0.991524 0.600493 0.429927 0.317550
C56   C     C_R   0.302112 0.575313 0.406499 0.806977
C57   C     C_R   0.296590 0.600608 0.381534 -0.187095
C58   C     C_R   0.135582 0.624529 0.379001 0.042826
O16   O     O_2   0.058048 0.704645 0.396944 -0.510839
C59   C     C_R   0.091217 0.792863 0.261608 -0.058410
C60   C     C_R   0.099097 0.776527 0.225024 0.018311
C61   C     C_R   0.121607 0.735160 0.214080 -0.146334
C62   C     C_R   0.097954 0.834851 0.271464 0.266671
H9    H     H_    0.857930 0.642131 0.401367 0.188853
H10   H     H_    0.972043 0.765726 0.373466 0.193718
H11   H     H_    0.953868 0.808371 0.330173 0.177577
O17   O     O_2   0.123078 0.799371 0.103681 -0.451028
C63   C     C_R   0.091459 0.744601 0.152235 0.233007
H12   H     H_    0.802611 0.847391 0.098209 0.196725
C64   C     C_R   0.215108 0.671158 0.231533 -0.247448
C65   C     C_R   0.221756 0.646246 0.256703 0.864033
O18   O     O_2   0.199402 0.596249 0.308130 -0.431346
C66   C     C_R   0.105531 0.719732 0.177576 0.641769
H13   H     H_    0.269141 0.659208 0.205626 0.248206
H14   H     H_    0.418072 0.601239 0.363788 0.181156
C67   C     C_R   0.561374 0.310265 0.637253 0.671231
O19   O     O_2   0.527738 0.295787 0.602917 -0.467200
N5    N     N_R   0.603966 0.349677 0.647385 -0.163713
C68   C     C_R   0.640560 0.364787 0.682135 0.557227
C69   C     C_R   0.791800 0.393605 0.614824 -0.229888
C70   C     C_R   0.805233 0.418942 0.589826 0.800850
C71   C     C_R   0.464449 0.408346 0.576827 -0.298433
C72   C     C_R   0.451619 0.383008 0.601894 0.880294
C73   C     C_R   0.615563 0.375431 0.621135 -0.118052
C74   C     C_R   0.595077 0.299509 0.698050 -0.061154
C75   C     C_R   0.555138 0.284575 0.662375 -0.203464
C76   C     C_R   0.505885 0.244559 0.652674 -0.221861
C77   C     C_R   0.637274 0.340013 0.708013 -0.102969
C78   C     C_R   0.641077 0.426684 0.570395 -0.463851
H15   H     H_    0.335847 0.413474 0.562315 0.253622
H16   H     H_    0.463474 0.232814 0.625808 0.233737
C79   C     C_R   0.513190 0.074571 0.930885 -0.290192
C80   C     C_R   0.579596 0.206999 0.738397 -0.253022
C81   C     C_R   0.580413 0.265033 0.785524 0.134772
C82   C     C_R   0.573344 0.223432 0.774749 0.036659
C83   C     C_R   0.609742 0.165753 0.729173 0.690183
C84   C     C_R   0.604171 0.141104 0.754721 0.722508
C85   C     C_R   0.573914 0.156796 0.790550 -0.405557
C86   C     C_R   0.560691 0.198148 0.800575 -0.136335
C87   C     C_R   0.535475 0.214322 0.836476 -0.004371
C88   C     C_R   0.523606 0.188973 0.861751 0.496983
N6    N     N_R   0.538605 0.148832 0.851733 -0.191107
C89   C     C_R   0.563024 0.132491 0.816904 0.618322
C90   C     C_R   0.375000 0.097321 0.879434 -0.013537
C91   C     C_R   0.366511 0.073126 0.905353 -0.107131
C92   C     C_R   0.669348 0.101697 0.930331 0.331761
C93   C     C_R   0.677291 0.125363 0.903690 -0.145571
C94   C     C_R   0.530681 0.123497 0.878305 0.112933
O20   O     O_2   0.578280 0.092902 0.807897 -0.430701
C95   C     C_R   0.561202 0.232676 0.712943 -0.087283
C96   C     C_R   0.592115 0.273982 0.723714 0.017688
C97   C     C_R   0.618831 0.289932 0.759981 -0.061106
C98   C     C_R   0.504753 0.219111 0.677485 0.849508
H17   H     H_    0.245706 0.052746 0.905136 0.149347
H18   H     H_    0.260057 0.095708 0.860158 0.137876
O21   O     O_2   0.679253 0.403744 0.691721 -0.512818
C99   C     C_R   0.682588 0.354724 0.743278 -0.136413
H19   H     H_    0.919086 0.388188 0.629564 0.231903
H20   H     H_    0.728527 0.385263 0.750757 0.217544
C100  C     C_R   0.540519 0.280266 0.821247 -0.099331
C101  C     C_R   0.519928 0.255397 0.846287 -0.054345
O22   O     O_2   0.496513 0.204367 0.896091 -0.496458
C102  C     C_R   0.681381 0.330126 0.768999 0.270264
H21   H     H_    0.518969 0.311491 0.830164 0.176347
H22   H     H_    0.492627 0.268601 0.873473 0.194608
H23   H     H_    0.795913 0.146099 0.903126 0.172657
C103  C     C_R   0.540177 0.166765 0.207131 0.671781
N7    N     N_R   0.538676 0.177348 0.174256 -0.166709
C104  C     C_R   0.542152 0.216433 0.170384 0.681574
C105  C     C_R   0.540959 0.246920 0.200377 -0.236992
C106  C     C_R   0.556985 0.236067 0.234231 0.005269
C107  C     C_R   0.556750 0.195756 0.237583 -0.164965
C108  C     C_R   0.530616 0.287765 0.197853 0.366910
C109  C     C_R   0.546933 0.316434 0.228384 -0.144962
C110  C     C_R   0.568835 0.305773 0.261848 -0.108790
C111  C     C_R   0.573770 0.265489 0.264871 -0.042542
C112  C     C_R   0.596050 0.254584 0.298505 -0.334978
C113  C     C_R   0.596327 0.214073 0.301273 0.881825
C114  C     C_R   0.574912 0.185214 0.271219 -0.218796
C115  C     C_R   0.581425 0.334645 0.292557 0.674531
N8    N     N_R   0.604510 0.323790 0.325081 -0.165209
C116  C     C_R   0.616248 0.284619 0.328378 0.679802
O23   O     O_2   0.528960 0.128202 0.210311 -0.470638
O24   O     O_2   0.553060 0.225535 0.137614 -0.431419
H24   H     H_    0.537916 0.347353 0.225792 0.216468
O25   O     O_2   0.568562 0.373290 0.289929 -0.472373
O26   O     O_2   0.647250 0.274847 0.360484 -0.393995
H25   H     H_    0.575254 0.154417 0.274414 0.228266
C117  C     C_R   0.467487 0.356672 0.382590 0.239188
C118  C     C_R   0.483094 0.385533 0.413594 0.225671
C119  C     C_R   0.641315 0.412554 0.417803 -0.397102
C120  C     C_R   0.784461 0.409263 0.391549 -0.267532
H26   H     H_    0.905951 0.429706 0.394131 0.198505
C121  C     C_R   0.771284 0.380375 0.361335 0.893355
C122  C     C_R   0.613307 0.354027 0.356356 -0.207163
C123  C     C_R   0.370436 0.142491 0.121386 0.896070
C124  C     C_R   0.357787 0.112130 0.092216 -0.254649
H27   H     H_    0.228323 0.109542 0.076175 0.187572
C125  C     C_R   0.511249 0.085847 0.083483 -0.253156
C126  C     C_R   0.677795 0.090493 0.104746 -0.203464
H28   H     H_    0.797703 0.070532 0.098098 0.196722
C127  C     C_R   0.692283 0.120632 0.134510 0.372374
C128  C     C_R   0.535112 0.146850 0.143149 -0.185435
O27   O     O_R   0.662230 0.032770 0.966890 -0.588263
O28   O     O_R   0.330090 0.043230 0.039150 -0.589161
O29   O     O_R   0.157350 0.967260 0.033130 -0.568514
C129  C     C_R   0.499338 0.053869 0.052168 1.108791
O30   O     O_R   0.332650 0.037450 0.967510 -0.596183
O31   O     O_R   0.159930 0.961430 0.960980 -0.601323
C130  C     C_R   0.502389 0.046770 0.956764 0.989478
O32   O     O_R   0.659640 0.038600 0.039040 -0.598957
O33   O     O_3   0.492510 0.975090 0.997960 -0.234065
V3    V     V_3+5 0.218600 0.004620 0.000380 1.286937
O34   O     O_R   0.830050 0.956730 0.960830 -0.579732
C131  C     C_R   0.998737 0.945835 0.947978 1.012790
O35   O     O_R   0.827490 0.962520 0.032470 -0.549820
C132  C     C_R   0.995400 0.954472 0.044335 1.088598
V4    V     V_3+5 0.718310 0.995320 0.999580 1.318613
O36   O     O_3   0.994270 0.024900 0.002040 -0.267343
N9    N     N_R   0.711459 0.879762 0.931093 0.248326
O37   O     O_R   0.746249 0.880742 0.964480 -0.321531
O38   O     O_R   0.542606 0.867585 0.918695 -0.334742
N10   N     N_R   0.333209 0.894117 0.836019 0.262649
O39   O     O_R   0.310795 0.883550 0.802112 -0.291635
O40   O     O_R   0.492176 0.912314 0.847602 -0.336549
N11   N     N_R   0.269259 0.972206 0.101701 0.265428
O41   O     O_R   0.456800 0.969854 0.101968 -0.322715
O42   O     O_R   0.189111 0.006815 0.105043 -0.363534
N12   N     N_R   0.332579 0.917158 0.148533 0.266720
O43   O     O_R   0.444395 0.888023 0.152796 -0.385724
O44   O     O_R   0.356834 0.951430 0.168502 -0.235846
N13   N     N_R   0.845320 0.605492 0.457000 0.269230
O45   O     O_R   0.670222 0.614831 0.449541 -0.354028
O46   O     O_R   0.894688 0.608656 0.490039 -0.380485
N14   N     N_R   0.157794 0.853749 0.306048 0.236008
O47   O     O_R   0.306838 0.840543 0.320939 -0.345231
O48   O     O_R   0.084181 0.887510 0.320182 -0.301805
N15   N     N_R   0.732656 0.886095 0.046378 0.257356
O49   O     O_R   0.724065 0.849939 0.029441 -0.274745
O50   O     O_R   0.580752 0.908173 0.046639 -0.317232
N16   N     N_R   0.063569 0.726721 0.116045 0.306730
O51   O     O_R   0.181203 0.699507 0.101185 -0.218570
O52   O     O_R   0.903576 0.732622 0.100047 -0.263091
F1    F     F_    0.455475 0.550825 0.406139 -0.662338
F2    F     F_    0.283048 0.608593 0.246248 -0.585607
F3    F     F_    0.079086 0.680410 0.166081 -0.623634
F4    F     F_    0.663947 0.763056 0.680854 -0.594051
F5    F     F_    0.278865 0.366181 0.607715 -0.667664
F6    F     F_    0.633051 0.101796 0.744045 -0.535863
F7    F     F_    0.666624 0.149282 0.696189 -0.545461
F8    F     F_    0.427320 0.182537 0.667136 -0.586436
F9    F     F_    0.978193 0.436462 0.585378 -0.679610
N17   N     N_R   0.638776 0.824580 0.735643 0.305400
O53   O     O_R   0.458983 0.813606 0.730868 -0.303083
O54   O     O_R   0.688243 0.860552 0.732540 -0.207006
N18   N     N_R   0.815184 0.107068 0.957342 0.244995
O55   O     O_R   0.991739 0.115957 0.949642 -0.380897
O56   O     O_R   0.766222 0.109717 0.990397 -0.370514
N19   N     N_R   0.769583 0.345122 0.802454 0.231949
O57   O     O_R   0.898761 0.324227 0.815429 -0.368027
O58   O     O_R   0.745064 0.381804 0.817076 -0.321866
N20   N     N_R   0.492302 0.300977 0.165051 0.274341
O59   O     O_R   0.332235 0.290306 0.148268 -0.250100
O60   O     O_R   0.593630 0.329942 0.156150 -0.276527
F10   F     F_    0.615201 0.201947 0.332979 -0.578923
N21   N     N_R   0.305855 0.329621 0.378032 0.277297
O61   O     O_R   0.254468 0.310754 0.403347 -0.232274
O62   O     O_R   0.215837 0.322108 0.347925 -0.339246
N22   N     N_R   0.339570 0.386978 0.440861 0.271415
O63   O     O_R   0.157385 0.389769 0.433509 -0.347188
O64   O     O_R   0.390560 0.384692 0.473046 -0.352460
F11   F     F_    0.913334 0.378070 0.336663 -0.624529
F12   F     F_    0.221239 0.167936 0.128505 -0.618849
N23   N     N_R   0.867014 0.124291 0.155231 0.274462
O65   O     O_R   0.919543 0.158089 0.173593 -0.340996
O66   O     O_R   0.982368 0.094309 0.153906 -0.306829
F13   F     F_    0.810259 0.623344 0.655030 -0.656527

loop_
_geom_bond_atom_site_label_1
_geom_bond_atom_site_label_2
_geom_bond_distance
_ccdc_geom_bond_type
C25   C30   1.403126 A    
C54   C58   1.405051 A    
C8    C13   1.420725 A    
C81   C100  1.411475 A    
C47   C48   1.391773 A    
C90   C94   1.400619 A    
C111  C112  1.412514 A    
O27   V4    1.981257 S    
C9    C16   1.422553 A    
C81   C82   1.417688 A    
C20   H4    1.083103 S    
C92   N18   1.437750 S    
O28   C129  1.299548 A    
C6    C7    1.406186 A    
O33   V4    1.700354 S    
C1    O6    1.298487 A    
C57   H14   1.082821 S    
N14   O47   1.301714 A    
C70   C78   1.412215 A    
N21   O62   1.301137 A    
C74   C75   1.407430 A    
C60   C61   1.420349 A    
C47   H11   1.079127 S    
N23   O65   1.301127 A    
C19   C20   1.401691 A    
O29   V3    1.981350 S    
C49   C50   1.406732 A    
C27   C131  1.493790 S    
C98   F8    1.356291 S    
C67   N5    1.371751 A    
C42   C132  1.494596 S    
N7    C104  1.372647 A    
C96   C97   1.420674 A    
C97   C102  1.427047 A    
C54   C55   1.407061 A    
C56   F1    1.358063 S    
C36   N12   1.437084 S    
C8    C9    1.414743 A    
C15   C16   1.405606 A    
C80   C95   1.427112 A    
C108  C109  1.402754 A    
C33   H12   1.083753 S    
C55   N13   1.439132 S    
N11   O42   1.301346 A    
C35   N11   1.437859 S    
C56   C57   1.396742 A    
C17   N2    1.372468 A    
C95   C98   1.418205 A    
C53   O16   1.349427 S    
C123  F12   1.355572 S    
N20   O60   1.301139 A    
N8    C116  1.373035 A    
C89   O20   1.348720 S    
C114  H25   1.083192 S    
C54   H9    1.082758 S    
C45   C64   1.412486 A    
N21   O61   1.301205 A    
V3    O36   1.703585 S    
C31   O15   1.349563 S    
C108  N20   1.434160 S    
C17   O13   1.349365 S    
C71   H15   1.082573 S    
N1    C6    1.370336 A    
O33   V3    2.151775 S    
O30   C130  1.298284 A    
N15   O49   1.301176 A    
C100  H21   1.079866 S    
C85   C89   1.415628 A    
N5    C73   1.448250 S    
C48   H10   1.083269 S    
C91   H17   1.083420 S    
C43   C56   1.410905 A    
O8    V2    1.981745 S    
O2    V1    1.983434 S    
C79   C130  1.488616 S    
C123  C124  1.398484 A    
C109  C110  1.402482 A    
C26   N9    1.435933 S    
N19   O58   1.301437 A    
C5    N1    1.372852 A    
O31   V3    1.972671 S    
C119  C120  1.402946 A    
N17   O54   1.301200 A    
N5    C68   1.371891 A    
C104  C105  1.420457 A    
O1    V2    1.975953 S    
C18   O14   1.348958 S    
C79   C91   1.408067 A    
O7    V1    2.151717 S    
C63   C66   1.400877 A    
C83   F7    1.356754 S    
C129  O32   1.295448 A    
C82   C86   1.423917 A    
C109  H24   1.083542 S    
C92   C93   1.408463 A    
C39   C40   1.397156 A    
C101  H22   1.083178 S    
C66   F3    1.357605 S    
C113  F10   1.357638 S    
N2    C24   1.451599 S    
O9    C4    1.298862 A    
C86   C87   1.408549 A    
C20   C21   1.407114 A    
C1    C78   1.492003 S    
C110  C115  1.409816 A    
C69   H19   1.082501 S    
C5    O11   1.347414 S    
C44   C47   1.412295 A    
O5    C3    1.295870 A    
C72   C73   1.405334 A    
C118  N22   1.436079 S    
C28   C29   1.407485 A    
N4    C53   1.373764 A    
C99   H20   1.083369 S    
C120  C121  1.396783 A    
C45   C46   1.415581 A    
N3    C37   1.449619 S    
C38   C60   1.423881 A    
V2    O10   2.148226 S    
C27   C28   1.408160 A    
C74   C77   1.405612 A    
C115  N8    1.371619 A    
C117  C118  1.419170 A    
C51   C65   1.405534 A    
N20   O59   1.301421 A    
C11   C12   1.404732 A    
C45   C61   1.426716 A    
C44   C46   1.417014 A    
C64   H13   1.078000 S    
C59   C60   1.424077 A    
C113  C114  1.396478 A    
O4    C2    1.300038 A    
C93   H23   1.083201 S    
C57   C58   1.402881 A    
C41   C63   1.414120 A    
C117  N21   1.438265 S    
C22   C23   1.400847 A    
C26   C27   1.418647 A    
C12   C13   1.410946 A    
C120  H26   1.083370 S    
O34   V4    1.979512 S    
C103  O23   1.349363 S    
C126  H28   1.083169 S    
C79   C92   1.421260 A    
V4    O36   2.148292 S    
C35   C42   1.424036 A    
C33   C34   1.398615 A    
C127  N23   1.442290 S    
C65   F2    1.358005 S    
C43   C55   1.421387 A    
O2    C1    1.298630 A    
C121  C122  1.404289 A    
O5    V1    1.981392 S    
N13   O45   1.301001 A    
N6    C94   1.446762 S    
C32   C41   1.418880 A    
C90   C91   1.398717 A    
C104  O24   1.347846 S    
N12   O44   1.301246 A    
C105  C106  1.415598 A    
C7    C10   1.405520 A    
C62   N14   1.437407 S    
C23   F13   1.357259 S    
C38   C41   1.412944 A    
C81   C97   1.426533 A    
C35   C36   1.416906 A    
N9    O37   1.300068 A    
C115  O25   1.349295 S    
C105  C108  1.422280 A    
O30   V3    1.983383 S    
C34   N15   1.433375 S    
C106  C111  1.420578 A    
C48   C49   1.399454 A    
C59   C62   1.426486 A    
N16   O52   1.301450 A    
C25   C26   1.405946 A    
N4    C58   1.452774 S    
O3    C4    1.295818 A    
C112  C116  1.414196 A    
N1    C30   1.450068 S    
C15   F4    1.359230 S    
C99   C102  1.401676 A    
C25   H6    1.083426 S    
N15   O50   1.300211 A    
C3    C43   1.488968 S    
N10   O40   1.301582 A    
C103  C107  1.406924 A    
C72   F5    1.356361 S    
O32   V4    1.980041 S    
C74   C96   1.423027 A    
C71   C78   1.408921 A    
C21   C22   1.407239 A    
C13   C14   1.407984 A    
C83   C84   1.397834 A    
O27   C130  1.296097 A    
C51   C52   1.413602 A    
C32   O17   1.348471 S    
C61   C66   1.417631 A    
C124  C125  1.402663 A    
N6    C89   1.371782 A    
C84   F6    1.358194 S    
N22   O64   1.301399 A    
C19   H3    1.083003 S    
N19   O57   1.301731 A    
C123  C128  1.407105 A    
C19   C24   1.406644 A    
C68   O21   1.349410 S    
C67   O19   1.349194 S    
C34   C42   1.419110 A    
C12   C17   1.408861 A    
N23   O66   1.301708 A    
O35   C132  1.298020 A    
C23   C24   1.408239 A    
C110  C111  1.405968 A    
C90   H18   1.082853 S    
C71   C72   1.402204 A    
N8    C122  1.450761 S    
C14   C18   1.416092 A    
O1    C2    1.294609 A    
C68   C77   1.410903 A    
C67   C75   1.410983 A    
N2    C18   1.374092 A    
C22   H5    1.083263 S    
C52   N4    1.374649 A    
C6    O12   1.349610 S    
N14   O48   1.301509 A    
C76   C98   1.395083 A    
C29   C30   1.415345 A    
C95   C96   1.421900 A    
C85   C86   1.409554 A    
C69   C73   1.402828 A    
C118  C119  1.419335 A    
O6    V2    1.980658 S    
C116  O26   1.348739 S    
C10   H1    1.083203 S    
C5    C9    1.421497 A    
C11   H2    1.083159 S    
C64   C65   1.393695 A    
C52   O18   1.348832 S    
C33   C37   1.397883 A    
C40   H8    1.083537 S    
C106  C107  1.409290 A    
C80   C83   1.416639 A    
O9    V2    1.979748 S    
C88   N6    1.370661 A    
N3    C32   1.371021 A    
N7    C128  1.450456 S    
O4    V1    1.973394 S    
N13   O46   1.301559 A    
O3    V1    1.972429 S    
C121  F11   1.356747 S    
C100  C101  1.393628 A    
O31   C131  1.296895 A    
C44   C59   1.426500 A    
C50   C51   1.408807 A    
C70   F9    1.356967 S    
N12   O43   1.301327 A    
C112  C113  1.410607 A    
O29   C132  1.297533 A    
C49   C53   1.407190 A    
C84   C85   1.407048 A    
C31   C39   1.406132 A    
N17   O53   1.300814 A    
C29   N10   1.440815 S    
C40   C62   1.397484 A    
N9    O38   1.301390 A    
N18   O56   1.301454 A    
C31   N3    1.369156 A    
C2    C119  1.489996 S    
N22   O63   1.300542 A    
N11   O41   1.301083 A    
O7    V2    1.701632 S    
N16   O51   1.301118 A    
C127  C128  1.420524 A    
C102  N19   1.437212 S    
C107  C114  1.404411 A    
C10   C11   1.394631 A    
C36   C37   1.412122 A    
C77   C99   1.399347 A    
C76   H16   1.083306 S    
C87   C101  1.400870 A    
C103  N7    1.370625 A    
N10   O39   1.301306 A    
C125  C129  1.487941 S    
C7    C8    1.411764 A    
C38   C39   1.407603 A    
C46   C50   1.425215 A    
C16   N17   1.434372 S    
C69   C70   1.400294 A    
C88   O22   1.349379 S    
C87   C88   1.408459 A    
C125  C126  1.406697 A    
V1    O10   1.703740 S    
O34   C131  1.299538 A    
C126  C127  1.410273 A    
C124  H27   1.083190 S    
N18   O55   1.301296 A    
O35   V4    1.981567 S    
C80   C82   1.416258 A    
C63   N16   1.435077 S    
C117  C122  1.416390 A    
C93   C94   1.402629 A    
C75   C76   1.399487 A    
O8    C3    1.297670 A    
C28   H7    1.083466 S    
C4    C21   1.487697 S    
C14   C15   1.409589 A    
O28   V3    1.973264 S    
