data_mof_unit_10283.cif
_audit_creation_date              2012-12-10T19:15:20-0500
_audit_creation_method            fapswitch 2.2
_symmetry_space_group_name_H-M    P1
_symmetry_Int_Tables_number       1
_space_group_crystal_system       triclinic
_cell_length_a                    10.636076
_cell_length_b                    9.723986
_cell_length_c                    23.397783
_cell_angle_alpha                 89.952378
_cell_angle_beta                  90.722785
_cell_angle_gamma                 90.091068
_cell_volume                      2419.72057304

loop_
_atom_site_label
_atom_site_type_symbol
_atom_type_description
_atom_site_fract_x
_atom_site_fract_y
_atom_site_fract_z
_atom_type_partial_charge
C1    C     C_R   0.257780 0.499660 0.500084 0.897326
C2    C     C_R   0.340809 0.636075 0.970024 -0.173250
C3    C     C_R   0.342655 0.636080 0.029265 -0.168702
C4    C     C_R   0.439873 0.569750 0.059541 -0.001990
C5    C     C_R   0.537286 0.502525 0.030100 -0.054012
C6    C     C_R   0.636927 0.436612 0.060543 -0.048541
C7    C     C_R   0.734047 0.369949 0.029024 0.156915
C8    C     C_R   0.726432 0.368376 0.969167 -0.197375
C9    C     C_R   0.440852 0.568221 0.118901 0.501535
C10   C     C_R   0.632862 0.440285 0.120994 0.494352
C11   C     C_R   0.545977 0.624887 0.239382 -0.097073
C12   C     C_R   0.501275 0.500113 0.389272 0.904254
C13   C     C_R   0.534807 0.624385 0.298374 -0.193047
C14   C     C_R   0.510264 0.500750 0.327205 -0.065195
C15   C     C_R   0.498108 0.377584 0.296411 -0.201472
C16   C     C_R   0.508295 0.378610 0.237330 -0.104936
C17   C     C_R   0.531821 0.502266 0.208834 0.315960
C18   C     C_R   0.450364 0.394172 0.762275 0.196376
C19   C     C_R   0.445224 0.395832 0.702725 -0.258778
C20   C     C_R   0.505755 0.499717 0.672382 -0.099188
C21   C     C_R   0.573957 0.601796 0.701064 -0.253790
C22   C     C_R   0.585158 0.599367 0.760406 0.192879
C23   C     C_R   0.742273 0.499831 0.500168 0.833765
C24   C     C_R   0.521631 0.495961 0.791107 0.255104
C25   C     C_3   0.072187 0.576777 0.446089 -0.352491
C26   C     C_3   0.075166 0.569868 0.555019 -0.452183
C27   C     C_3   0.926526 0.571423 0.443408 -0.056752
C28   C     C_3   0.931219 0.584043 0.551899 0.001008
C29   C     C_3   0.071391 0.349058 0.499164 -0.387286
C30   C     C_3   0.121531 0.499043 0.499959 0.070356
C31   C     C_3   0.878462 0.499236 0.499326 0.126355
C32   C     C_3   0.928920 0.348887 0.500431 -0.380375
C33   C     C_3   0.374757 0.081423 0.481091 0.324562
C34   C     C_3   0.374876 0.918150 0.480913 0.326975
C35   C     C_3   0.595587 0.081268 0.459550 -0.244602
C36   C     C_3   0.595845 0.919200 0.459677 -0.247883
C37   C     C_3   0.528923 0.081057 0.556387 -0.358662
C38   C     C_3   0.528617 0.918824 0.556417 -0.365555
C39   C     C_R   0.500462 0.499951 0.610505 0.885082
C40   C     C_R   0.621295 0.430625 0.879891 0.498180
C41   C     C_R   0.434175 0.566218 0.880396 0.486073
C42   C     C_R   0.435492 0.568638 0.939998 -0.001690
C43   C     C_R   0.533779 0.501306 0.969941 -0.022543
C44   C     C_R   0.627809 0.432586 0.939639 -0.047883
H1    H     H_    0.264531 0.688220 0.947901 0.189166
H2    H     H_    0.391412 0.317848 0.680033 0.151556
H3    H     H_    0.621238 0.681705 0.677172 0.150057
H4    H     H_    0.116854 0.534022 0.407519 0.204489
H5    H     H_    0.105497 0.508947 0.592996 0.183150
H6    H     H_    0.102240 0.686307 0.448390 0.199154
H7    H     H_    0.118067 0.673878 0.559850 0.158373
H8    H     H_    0.894393 0.680412 0.445736 0.116504
H9    H     H_    0.913456 0.694501 0.541785 0.110569
H10   H     H_    0.103365 0.294687 0.460233 0.226074
H11   H     H_    0.108045 0.290860 0.536871 0.168776
H12   H     H_    0.891204 0.289588 0.463474 0.180573
H13   H     H_    0.897530 0.291332 0.538436 0.180700
H14   H     H_    0.267456 0.688248 0.051243 0.190990
H15   H     H_    0.303642 0.115238 0.512593 0.050569
H16   H     H_    0.303402 0.883412 0.512150 0.053662
H17   H     H_    0.579130 0.119485 0.415338 0.197579
H18   H     H_    0.580020 0.880668 0.415497 0.193590
H19   H     H_    0.622116 0.119567 0.571534 0.182693
H20   H     H_    0.621517 0.880176 0.571766 0.177194
H21   H     H_    0.459064 0.118684 0.587688 0.158931
H22   H     H_    0.458323 0.881219 0.587595 0.164484
H23   H     H_    0.690541 0.119240 0.472301 0.146502
H24   H     H_    0.690795 0.881888 0.472683 0.144867
H25   H     H_    0.799703 0.317741 0.945272 0.188819
H26   H     H_    0.564326 0.720525 0.217226 0.145342
H27   H     H_    0.545966 0.720421 0.321309 0.177501
H28   H     H_    0.479946 0.280938 0.317808 0.203931
H29   H     H_    0.496654 0.283855 0.213543 0.149851
N1    N     N_R   0.525853 0.497350 0.851953 -0.354928
N2    N     N_R   0.535865 0.504266 0.147990 -0.353734
N3    N     N_3   0.499750 0.138610 0.498760 -0.075619
N4    N     N_3   0.499750 0.861390 0.498760 -0.074856
O1    O     O_R   0.314910 0.616040 0.499990 -0.600838
O2    O     O_R   0.314910 0.383960 0.499990 -0.602439
O3    O     O_R   0.500080 0.616070 0.416130 -0.579966
O4    O     O_R   0.500080 0.383930 0.416130 -0.583321
O5    O     O_R   0.685320 0.616040 0.499970 -0.654139
O6    O     O_R   0.685320 0.383960 0.499970 -0.637099
O7    O     O_R   0.500150 0.616010 0.583820 -0.634812
O8    O     O_R   0.500150 0.383990 0.583820 -0.631771
O9    O     O_2   0.709654 0.363772 0.849761 -0.580110
O10   O     O_2   0.341827 0.630994 0.850869 -0.576951
O11   O     O_2   0.346619 0.628778 0.147696 -0.553513
O12   O     O_2   0.723606 0.381304 0.153236 -0.578679
Zn1   Zn    Zn3+2 0.500150 0.654960 0.499970 0.943444
Zn2   Zn    Zn3+2 0.500150 0.345040 0.499970 0.945518
C45   C     C_3   0.666237 0.707000 0.789609 -0.395156
C46   C     C_3   0.601978 0.846867 0.788937 -0.858528
H30   H     H_    0.585195 0.882214 0.744342 0.254199
H31   H     H_    0.510908 0.840732 0.811493 0.291068
H32   H     H_    0.662987 0.923260 0.811110 0.258229
H33   H     H_    0.688272 0.679497 0.834626 0.217246
H34   H     H_    0.757753 0.714674 0.767375 0.205696
C47   C     C_3   0.867921 0.518554 0.385513 -0.386041
C48   C     C_3   0.941380 0.410841 0.351694 -0.776840
H35   H     H_    0.020143 0.459731 0.328499 0.263123
H36   H     H_    0.978285 0.327319 0.379082 0.257867
H37   H     H_    0.878036 0.364062 0.318962 0.254165
H38   H     H_    0.772277 0.476998 0.392468 0.188688
H39   H     H_    0.854399 0.608440 0.356647 0.209668
C49   C     C_3   0.867656 0.566620 0.611044 -0.409830
C50   C     C_3   0.860804 0.420761 0.635102 -0.839879
H40   H     H_    0.785752 0.361237 0.612915 0.252389
H41   H     H_    0.952457 0.367236 0.632056 0.252071
H42   H     H_    0.835181 0.425878 0.680924 0.259876
H43   H     H_    0.919131 0.631883 0.642603 0.208052
H44   H     H_    0.770765 0.608376 0.608499 0.200761
Cl1   Cl    Cl    0.321193 0.155208 0.414561 -0.598123
Cl2   Cl    Cl    0.322465 0.845094 0.414057 -0.578949
C51   C     C_3   0.848570 0.300549 0.055671 -0.356197
C52   C     C_3   0.948059 0.406098 0.073747 -0.740152
H45   H     H_    0.984011 0.460565 0.035506 0.235798
H46   H     H_    0.909359 0.483457 0.103524 0.285913
H47   H     H_    0.027930 0.352876 0.095253 0.249705
H48   H     H_    0.822547 0.231516 0.091305 0.249561
H49   H     H_    0.893417 0.230437 0.024430 0.177808
C53   C     C_3   0.377782 0.284384 0.793768 -0.390525
C54   C     C_3   0.441834 0.145016 0.788734 -0.862229
H50   H     H_    0.446485 0.112573 0.743306 0.252748
H51   H     H_    0.538500 0.150388 0.807108 0.290736
H52   H     H_    0.387440 0.066883 0.812705 0.260002
H53   H     H_    0.368150 0.308770 0.839794 0.215242
H54   H     H_    0.280803 0.277613 0.775701 0.208202

loop_
_geom_bond_atom_site_label_1
_geom_bond_atom_site_label_2
_ccdc_geom_bond_type
C46   H30   S    
C51   H49   S    
C23   O5    A    
C41   C42   A    
C19   C20   A    
O8    Zn2   S    
C19   H2    S    
C45   H34   S    
C7    C8    A    
C49   H44   S    
O1    Zn1   S    
C15   H28   S    
C27   C47   S    
C8    H25   S    
C37   C38   S    
C23   O6    A    
C18   C24   A    
C1    C30   S    
C39   O7    A    
C29   C32   S    
C36   N4    S    
C9    O11   S    
C5    C6    A    
C54   H51   S    
C29   H10   S    
C40   O9    S    
C15   C16   A    
C52   H45   S    
C18   C19   A    
C7    C51   S    
C53   H53   S    
C25   H6    S    
C48   H35   S    
C41   N1    A    
C38   H22   S    
C10   O12   S    
C28   C49   S    
C16   C17   A    
C37   H21   S    
C50   H40   S    
O2    Zn2   S    
C47   H38   S    
C5    C43   A    
C33   H15   S    
C21   C22   A    
C34   H16   S    
C1    O1    A    
C50   H41   S    
O7    Zn1   S    
C32   H13   S    
C36   H18   S    
C37   H19   S    
C45   H33   S    
C38   H20   S    
C49   H43   S    
C28   C31   S    
C2    H1    S    
C41   O10   S    
C35   N3    S    
C11   H26   S    
C27   C31   S    
C16   H29   S    
C54   H50   S    
C52   H46   S    
C26   H5    S    
C20   C39   S    
C54   H52   S    
C29   H11   S    
C48   H37   S    
C35   C36   S    
C23   C31   S    
C43   C44   A    
C29   C30   S    
C10   N2    A    
C33   N3    S    
C47   C48   S    
C35   H23   S    
C48   H36   S    
C33   C34   S    
C35   H17   S    
C25   H4    S    
C18   C53   S    
C37   N3    S    
C12   C14   S    
C26   C30   S    
C46   H32   S    
C1    O2    A    
C50   H42   S    
C22   C24   A    
C34   Cl2   S    
C42   C43   A    
C39   O8    A    
C3    C4    A    
O6    Zn2   S    
C27   H8    S    
C25   C30   S    
C11   C17   A    
C26   C28   S    
C31   C32   S    
C8    C44   A    
C4    C5    A    
C6    C10   A    
C28   H9    S    
C36   H24   S    
C53   H54   S    
C6    C7    A    
C38   N4    S    
C25   C27   S    
C13   H27   S    
C33   Cl1   S    
O5    Zn1   S    
C52   H47   S    
C2    C3    A    
C53   C54   S    
C34   N4    S    
C26   H7    S    
C11   C13   A    
C24   N1    S    
C2    C42   A    
C12   O3    A    
C45   C46   S    
C40   N1    A    
C12   O4    A    
O3    Zn1   S    
C47   H39   S    
N3    Zn2   S    
O4    Zn2   S    
C3    H14   S    
C40   C44   A    
C20   C21   A    
C46   H31   S    
C51   H48   S    
C49   C50   S    
C17   N2    S    
N4    Zn1   S    
C22   C45   S    
C14   C15   A    
C9    N2    A    
C4    C9    A    
C13   C14   A    
C32   H12   S    
C51   C52   S    
C21   H3    S    
