data_mof_unit_37346.cif
_audit_creation_date              2012-12-10T18:07:37-0500
_audit_creation_method            fapswitch 2.2
_symmetry_space_group_name_H-M    P1
_symmetry_Int_Tables_number       1
_space_group_crystal_system       triclinic
_cell_length_a                    11.553523
_cell_length_b                    12.619392
_cell_length_c                    12.973297
_cell_angle_alpha                 82.646036
_cell_angle_beta                  90.009774
_cell_angle_gamma                 102.170776
_cell_volume                      1833.06190734

loop_
_atom_site_label
_atom_site_type_symbol
_atom_type_description
_atom_site_fract_x
_atom_site_fract_y
_atom_site_fract_z
_atom_type_partial_charge
C1    C     C_R   0.492440 0.438995 0.691851 0.856373
C2    C     C_R   0.694941 0.636620 0.898626 -0.203982
C3    C     C_R   0.652943 0.558220 0.833893 -0.223691
C4    C     C_R   0.717745 0.500554 0.500211 0.885476
C5    C     C_R   0.508533 0.518315 0.131391 -0.242624
C6    C     C_R   0.622655 0.693847 0.162840 -0.332232
C7    C     C_R   0.499347 0.398725 0.802187 -0.127635
C8    C     C_R   0.323869 0.086927 0.354483 0.013876
C9    C     C_R   0.636060 0.797548 0.631839 -0.040510
C10   C     C_R   0.654316 0.896388 0.670989 -0.350311
C11   C     C_R   0.598823 0.979616 0.626402 0.479105
C12   C     C_R   0.543448 0.595683 0.197975 -0.118140
C13   C     C_R   0.525737 0.960716 0.538466 -0.077725
C14   C     C_R   0.504310 0.854639 0.507115 0.172202
C15   C     C_R   0.470498 0.040462 0.481707 -0.020497
C16   C     C_R   0.514075 0.560752 0.307897 0.882870
C17   C     C_R   0.384596 0.009427 0.405670 0.147355
C18   C     C_R   0.363632 0.902819 0.380829 -0.298989
C19   C     C_R   0.424856 0.828444 0.428580 -0.173177
C20   C     C_R   0.500567 0.151397 0.493976 -0.030351
C21   C     C_R   0.353387 0.193540 0.377848 -0.050424
C22   C     C_R   0.282230 0.499382 0.499928 0.895175
C23   C     C_R   0.433897 0.294784 0.841684 -0.212196
C24   C     C_1   0.838577 0.501329 0.500649 -0.196788
C25   C     C_1   0.940663 0.500527 0.500580 -0.006192
C26   C     C_1   0.059178 0.499030 0.500168 -0.005979
C27   C     C_1   0.161315 0.498395 0.499875 -0.193666
C28   C     C_R   0.673578 0.711357 0.060968 0.518316
C29   C     C_3   0.225941 0.059536 0.278430 -0.453405
C30   C     C_3   0.110496 0.998978 0.336415 -0.293410
C31   C     C_3   0.011262 0.970582 0.260925 -0.931824
C32   C     C_3   0.714411 0.124538 0.696813 0.066144
C33   C     C_3   0.710433 0.234114 0.732387 -0.817315
C34   C     C_R   0.436022 0.256733 0.946898 -0.191459
C35   C     C_3   0.799768 0.880702 0.084073 0.093220
C36   C     C_3   0.729358 0.966706 0.102417 -0.854511
C37   C     C_3   0.517418 0.271610 0.124190 -0.433408
C38   C     C_3   0.650725 0.280763 0.139217 -0.316210
C39   C     C_3   0.675267 0.224560 0.245843 -0.871775
C40   C     C_R   0.492892 0.325736 0.016683 0.093484
C41   C     C_R   0.542970 0.437514 0.977514 0.083352
C42   C     C_R   0.565491 0.464985 0.869999 0.074552
C43   C     C_R   0.569562 0.524221 0.038555 0.004247
C44   C     C_R   0.647408 0.624513 0.999719 0.068052
H1    H     H_    0.643499 0.754300 0.215659 0.168470
H2    H     H_    0.393962 0.172517 0.973556 0.146236
H3    H     H_    0.689707 0.570317 0.755669 0.155498
H4    H     H_    0.307882 0.255103 0.342434 0.135195
H5    H     H_    0.995057 0.046024 0.214388 0.262626
H6    H     H_    0.035000 0.915590 0.207841 0.256413
H7    H     H_    0.928613 0.928191 0.305137 0.252851
H8    H     H_    0.123174 0.922284 0.383019 0.227399
H9    H     H_    0.083539 0.051622 0.390477 0.221129
H10   H     H_    0.209692 0.135791 0.233063 0.194214
H11   H     H_    0.252717 0.011569 0.220030 0.198404
H12   H     H_    0.301629 0.875492 0.322510 0.161332
H13   H     H_    0.755818 0.078160 0.759708 0.157791
H14   H     H_    0.770825 0.140182 0.624448 0.130689
H15   H     H_    0.656580 0.221081 0.805586 0.267925
H16   H     H_    0.801572 0.278289 0.746719 0.203763
H17   H     H_    0.671343 0.285252 0.671954 0.260003
H18   H     H_    0.885996 0.924729 0.046798 0.168952
H19   H     H_    0.822928 0.836003 0.158039 0.126273
H20   H     H_    0.639458 0.927950 0.134988 0.253061
H21   H     H_    0.776253 0.020241 0.157614 0.216202
H22   H     H_    0.720402 0.017966 0.027810 0.261570
H23   H     H_    0.573624 0.185476 0.538712 0.191864
H24   H     H_    0.645541 0.266386 0.308011 0.282492
H25   H     H_    0.628583 0.137234 0.256428 0.260412
H26   H     H_    0.771861 0.228740 0.252793 0.242942
H27   H     H_    0.687513 0.241945 0.078088 0.220759
H28   H     H_    0.696941 0.368104 0.132227 0.228577
H29   H     H_    0.478766 0.303470 0.188176 0.211707
H30   H     H_    0.474720 0.183104 0.133720 0.196791
H31   H     H_    0.679006 0.734463 0.666655 0.153221
H32   H     H_    0.706951 0.904887 0.739491 0.166459
H33   H     H_    0.406893 0.749726 0.403013 0.210832
H34   H     H_    0.759432 0.708990 0.867235 0.180381
H35   H     H_    0.432254 0.453434 0.153211 0.151165
H36   H     H_    0.384315 0.241335 0.790608 0.183995
N1    N     N_R   0.440320 0.222190 0.444690 -0.126189
N2    N     N_R   0.559060 0.776980 0.554780 -0.123128
O1    O     O_R   0.471500 0.366730 0.627160 -0.605326
O2    O     O_3   0.741015 0.811421 0.014243 -0.638860
O3    O     O_R   0.509620 0.544830 0.662520 -0.602008
O4    O     O_R   0.646490 0.410960 0.482310 -0.623598
O5    O     O_R   0.684610 0.589050 0.517670 -0.618418
O6    O     O_R   0.490380 0.455170 0.337480 -0.615308
O7    O     O_R   0.528500 0.633270 0.372840 -0.636875
O8    O     O_R   0.315390 0.410950 0.482330 -0.609564
O9    O     O_R   0.353510 0.589040 0.517690 -0.617491
O10   O     O_3   0.597691 0.068367 0.679557 -0.614780
Zn1   Zn    Zn3+2 0.474550 0.381080 0.476390 0.927736
Zn2   Zn    Zn3+2 0.525450 0.618920 0.523610 0.930842

loop_
_geom_bond_atom_site_label_1
_geom_bond_atom_site_label_2
_ccdc_geom_bond_type
C37   H30   S    
C3    C42   A    
N2    Zn2   S    
C6    H1    S    
C28   O2    S    
C41   C42   A    
C20   H23   S    
C35   C36   S    
C32   H14   S    
C4    O5    A    
C26   C27   T    
C29   C30   S    
C34   C40   A    
C8    C29   S    
C37   C40   S    
C6    C12   A    
C30   C31   S    
C4    C24   S    
C36   H22   S    
C4    O4    A    
C29   H10   S    
O1    Zn1   S    
O5    Zn2   S    
C18   C19   A    
C39   H24   S    
C7    C42   A    
O7    Zn2   S    
C19   H33   S    
C30   H8    S    
O6    Zn1   S    
C10   H32   S    
C11   O10   S    
C6    C28   A    
C12   C16   S    
C2    C44   A    
C22   O9    A    
C34   H2    S    
C23   H36   S    
C5    H35   S    
C9    C10   A    
C18   H12   S    
C9    N2    A    
C21   H4    S    
C5    C43   A    
C16   O7    A    
C33   H15   S    
C20   N1    A    
C41   C43   A    
C32   H13   S    
C31   H5    S    
C8    C21   A    
C1    O3    A    
C15   C20   A    
C30   H9    S    
C38   H28   S    
C38   C39   S    
C24   C25   T    
C5    C12   A    
C36   H21   S    
C29   H11   S    
C25   C26   S    
C28   C44   A    
C43   C44   A    
C37   C38   S    
C2    H34   S    
O4    Zn1   S    
N1    Zn1   S    
O3    Zn2   S    
C23   C34   A    
C17   C18   A    
C22   O8    A    
C40   C41   A    
C21   N1    A    
C33   H16   S    
C22   C27   S    
C13   C15   A    
C14   N2    A    
C31   H6    S    
O8    Zn1   S    
C15   C17   A    
C37   H29   S    
C38   H27   S    
C1    C7    S    
C14   C19   A    
C31   H7    S    
C35   O2    S    
C1    O1    A    
C8    C17   A    
C32   C33   S    
C2    C3    A    
C36   H20   S    
O9    Zn2   S    
C11   C13   A    
C32   O10   S    
C7    C23   A    
C3    H3    S    
C39   H25   S    
C39   H26   S    
C35   H18   S    
C10   C11   A    
C33   H17   S    
C16   O6    A    
C35   H19   S    
C9    H31   S    
C13   C14   A    
