data_mof_unit_51256.cif
_audit_creation_date              2012-12-11T15:41:13-0500
_audit_creation_method            fapswitch 2.2
_symmetry_space_group_name_H-M    P1
_symmetry_Int_Tables_number       1
_space_group_crystal_system       triclinic
_cell_length_a                    18.866701
_cell_length_b                    11.033718
_cell_length_c                    18.756602
_cell_angle_alpha                 89.983567
_cell_angle_beta                  90.232872
_cell_angle_gamma                 90.136726
_cell_volume                      3904.51566568

loop_
_atom_site_label
_atom_site_type_symbol
_atom_type_description
_atom_site_fract_x
_atom_site_fract_y
_atom_site_fract_z
_atom_type_partial_charge
C1    C     C_R   0.727568 0.952224 0.852825 0.554082
C2    C     C_R   0.272438 0.952360 0.147115 0.555817
C3    C     C_R   0.227567 0.452226 0.852826 0.554089
C4    C     C_R   0.772438 0.452361 0.147115 0.555846
C5    C     C_R   0.682658 0.391885 0.051850 -0.037726
C6    C     C_R   0.317229 0.391342 0.947949 -0.037615
C7    C     C_R   0.182660 0.891877 0.051851 -0.037725
C8    C     C_R   0.817230 0.891326 0.947946 -0.037610
C9    C     C_R   0.671315 0.362132 0.980707 -0.019514
C10   C     C_R   0.328548 0.361747 0.019099 -0.019915
C11   C     C_R   0.171319 0.862129 0.980707 -0.019508
C12   C     C_R   0.828547 0.861736 0.019097 -0.019910
C13   C     C_R   0.791851 0.298733 0.971194 -0.118522
C14   C     C_R   0.207520 0.300219 0.029062 -0.119215
C15   C     C_R   0.291860 0.798765 0.971190 -0.118535
C16   C     C_R   0.707515 0.800238 0.029065 -0.119227
C17   C     C_R   0.802798 0.320705 0.042914 0.205052
C18   C     C_R   0.196650 0.321553 0.957299 0.204266
C19   C     C_R   0.302804 0.820721 0.042911 0.205046
C20   C     C_R   0.696646 0.821562 0.957300 0.204256
C21   C     C_3   0.626287 0.485737 0.050867 -0.248175
C22   C     C_3   0.374423 0.484209 0.948497 -0.248533
C23   C     C_3   0.126277 0.985709 0.050876 -0.248187
C24   C     C_3   0.874435 0.984173 0.948488 -0.248539
C25   C     C_3   0.614672 0.454761 0.972424 -0.224503
C26   C     C_3   0.385989 0.453502 0.026993 -0.225152
C27   C     C_3   0.114664 0.954741 0.972431 -0.224516
C28   C     C_3   0.886000 0.953474 0.026984 -0.225157
C29   C     C_R   0.728066 0.328873 0.937144 -0.023962
C30   C     C_R   0.271655 0.329537 0.062874 -0.024796
C31   C     C_R   0.228071 0.828890 0.937142 -0.023956
C32   C     C_R   0.771653 0.829544 0.062875 -0.024792
C33   C     C_R   0.505294 0.160191 0.422033 0.018934
C34   C     C_R   0.513838 0.171172 0.569688 0.022832
C35   C     C_R   0.005297 0.660194 0.422032 0.018919
C36   C     C_R   0.013849 0.671175 0.569685 0.022832
C37   C     C_R   0.540442 0.256674 0.454351 0.013847
C38   C     C_R   0.542527 0.262397 0.526937 0.043250
C39   C     C_R   0.040453 0.756672 0.454348 0.013776
C40   C     C_R   0.042551 0.762390 0.526935 0.043184
C41   C     C_R   0.490718 0.063843 0.537616 -0.180667
C42   C     C_R   0.487109 0.057622 0.463564 -0.166446
C43   C     C_R   0.990717 0.563853 0.537615 -0.180657
C44   C     C_R   0.987110 0.557628 0.463563 -0.166449
C45   C     C_R   0.529873 0.177671 0.850737 0.542853
C46   C     C_R   0.470132 0.177818 0.149268 0.543786
C47   C     C_R   0.029872 0.677670 0.850736 0.542856
C48   C     C_R   0.970132 0.677818 0.149267 0.543774
C49   C     C_3   0.533658 0.391767 0.447842 -0.275549
C50   C     C_3   0.531728 0.396136 0.528421 -0.264547
C51   C     C_3   0.033675 0.891766 0.447842 -0.275538
C52   C     C_3   0.031771 0.896137 0.528422 -0.264509
C53   C     C_R   0.759920 0.432985 0.428248 0.015384
C54   C     C_R   0.251004 0.393952 0.582353 0.014897
C55   C     C_R   0.259782 0.932730 0.428166 0.015341
C56   C     C_R   0.751007 0.893989 0.582344 0.014985
C57   C     C_R   0.810580 0.365147 0.464301 0.026123
C58   C     C_R   0.201110 0.323629 0.545171 0.028161
C59   C     C_R   0.310281 0.864470 0.464157 0.026075
C60   C     C_R   0.701132 0.823601 0.545178 0.028189
C61   C     C_R   0.808862 0.353924 0.536809 0.021512
C62   C     C_R   0.209723 0.297405 0.474220 0.012408
C63   C     C_R   0.308580 0.853235 0.536667 0.021518
C64   C     C_R   0.709742 0.797372 0.474227 0.012494
C65   C     C_R   0.712733 0.496454 0.543174 -0.161389
C66   C     C_R   0.325233 0.389287 0.476856 -0.158061
C67   C     C_R   0.212768 0.996388 0.543131 -0.161496
C68   C     C_R   0.825214 0.889411 0.476832 -0.158110
C69   C     C_R   0.713745 0.505519 0.468601 -0.165003
C70   C     C_R   0.316107 0.418406 0.549297 -0.171603
C71   C     C_R   0.213753 0.005474 0.468563 -0.165022
C72   C     C_R   0.816088 0.918543 0.549269 -0.171673
C73   C     C_3   0.832115 0.236917 0.452612 -0.276205
C74   C     C_3   0.123181 0.343559 0.535530 -0.265246
C75   C     C_3   0.331337 0.736008 0.452440 -0.276150
C76   C     C_3   0.623195 0.843461 0.535549 -0.265228
C77   C     C_3   0.829584 0.223046 0.532739 -0.259725
C78   C     C_3   0.133011 0.316680 0.457354 -0.269455
C79   C     C_3   0.328828 0.722146 0.532564 -0.259341
C80   C     C_3   0.633022 0.816595 0.457372 -0.269406
C81   C     C_R   0.756310 0.411356 0.576996 0.019383
C82   C     C_R   0.269523 0.335893 0.437469 0.013296
C83   C     C_R   0.256232 0.911083 0.576914 0.019375
C84   C     C_R   0.769523 0.835920 0.437464 0.013342
C85   C     C_R   0.723555 0.311108 0.859816 0.567857
C86   C     C_R   0.276372 0.311207 0.140118 0.570963
C87   C     C_R   0.223557 0.811113 0.859816 0.567861
C88   C     C_R   0.776372 0.811209 0.140117 0.570957
C89   C     C_R   0.728493 0.953043 0.648148 0.537851
C90   C     C_R   0.272832 0.958029 0.353689 0.539750
C91   C     C_R   0.228496 0.453031 0.648152 0.537731
C92   C     C_R   0.772864 0.458095 0.353723 0.539752
C93   C     C_R   0.530881 0.176724 0.643998 0.543135
C94   C     C_R   0.471028 0.175476 0.354373 0.544768
C95   C     C_R   0.030884 0.676725 0.643997 0.543115
C96   C     C_R   0.971029 0.675477 0.354372 0.544757
C97   C     C_R   0.740415 0.362873 0.646877 0.555997
C98   C     C_R   0.274438 0.311980 0.361090 0.565031
C99   C     C_R   0.240402 0.862835 0.646860 0.555940
C100  C     C_R   0.774437 0.811986 0.361089 0.565033
C101  C     C_2   0.497065 0.168566 0.920910 -0.119414
C102  C     C_2   0.503015 0.168874 0.079132 -0.118992
C103  C     C_2   0.997061 0.668565 0.920907 -0.119418
C104  C     C_2   0.003012 0.668870 0.079130 -0.118999
C105  C     C_2   0.492090 0.070684 0.038271 -0.135768
C106  C     C_2   0.508092 0.070642 0.961899 -0.135950
C107  C     C_2   0.992078 0.570684 0.038268 -0.135767
C108  C     C_2   0.008081 0.570639 0.961896 -0.135949
C109  C     C_R   0.750761 0.386252 0.082241 0.029222
C110  C     C_R   0.249024 0.386298 0.917735 0.029487
C111  C     C_R   0.250763 0.886253 0.082242 0.029227
C112  C     C_R   0.749024 0.886296 0.917734 0.029491
Cr1   Cr    Cr6+3 0.769260 0.163750 0.750730 1.013487
Cr2   Cr    Cr6+3 0.230740 0.163750 0.249270 1.011221
Cr3   Cr    Cr6+3 0.269260 0.663750 0.750730 1.013501
Cr4   Cr    Cr6+3 0.730740 0.663750 0.249270 1.011254
Cr5   Cr    Cr6+3 0.612640 0.009910 0.748780 1.059052
Cr6   Cr    Cr6+3 0.387360 0.009910 0.251220 1.056946
Cr7   Cr    Cr6+3 0.112640 0.509910 0.748780 1.059016
Cr8   Cr    Cr6+3 0.887360 0.509910 0.251220 1.056909
Cr9   Cr    Cr6+3 0.614190 0.322400 0.747710 1.028977
Cr10  Cr    Cr6+3 0.385810 0.322400 0.252290 1.025818
Cr11  Cr    Cr6+3 0.114190 0.822400 0.747710 1.028968
Cr12  Cr    Cr6+3 0.885810 0.822400 0.252290 1.025836
H1    H     H_    0.469983 0.988434 0.060687 0.223970
H2    H     H_    0.530215 0.988556 0.939571 0.224325
H3    H     H_    0.969964 0.488439 0.060683 0.223966
H4    H     H_    0.030201 0.488548 0.939568 0.224319
H5    H     H_    0.984381 0.925658 0.423263 0.156673
H6    H     H_    0.076651 0.944925 0.552818 0.151728
H7    H     H_    0.484375 0.425666 0.423245 0.156650
H8    H     H_    0.576589 0.444939 0.552833 0.151686
H9    H     H_    0.582075 0.432652 0.424773 0.135921
H10   H     H_    0.479035 0.421404 0.549901 0.129950
H11   H     H_    0.082087 0.932654 0.424760 0.135956
H12   H     H_    0.979087 0.921429 0.549918 0.130018
H13   H     H_    0.675408 0.549643 0.573560 0.122420
H14   H     H_    0.373197 0.416490 0.450600 0.130267
H15   H     H_    0.175548 0.049753 0.573548 0.122460
H16   H     H_    0.873162 0.916676 0.450564 0.130285
H17   H     H_    0.677971 0.567134 0.442356 0.130499
H18   H     H_    0.356906 0.468845 0.577169 0.118612
H19   H     H_    0.178074 0.067291 0.442350 0.130613
H20   H     H_    0.856873 0.969048 0.577124 0.118634
H21   H     H_    0.886608 0.229770 0.430702 0.141261
H22   H     H_    0.108252 0.438998 0.545734 0.166525
H23   H     H_    0.385781 0.728266 0.430476 0.141372
H24   H     H_    0.608231 0.938882 0.545755 0.166559
H25   H     H_    0.791012 0.182755 0.424171 0.150224
H26   H     H_    0.090871 0.274232 0.563712 0.134888
H27   H     H_    0.290008 0.682291 0.424029 0.150127
H28   H     H_    0.590912 0.774100 0.563734 0.134901
H29   H     H_    0.786204 0.162004 0.550420 0.163743
H30   H     H_    0.105180 0.232902 0.440012 0.127693
H31   H     H_    0.285240 0.661563 0.550284 0.163539
H32   H     H_    0.605203 0.732807 0.440030 0.127696
H33   H     H_    0.882393 0.205679 0.557145 0.132910
H34   H     H_    0.123715 0.397127 0.422813 0.162871
H35   H     H_    0.381596 0.704219 0.556927 0.132977
H36   H     H_    0.623703 0.897039 0.422835 0.162898
H37   H     H_    0.527515 0.249482 0.056871 0.101234
H38   H     H_    0.472576 0.249013 0.943097 0.101057
H39   H     H_    0.027519 0.749472 0.056870 0.101226
H40   H     H_    0.972574 0.749014 0.943095 0.101048
H41   H     H_    0.147927 0.076960 0.059943 0.166267
H42   H     H_    0.853668 0.075800 0.939230 0.166646
H43   H     H_    0.647952 0.576980 0.059930 0.166263
H44   H     H_    0.353644 0.575829 0.939245 0.166647
H45   H     H_    0.580635 0.460742 0.085181 0.148761
H46   H     H_    0.419742 0.458139 0.914119 0.148005
H47   H     H_    0.080628 0.960691 0.085189 0.148753
H48   H     H_    0.919749 0.958076 0.914108 0.147996
H49   H     H_    0.561971 0.413613 0.961622 0.136433
H50   H     H_    0.438372 0.411599 0.037748 0.135375
H51   H     H_    0.061968 0.913576 0.961628 0.136422
H52   H     H_    0.938379 0.911554 0.037741 0.135363
H53   H     H_    0.630509 0.527902 0.935194 0.217135
H54   H     H_    0.370883 0.527080 0.064107 0.218287
H55   H     H_    0.130491 0.027892 0.935205 0.217140
H56   H     H_    0.870902 0.027062 0.064096 0.218293
H57   H     H_    0.474138 0.986901 0.569414 0.130920
H58   H     H_    0.462940 0.977948 0.439946 0.150063
H59   H     H_    0.974129 0.486916 0.569413 0.130901
H60   H     H_    0.962940 0.477956 0.439946 0.149999
O1    O     O_R   0.784290 0.290360 0.830540 -0.518738
O2    O     O_R   0.215710 0.290360 0.169460 -0.513159
O3    O     O_R   0.284290 0.790360 0.830540 -0.518734
O4    O     O_R   0.715710 0.790360 0.169460 -0.513159
O5    O     O_R   0.554690 0.080440 0.673480 -0.507398
O6    O     O_R   0.445310 0.080440 0.326520 -0.510080
O7    O     O_R   0.054690 0.580440 0.673480 -0.507417
O8    O     O_R   0.945310 0.580440 0.326520 -0.510113
O9    O     O_R   0.543980 0.282110 0.666770 -0.517825
O10   O     O_R   0.456020 0.282110 0.333230 -0.534196
O11   O     O_R   0.043980 0.782110 0.666770 -0.517826
O12   O     O_R   0.956020 0.782110 0.333230 -0.534182
O13   O     O_R   0.679070 0.374030 0.674430 -0.498772
O14   O     O_R   0.320930 0.374030 0.325570 -0.495272
O15   O     O_R   0.179070 0.874030 0.674430 -0.498784
O16   O     O_R   0.820930 0.874030 0.325570 -0.495262
O17   O     O_3   0.665360 0.165350 0.749070 -0.278350
O18   O     O_3   0.334640 0.165350 0.250930 -0.298558
O19   O     O_3   0.165360 0.665350 0.749070 -0.278368
O20   O     O_3   0.834640 0.665350 0.250930 -0.298576
O21   O     O_R   0.762610 0.041070 0.825230 -0.531493
O22   O     O_R   0.237390 0.041070 0.174770 -0.531177
O23   O     O_R   0.262610 0.541070 0.825230 -0.531483
O24   O     O_R   0.737390 0.541070 0.174770 -0.531162
O25   O     O_R   0.667390 0.924160 0.829970 -0.440533
O26   O     O_R   0.332610 0.924160 0.170030 -0.438332
O27   O     O_R   0.167390 0.424160 0.829970 -0.440526
O28   O     O_R   0.832610 0.424160 0.170030 -0.438316
O29   O     O_R   0.553980 0.081420 0.821780 -0.479913
O30   O     O_R   0.446020 0.081420 0.178220 -0.478700
O31   O     O_R   0.053980 0.581420 0.821780 -0.479910
O32   O     O_R   0.946020 0.581420 0.178220 -0.478705
O33   O     O_R   0.543210 0.283170 0.826740 -0.525815
O34   O     O_R   0.456790 0.283170 0.173260 -0.525408
O35   O     O_R   0.043210 0.783170 0.826740 -0.525813
O36   O     O_R   0.956790 0.783170 0.173260 -0.525411
O37   O     O_R   0.678350 0.375000 0.822720 -0.482372
O38   O     O_R   0.321650 0.375000 0.177280 -0.474242
O39   O     O_R   0.178350 0.875000 0.822720 -0.482352
O40   O     O_R   0.821650 0.875000 0.177280 -0.474226
O41   O     O_R   0.785060 0.289300 0.670580 -0.514844
O42   O     O_R   0.214940 0.289300 0.329420 -0.509807
O43   O     O_R   0.285060 0.789300 0.670580 -0.514768
O44   O     O_R   0.714940 0.789300 0.329420 -0.509791
O45   O     O_R   0.763330 0.040090 0.676940 -0.512192
O46   O     O_R   0.236670 0.040090 0.323060 -0.525027
O47   O     O_R   0.263330 0.540090 0.676940 -0.512202
O48   O     O_R   0.736670 0.540090 0.323060 -0.524984
O49   O     O_R   0.668160 0.923110 0.670000 -0.513857
O50   O     O_R   0.331840 0.923110 0.330000 -0.509284
O51   O     O_R   0.168160 0.423110 0.670000 -0.513841
O52   O     O_R   0.831840 0.423110 0.330000 -0.509326
H61   H     H_    0.836766 0.267114 0.941129 0.177370
H62   H     H_    0.162395 0.269350 0.059265 0.178074
H63   H     H_    0.336778 0.767159 0.941123 0.177383
H64   H     H_    0.662387 0.769380 0.059270 0.178082
Cl1   Cl    Cl    0.887262 0.274637 0.074472 -0.638457
Cl2   Cl    Cl    0.111993 0.275524 0.925890 -0.640222
Cl3   Cl    Cl    0.387268 0.774650 0.074470 -0.638464
Cl4   Cl    Cl    0.611989 0.775533 0.925892 -0.640228

loop_
_geom_bond_atom_site_label_1
_geom_bond_atom_site_label_2
_ccdc_geom_bond_type
Cr8   O28   S    
C97   O41   A    
C4    C109  S    
Cr12  O36   S    
C58   C62   A    
C46   O34   A    
Cr3   O23   S    
C22   H46   S    
Cr9   O37   S    
C45   O33   A    
C41   C42   A    
C14   C18   A    
C35   C39   A    
C34   C93   S    
Cr5   O5    S    
C53   C69   A    
C33   C94   S    
C104  H39   S    
C48   O32   A    
C51   H5    S    
C9    C25   S    
C63   C79   S    
C35   C96   S    
C42   H58   S    
Cr7   O31   S    
C49   H7    S    
C103  H40   S    
C81   C97   S    
Cr1   O45   S    
Cr4   O44   S    
C33   C42   A    
C13   C29   A    
C101  H38   S    
C56   C60   A    
C27   H55   S    
C55   C90   S    
C55   C59   A    
Cr8   O8    S    
C1    C112  S    
C48   O36   A    
C25   H53   S    
C80   H36   S    
C66   C82   A    
Cr5   O49   S    
C92   O48   A    
C3    C110  S    
C89   O49   A    
C66   H14   S    
C48   C104  S    
C15   H63   S    
C65   C69   A    
C37   C49   S    
Cr7   O27   S    
C90   O50   A    
C102  C105  D    
C72   H20   S    
C21   H45   S    
C57   C73   S    
C57   C61   A    
C100  O44   A    
C10   C30   A    
Cr10  O14   S    
C64   C84   A    
Cr11  O35   S    
C77   H29   S    
C39   C51   S    
C15   C19   A    
C51   H11   S    
C78   H34   S    
Cr12  O40   S    
C61   C77   S    
C56   C72   A    
Cr3   O19   S    
C73   H21   S    
C45   O29   A    
C107  C108  S    
Cr2   O18   S    
C4    O24   A    
C103  C108  D    
C2    O22   A    
C91   O51   A    
Cr1   O17   S    
C30   C86   S    
C67   H15   S    
C44   H60   S    
Cr3   O47   S    
C95   O7    A    
C65   H13   S    
C19   C111  A    
C18   Cl2   S    
C85   O37   A    
C62   C82   A    
C11   C31   A    
C20   C112  A    
C12   C32   A    
C85   O1    A    
C64   C80   S    
C41   H57   S    
Cr6   O18   S    
C34   C41   A    
Cr9   O33   S    
Cr10  O10   S    
Cr5   O17   S    
C46   C102  S    
Cr11  O11   S    
Cr2   O2    S    
Cr4   O20   S    
C62   C78   S    
C80   H32   S    
C26   H54   S    
C3    O27   A    
C93   O9    A    
C2    C111  S    
C2    O26   A    
C47   C103  S    
C98   O14   A    
C1    O25   A    
C51   C52   S    
C68   C84   A    
C97   O13   A    
C36   C40   A    
C31   C87   S    
C21   C25   S    
C50   H10   S    
C94   O10   A    
C27   H51   S    
C39   C40   A    
C14   H62   S    
C53   C57   A    
C28   H52   S    
C13   H61   S    
C7    C111  A    
C52   H12   S    
C75   H23   S    
C14   C30   A    
C47   O35   A    
C92   O52   A    
C33   C37   A    
C99   O43   A    
Cr2   O22   S    
C76   H24   S    
C91   O47   A    
C68   C72   A    
C46   O30   A    
C87   O39   A    
Cr1   O21   S    
C6    C110  A    
C96   O12   A    
C7    C11   A    
C43   C44   A    
C94   O6    A    
Cr3   O43   S    
C37   C38   A    
Cr2   O42   S    
Cr3   O3    S    
Cr6   O50   S    
Cr6   O26   S    
Cr1   O41   S    
C54   C70   A    
C11   C27   S    
C8    C12   A    
Cr1   O1    S    
Cr12  O12   S    
C53   C92   S    
C88   O40   A    
Cr7   O19   S    
Cr6   O30   S    
C76   H28   S    
C16   C20   A    
C67   C83   A    
C108  H4    S    
Cr5   O29   S    
C35   C44   A    
C28   H56   S    
Cr9   O13   S    
C106  H2    S    
Cr4   O24   S    
C50   H8    S    
C100  O16   A    
Cr7   O51   S    
C56   C89   S    
C12   C28   S    
C86   O2    A    
C83   C99   S    
C23   C27   S    
C45   C101  S    
Cr10  O38   S    
Cr8   O20   S    
C82   C98   S    
C68   H16   S    
C32   C88   S    
Cr8   O32   S    
C99   O15   A    
Cr9   O9    S    
C59   C75   S    
C1    O21   A    
C58   C74   S    
C24   C28   S    
C71   H19   S    
C54   C58   A    
Cr11  O15   S    
C101  C106  D    
C20   Cl4   S    
C49   H9    S    
C52   H6    S    
C95   O11   A    
C93   O5    A    
Cr10  O34   S    
C73   H25   S    
C34   C38   A    
C29   C85   S    
C22   H44   S    
C74   H22   S    
C78   H30   S    
C76   C80   S    
Cr7   O7    S    
C17   C109  A    
Cr2   O46   S    
C70   H18   S    
C87   O3    A    
C47   O31   A    
C15   C31   A    
C38   C50   S    
C19   Cl3   S    
C16   C32   A    
C79   H31   S    
C86   O38   A    
C105  C106  S    
Cr12  O16   S    
C59   C63   A    
Cr11  O39   S    
C21   H43   S    
C105  H1    S    
C60   C64   A    
C3    O23   A    
C96   O8    A    
Cr5   O25   S    
C74   H26   S    
Cr9   O17   S    
C54   C91   S    
C40   C52   S    
Cr8   O52   S    
C79   H35   S    
C9    C29   A    
Cr6   O6    S    
C36   C95   S    
C10   C26   S    
C66   C70   A    
C5    C109  A    
C102  H37   S    
C7    C23   S    
C4    O28   A    
C43   H59   S    
Cr4   O4    S    
C8    C112  A    
C60   C76   S    
C67   C71   A    
C24   H42   S    
C24   H48   S    
C55   C71   A    
Cr12  O20   S    
C84   C100  S    
C6    C10   A    
C17   Cl1   S    
C13   C17   A    
C25   H49   S    
Cr10  O18   S    
C88   O4    A    
C5    C21   S    
C8    C24   S    
C16   H64   S    
C73   C77   S    
C18   C110  A    
C49   C50   S    
C22   C26   S    
C69   H17   S    
C63   C83   A    
C75   H27   S    
C23   H41   S    
C26   H50   S    
C65   C81   A    
C90   O46   A    
C36   C43   A    
C61   C81   A    
C5    C9    A    
C107  H3    S    
Cr11  O19   S    
C89   O45   A    
C75   C79   S    
C104  C107  D    
Cr4   O48   S    
C77   H33   S    
C74   C78   S    
C98   O42   A    
C23   H47   S    
C6    C22   S    
