data_mof_unit_40373.cif
_audit_creation_date              2012-12-11T17:23:13-0500
_audit_creation_method            fapswitch 2.2
_symmetry_space_group_name_H-M    P1
_symmetry_Int_Tables_number       1
_space_group_crystal_system       triclinic
_cell_length_a                    22.387666
_cell_length_b                    7.088609
_cell_length_c                    19.561017
_cell_angle_alpha                 89.854312
_cell_angle_beta                  99.113504
_cell_angle_gamma                 89.900607
_cell_volume                      3065.07875421

loop_
_atom_site_label
_atom_site_type_symbol
_atom_type_description
_atom_site_fract_x
_atom_site_fract_y
_atom_site_fract_z
_atom_type_partial_charge
O1    O     O_R   0.443980 0.494320 0.557430 -0.527171
O2    O     O_R   0.556020 0.994320 0.442570 -0.524711
O3    O     O_R   0.441210 0.822520 0.414610 -0.540985
O4    O     O_R   0.558790 0.322520 0.585390 -0.536355
C1    C     C_R   0.426986 0.655830 0.389092 0.865350
C2    C     C_R   0.573329 0.154756 0.610673 0.872367
O5    O     O_R   0.436920 0.823940 0.555180 -0.534689
O6    O     O_R   0.563080 0.323940 0.444820 -0.537564
O7    O     O_R   0.551700 0.995760 0.584140 -0.540947
O8    O     O_R   0.448300 0.495760 0.415860 -0.526104
C3    C     C_R   0.421601 0.655372 0.574867 0.726266
C4    C     C_R   0.578366 0.155421 0.425098 0.739498
O9    O     O_3   0.537660 0.661290 0.509340 -0.381417
O10   O     O_3   0.462340 0.161290 0.490660 -0.373807
V1    V     V_3+5 0.493010 0.935560 0.498270 1.611698
V2    V     V_3+5 0.506990 0.435560 0.501730 1.621521
C5    C     C_R   0.785548 0.936115 0.250179 0.358824
C6    C     C_R   0.213820 0.436565 0.749018 0.358978
C7    C     C_R   0.794655 0.088527 0.206437 -0.044039
C8    C     C_R   0.204634 0.588559 0.792680 -0.045249
C9    C     C_R   0.759874 0.252774 0.208073 -0.088645
C10   C     C_R   0.239468 0.752364 0.791133 -0.089884
H1    H     H_    0.766123 0.371004 0.174740 0.205255
H2    H     H_    0.233170 0.870242 0.824425 0.206640
C11   C     C_R   0.716757 0.266578 0.252620 -0.108579
C12   C     C_R   0.282726 0.766134 0.746757 -0.106297
H3    H     H_    0.690589 0.395233 0.252810 0.203949
H4    H     H_    0.308946 0.894422 0.746644 0.207561
C13   C     C_R   0.707311 0.116139 0.296374 -0.039062
C14   C     C_R   0.292259 0.616098 0.703091 -0.042247
C15   C     C_R   0.741831 0.949700 0.294952 0.366210
C16   C     C_R   0.257676 0.450114 0.704412 0.364828
C17   C     C_1   0.839590 0.078744 0.159985 0.154180
C18   C     C_1   0.159645 0.578688 0.839061 0.155123
C19   C     C_1   0.661924 0.133673 0.342025 0.147626
C20   C     C_1   0.337807 0.633565 0.657640 0.145103
C21   C     C_1   0.624004 0.145530 0.380029 -0.050558
C22   C     C_1   0.375852 0.645405 0.619792 -0.056929
C23   C     C_1   0.877275 0.070527 0.121595 -0.023648
C24   C     C_1   0.121994 0.570426 0.877491 -0.019049
C25   C     C_R   0.625054 0.140201 0.803714 0.454549
C26   C     C_R   0.373025 0.734555 0.199116 0.452089
C27   C     C_R   0.613220 0.144192 0.678275 -0.293165
C28   C     C_R   0.387771 0.653485 0.321024 -0.283175
C29   C     C_R   0.905839 0.019693 0.764513 0.354620
C30   C     C_R   0.094762 0.531578 0.235874 0.353609
C31   C     C_R   0.867874 0.993615 0.702048 -0.135202
C32   C     C_R   0.131204 0.538690 0.300015 -0.137745
C33   C     C_R   0.805979 0.021550 0.696692 -0.089924
C34   C     C_R   0.192518 0.576839 0.305686 -0.093831
C35   C     C_R   0.779605 0.087768 0.753096 0.088382
C36   C     C_R   0.220788 0.604846 0.246748 0.084631
C37   C     C_R   0.818080 0.111279 0.818724 -0.148918
C38   C     C_R   0.182432 0.617650 0.180464 -0.148338
C39   C     C_R   0.715418 0.119989 0.746671 -0.139752
C40   C     C_R   0.285405 0.632108 0.252668 -0.137334
C41   C     C_R   0.689121 0.140841 0.807830 -0.311391
C42   C     C_R   0.310072 0.693074 0.193397 -0.311961
C43   C     C_R   0.727399 0.170624 0.871100 0.724590
C44   C     C_R   0.271295 0.714102 0.129960 0.728362
C45   C     C_R   0.790231 0.168174 0.875722 0.230196
C46   C     C_R   0.209489 0.678737 0.123346 0.233931
C47   C     C_R   0.676324 0.135769 0.681715 0.542616
C48   C     C_R   0.326834 0.600288 0.315282 0.546272
C49   C     C_R   0.587681 0.139357 0.739030 0.222997
C50   C     C_R   0.410714 0.720194 0.263183 0.227940
C51   C     C_R   0.882103 0.072843 0.824143 -0.136063
C52   C     C_R   0.118733 0.573083 0.175276 -0.138438
H5    H     H_    0.779496 0.980429 0.648253 0.215852
H6    H     H_    0.215739 0.592990 0.357736 0.219741
H7    H     H_    0.886342 0.945016 0.657250 0.190442
H8    H     H_    0.111638 0.515856 0.346577 0.190401
O11   O     O_R   0.051730 0.724670 0.084120 -0.520544
O12   O     O_R   0.948270 0.224670 0.915880 -0.518355
O13   O     O_R   0.063080 0.393540 0.944820 -0.538914
O14   O     O_R   0.936920 0.893540 0.055180 -0.539383
C53   C     C_R   0.076799 0.561610 0.923160 0.772471
C54   C     C_R   0.922634 0.061711 0.076148 0.765237
O15   O     O_R   0.058800 0.395030 0.085390 -0.537809
O16   O     O_R   0.941200 0.895030 0.914610 -0.540180
O17   O     O_R   0.943980 0.223310 0.057440 -0.510508
O18   O     O_R   0.056020 0.723310 0.942560 -0.509659
C55   C     C_R   0.075313 0.564129 0.109223 0.830623
C56   C     C_R   0.924940 0.064563 0.890595 0.823457
O19   O     O_3   0.962360 0.556290 0.990650 -0.365106
O20   O     O_3   0.037640 0.056290 0.009350 -0.365844
V3    V     V_3+5 0.006980 0.281990 0.001730 1.660932
V4    V     V_3+5 0.993020 0.781990 0.998270 1.656839
Cl1   Cl    Cl    0.730310 0.757762 0.349130 -0.542336
Cl2   Cl    Cl    0.269307 0.258677 0.650343 -0.542126
Cl3   Cl    Cl    0.829473 0.257408 0.953771 -0.598886
Cl4   Cl    Cl    0.169558 0.739187 0.041845 -0.603392
Cl5   Cl    Cl    0.828967 0.728142 0.249083 -0.519477
Cl6   Cl    Cl    0.170351 0.229129 0.750030 -0.519108
Cl7   Cl    Cl    0.507922 0.139727 0.733801 -0.525255
Cl8   Cl    Cl    0.488333 0.781338 0.270951 -0.529846
F1    F     F_    0.704435 0.219032 0.928883 -0.560626
F2    F     F_    0.292551 0.772963 0.072231 -0.557958
Cl9   Cl    Cl    0.589292 0.131459 0.878298 -0.327572
Cl10  Cl    Cl    0.407478 0.809856 0.128038 -0.327433
F3    F     F_    0.698322 0.160636 0.621533 -0.693513
F4    F     F_    0.310553 0.509796 0.370625 -0.694600
Cl11  Cl    Cl    0.983800 0.975786 0.766697 -0.574998
Cl12  Cl    Cl    0.017424 0.478953 0.233946 -0.575157

loop_
_geom_bond_atom_site_label_1
_geom_bond_atom_site_label_2
_ccdc_geom_bond_type
C14   C16   A    
C28   C50   A    
O1    C3    A    
C47   F3    S    
O2    C4    A    
C26   C42   A    
C2    O7    A    
O15   V3    S    
C27   C47   A    
C31   C33   A    
C28   C48   A    
O5    C3    A    
C17   C23   T    
C18   C24   T    
C19   C21   T    
O14   C54   A    
C32   C34   A    
C44   F2    S    
O20   V4    S    
C41   C43   A    
C38   C52   A    
C42   C44   A    
C44   C46   A    
C4    C21   S    
C29   Cl11  S    
C37   C45   A    
C16   Cl2   S    
C15   Cl1   S    
C39   C47   A    
C29   C51   A    
C34   C36   A    
C25   Cl9   S    
O12   V3    S    
O14   V4    S    
C35   C39   A    
O18   V4    S    
O16   C56   A    
C8    C18   S    
O5    V1    S    
C51   C56   S    
O6    V2    S    
C33   H5    S    
C32   H8    S    
C36   C38   A    
C29   C31   A    
C11   C13   A    
C30   C32   A    
C43   C45   A    
C43   F1    S    
O19   V3    S    
C23   C54   S    
O4    C2    A    
C7    C17   S    
O20   V3    S    
C25   C49   A    
C38   C46   A    
C33   C35   A    
C30   Cl12  S    
C46   Cl4   S    
C35   C37   A    
O4    V2    S    
C3    C22   S    
C48   F4    S    
O11   V4    S    
C30   C52   A    
C26   Cl10  S    
C27   C49   A    
C40   C48   A    
O1    V2    S    
O2    V1    S    
O13   C53   A    
C31   H7    S    
O17   V3    S    
C45   Cl3   S    
O13   V3    S    
C1    C28   S    
C8    C10   A    
C12   C14   A    
C2    C27   S    
C39   C41   A    
C5    C15   A    
C10   H2    S    
C6    C16   A    
O3    V1    S    
C50   Cl8   S    
O19   V4    S    
C9    C11   A    
C7    C9    A    
C24   C53   S    
C52   C55   S    
O12   C56   A    
O3    C1    A    
C11   H3    S    
C13   C19   S    
C12   H4    S    
C14   C20   S    
C9    H1    S    
C34   H6    S    
C25   C41   A    
C1    O8    A    
C13   C15   A    
O8    V2    S    
O15   C55   A    
C54   O17   A    
C53   O18   A    
C6    Cl6   S    
C20   C22   T    
C5    C7    A    
C40   C42   A    
C6    C8    A    
O7    V1    S    
C37   C51   A    
C36   C40   A    
C49   Cl7   S    
C5    Cl5   S    
O16   V4    S    
C10   C12   A    
O9    V2    S    
C26   C50   A    
O10   V1    S    
O11   C55   A    
O6    C4    A    
