data_mof_unit_23290.cif
_audit_creation_date              2013-03-05T16:47:20-0500
_audit_creation_method            fapswitch 2.2
_symmetry_space_group_name_H-M    P1
_symmetry_Int_Tables_number       1
_space_group_crystal_system       triclinic
_cell_length_a                    10.883949
_cell_length_b                    10.965924
_cell_length_c                    9.767683
_cell_angle_alpha                 89.667699
_cell_angle_beta                  91.020652
_cell_angle_gamma                 89.886698
_cell_volume                      1165.59085333

loop_
_atom_site_label
_atom_site_type_symbol
_atom_site_description
_atom_site_fract_x
_atom_site_fract_y
_atom_site_fract_z
_atom_type_partial_charge
O1    O     O_R   0.500020 0.321960 0.617040 -0.511398
O2    O     O_R   0.499980 0.321920 0.382900 -0.574505
C1    C     C_R   0.505060 0.265630 0.500948 0.799910
O3    O     O_R   0.319660 0.500030 0.617070 -0.494734
O4    O     O_R   0.319620 0.499990 0.382930 -0.568511
C2    C     C_R   0.262604 0.500212 0.498438 0.882062
Cu1   Cu    Cu3+1 0.500020 0.500020 0.638630 1.098563
Cu2   Cu    Cu3+1 0.499980 0.499980 0.361370 1.075366
O5    O     O_R   0.500020 0.678080 0.617100 -0.588739
O6    O     O_R   0.499980 0.678040 0.382960 -0.541057
O7    O     O_R   0.680380 0.500010 0.617070 -0.609606
O8    O     O_R   0.680340 0.499970 0.382930 -0.542533
C3    C     C_R   0.497620 0.734317 0.499255 0.842811
C4    C     C_R   0.737565 0.499893 0.501585 0.859593
H1    H     H_    0.253443 0.822880 0.983782 0.202113
C5    C     C_R   0.205951 0.823511 0.198121 0.308410
C6    C     C_R   0.159741 0.752959 0.306073 -0.240758
H2    H     H_    0.148126 0.792716 0.406284 0.189293
C7    C     C_R   0.123366 0.632118 0.284035 0.028859
C8    C     C_R   0.134484 0.580476 0.153871 -0.228763
H3    H     H_    0.104012 0.487685 0.136848 0.161332
C9    C     C_R   0.182039 0.649562 0.045269 0.382927
C10   C     C_R   0.218242 0.770120 0.068463 -0.084355
C11   C     C_R   0.931462 0.565042 0.398353 0.371847
C12   C     C_R   0.871945 0.501709 0.504108 -0.147020
C13   C     C_R   0.940537 0.440645 0.608447 -0.169927
C14   C     C_R   0.068580 0.432130 0.597347 0.391557
C15   C     C_R   0.128408 0.498449 0.495089 -0.136107
C16   C     C_R   0.060745 0.563620 0.393673 -0.129173
C17   C     C_R   0.886700 0.485516 0.848778 -0.107888
H4    H     H_    0.916464 0.578652 0.832779 0.170850
C18   C     C_R   0.852159 0.448362 0.979336 -0.165921
H5    H     H_    0.853143 0.512998 0.062509 0.196583
C19   C     C_R   0.817379 0.327851 0.003120 -0.147914
H6    H     H_    0.792887 0.300657 0.105794 0.180316
C20   C     C_R   0.818774 0.242361 0.896493 0.406298
C21   C     C_R   0.850883 0.281008 0.763946 -0.217096
H7    H     H_    0.854321 0.216035 0.681030 0.196611
C22   C     C_R   0.885656 0.402540 0.740019 0.076415
C23   C     C_2   0.513500 0.934785 0.387952 0.484033
C24   C     C_2   0.486233 0.866030 0.497771 -0.223473
H8    H     H_    0.452385 0.907705 0.590429 0.156395
C25   C     C_2   0.497524 0.067614 0.394729 -0.273332
C26   C     C_2   0.528253 0.134747 0.504590 0.118976
H9    H     H_    0.455718 0.110527 0.305886 0.257360
C27   C     C_2   0.431330 0.428709 0.921006 0.650085
N1    N     N_2   0.498640 0.498660 0.846910 -0.022232
C28   C     C_2   0.451150 0.414126 0.074645 0.424815
N2    N     N_2   0.498610 0.498630 0.153040 -0.071690
N3    N     N_R   0.794063 0.116032 0.924570 0.168621
O9    O     O_R   0.834284 0.031624 0.843627 -0.281228
O10   O     O_R   0.740160 0.083763 0.036974 -0.317792
O11   O     O_3   0.550508 0.881626 0.267387 -0.675182
H10   H     H_    0.565375 0.947179 0.199315 0.384834
N4    N     N_R   0.595384 0.083779 0.619751 0.103838
O12   O     O_R   0.692288 0.016817 0.600125 -0.320715
O13   O     O_R   0.564783 0.110842 0.744125 -0.266995
O14   O     O_3   0.342446 0.360833 0.854272 -0.655923
H11   H     H_    0.288550 0.322774 0.922913 0.335863
O15   O     O_3   0.604967 0.535895 0.903857 -0.636948
H12   H     H_    0.641090 0.591679 0.835796 0.382904
N5    N     N_R   0.416908 0.299423 0.131531 0.063986
O16   O     O_R   0.461573 0.201034 0.077475 -0.317993
O17   O     O_R   0.315460 0.292195 0.199595 -0.337641
N6    N     N_R   0.235314 0.950042 0.218399 0.133332
O18   O     O_R   0.275606 0.016052 0.117667 -0.285273
O19   O     O_R   0.215036 0.002222 0.335225 -0.353415
O20   O     O_3   0.491285 0.611660 0.099831 -0.604677
H13   H     H_    0.550600 0.660534 0.153681 0.417901
O21   O     O_3   0.191076 0.603288 0.914911 -0.706673
H14   H     H_    0.157126 0.519484 0.914237 0.340867
O22   O     O_3   0.859613 0.632763 0.306690 -0.701631
H15   H     H_    0.910147 0.680493 0.242923 0.343719
O23   O     O_3   0.138955 0.360774 0.686040 -0.671190
H16   H     H_    0.087678 0.298217 0.730274 0.340766

loop_
_geom_bond_atom_site_label_1
_geom_bond_atom_site_label_2
_geom_bond_distance
_ccdc_geom_bond_type
O1    C1    1.296390 A    
O4    Cu2   1.978019 S    
C17   C18   1.394724 A    
N4    O12   1.301582 A    
C23   O11   1.383044 S    
C11   C12   1.409363 A    
C18   C19   1.394709 A    
C21   H7    1.082893 S    
N2    O20   1.342923 S    
C2    C15   1.460539 S    
O2    C1    1.304972 A    
C14   O23   1.384061 S    
C24   H8    1.086133 S    
C28   N5    1.425089 S    
C7    C8    1.401914 A    
Cu2   O8    1.970558 S    
C18   H5    1.081160 S    
C23   C25   1.468598 S    
H1    C10   1.082729 S    
C6    H2    1.083187 S    
N1    O15   1.340506 S    
Cu1   Cu2   2.708184 S    
C21   C22   1.405521 A    
O1    Cu1   1.965163 S    
O11   H10   0.991860 S    
C27   O14   1.378694 S    
Cu1   O7    1.978018 S    
C25   H9    1.077909 S    
C26   N4    1.439917 S    
C15   C16   1.413538 A    
C13   C14   1.402716 A    
N5    O16   1.301111 A    
O15   H12   0.988072 S    
O3    Cu1   1.970559 S    
C28   N2    1.306873 D    
O4    C2    1.297310 A    
C4    C12   1.462526 S    
C3    C24   1.449384 S    
C23   C24   1.345377 D    
C6    C7    1.400506 A    
C8    C9    1.406736 A    
C17   C22   1.402650 A    
C19   H6    1.082655 S    
C5    C10   1.406742 A    
C19   C20   1.405582 A    
N4    O13   1.301176 A    
C25   C26   1.342643 D    
C17   H4    1.083377 S    
C1    C26   1.456907 S    
O7    C4    1.298017 A    
C27   C28   1.519782 S    
C13   C22   1.484968 S    
O14   H11   0.989723 S    
O3    C2    1.304873 A    
C5    C6    1.405110 A    
O23   H16   0.987629 S    
C7    C16   1.481307 S    
C11   C16   1.408722 A    
C14   C15   1.402556 A    
O21   H14   0.991188 S    
C20   N3    1.437468 S    
C8    H3    1.083677 S    
C11   O22   1.389128 S    
C20   C21   1.410058 A    
N6    O18   1.301057 A    
N3    O10   1.301584 A    
Cu1   O5    1.962672 S    
O5    C3    1.302531 A    
C9    C10   1.398819 A    
O20   H13   0.986516 S    
N5    O17   1.301279 A    
C5    N6    1.438507 S    
N3    O9    1.301038 A    
C12   C13   1.416832 A    
C27   N1    1.289807 D    
Cu2   N2    2.034830 S    
C9    O21   1.378479 S    
Cu2   O6    1.965163 S    
O2    Cu2   1.962670 S    
O8    C4    1.305924 A    
O22   H15   0.986905 S    
N6    O19   1.301656 A    
O6    C3    1.296519 A    
Cu1   N1    2.034703 S    
