data_mof_unit_19960.cif
_audit_creation_date              2012-12-10T17:36:48-0500
_audit_creation_method            fapswitch 2.2
_symmetry_space_group_name_H-M    P1
_symmetry_Int_Tables_number       1
_space_group_crystal_system       triclinic
_cell_length_a                    10.606129
_cell_length_b                    12.332072
_cell_length_c                    13.129196
_cell_angle_alpha                 116.98781
_cell_angle_beta                  77.351204
_cell_angle_gamma                 101.437536
_cell_volume                      1483.40409588

loop_
_atom_site_label
_atom_site_type_symbol
_atom_type_description
_atom_site_fract_x
_atom_site_fract_y
_atom_site_fract_z
_atom_type_partial_charge
C1    C     C_R   0.513060 0.854700 0.285997 0.779209
C2    C     C_3   0.013286 0.908402 0.524353 -0.127759
C3    C     C_3   0.955102 0.891666 0.419327 -0.180175
C4    C     C_3   0.877582 0.999818 0.499495 0.022725
C5    C     C_R   0.293698 0.286817 0.016401 -0.191830
C6    C     C_R   0.444492 0.228929 0.837079 -0.169515
C7    C     C_R   0.607256 0.812389 0.084297 -0.240238
C8    C     C_R   0.621558 0.737709 0.966537 -0.145488
C9    C     C_R   0.557118 0.618803 0.923162 0.177750
C10   C     C_R   0.482567 0.571392 0.002073 0.081855
C11   C     C_R   0.450395 0.655394 0.119168 0.042838
C12   C     C_R   0.740502 0.999693 0.499642 0.776117
C13   C     C_R   0.438251 0.445060 0.971079 0.080724
C14   C     C_R   0.339756 0.410391 0.046498 0.076392
C15   C     C_R   0.290576 0.499242 0.152745 -0.221594
C16   C     C_R   0.346778 0.619797 0.189786 -0.183671
C17   C     C_R   0.495495 0.351818 0.871603 -0.310572
C18   C     C_R   0.345506 0.195474 0.913027 0.393649
C19   C     C_R   0.520847 0.773448 0.161585 -0.105086
C20   C     C_R   0.709921 0.347514 0.329844 -0.306333
C21   C     C_R   0.322084 0.759074 0.644231 0.050631
C22   C     C_R   0.280763 0.661334 0.674608 0.134979
C23   C     C_R   0.478659 0.145416 0.714399 0.816234
C24   C     C_R   0.347055 0.557287 0.618429 -0.220220
C25   C     C_R   0.456003 0.550495 0.532904 -0.050469
C26   C     C_R   0.493625 0.652769 0.504846 0.273633
C27   C     C_R   0.528961 0.446505 0.474296 -0.016795
C28   C     C_R   0.636519 0.447017 0.388559 0.179966
C29   C     C_R   0.670532 0.546766 0.361695 -0.287578
C30   C     C_R   0.600811 0.647125 0.418435 -0.162684
C31   C     C_R   0.500966 0.341416 0.496847 0.026065
C32   C     C_R   0.677326 0.247468 0.356139 0.069005
C33   C     C_R   0.259517 0.000110 0.500126 0.784162
C34   C     C_3   0.986760 0.090899 0.475053 -0.135515
C35   C     C_3   0.066548 0.982643 0.394922 -0.170933
C36   C     C_3   0.122440 0.999543 0.499939 0.021577
C37   C     C_3   0.044883 0.107627 0.580096 -0.167247
C38   C     C_3   0.933483 0.016637 0.604482 -0.157176
Cu1   Cu    Cu3+1 0.529830 0.098270 0.475420 0.931596
Cu2   Cu    Cu3+1 0.470170 0.901730 0.524580 0.922507
H1    H     H_    0.124256 0.968753 0.309324 0.135626
H2    H     H_    0.580982 0.372957 0.819004 0.186104
H3    H     H_    0.662033 0.902467 0.114770 0.159157
H4    H     H_    0.681477 0.774011 0.908259 0.149125
H5    H     H_    0.305896 0.684869 0.273428 0.168152
H6    H     H_    0.733650 0.170384 0.311182 0.120330
H7    H     H_    0.752502 0.547545 0.295953 0.146154
H8    H     H_    0.792181 0.347244 0.264102 0.135473
H9    H     H_    0.421403 0.333096 0.560677 0.121864
H10   H     H_    0.270823 0.839528 0.686462 0.159909
H11   H     H_    0.973349 0.165695 0.454806 0.138459
H12   H     H_    0.311693 0.483543 0.643751 0.144129
H13   H     H_    0.634772 0.718348 0.391179 0.201854
H14   H     H_    0.084915 0.195876 0.645713 0.128774
H15   H     H_    0.875821 0.030446 0.690076 0.131227
H16   H     H_    0.026750 0.833600 0.544573 0.140826
H17   H     H_    0.915005 0.803377 0.353793 0.122995
H18   H     H_    0.212538 0.474585 0.209869 0.140548
H19   H     H_    0.217996 0.260651 0.074136 0.151638
N1    N     N_R   0.575030 0.246270 0.438190 -0.178977
N2    N     N_R   0.425760 0.754330 0.561190 -0.229034
O1    O     O_R   0.537510 0.972500 0.318130 -0.576425
O2    O     O_R   0.487140 0.806530 0.359650 -0.600484
O3    O     O_R   0.708330 0.082950 0.479220 -0.587386
O4    O     O_R   0.657960 0.916980 0.520740 -0.598241
O5    O     O_R   0.512860 0.193470 0.640350 -0.580119
O6    O     O_R   0.462490 0.027500 0.681870 -0.581017
O7    O     O_R   0.342040 0.083020 0.479260 -0.583020
O8    O     O_R   0.291670 0.917050 0.520780 -0.593337
C39   C     C_3   0.553976 0.556954 0.794555 -0.897541
H20   H     H_    0.646535 0.517578 0.747496 0.233259
H21   H     H_    0.469604 0.485746 0.771489 0.238718
H22   H     H_    0.542555 0.624984 0.764594 0.244184
C40   C     C_3   0.166336 0.666964 0.766660 -0.886572
H23   H     H_    0.123969 0.754910 0.803457 0.236993
H24   H     H_    0.089855 0.590826 0.729512 0.234601
H25   H     H_    0.197453 0.657991 0.837680 0.245696
O9    O     O_3   0.294540 0.076137 0.888588 -0.746758
H26   H     H_    0.368583 0.026894 0.859886 0.332377

loop_
_geom_bond_atom_site_label_1
_geom_bond_atom_site_label_2
_ccdc_geom_bond_type
C24   H12   S    
C34   C37   S    
Cu1   O7    S    
C35   C36   S    
C1    O1    A    
C7    C8    A    
Cu1   O3    S    
C11   C19   A    
C34   H11   S    
C29   C30   A    
Cu2   O2    S    
C40   H24   S    
C29   H7    S    
C23   O5    A    
C36   C37   S    
C26   N2    A    
C12   O3    A    
C6    C23   S    
C15   C16   A    
C33   C36   S    
C34   C35   S    
C23   O6    A    
Cu1   O1    S    
C17   H2    S    
C38   H15   S    
C8    C9    A    
C40   H25   S    
C39   H20   S    
C7    H3    S    
C4    C12   S    
C9    C10   A    
C21   N2    A    
C33   O8    A    
C21   C22   A    
C31   H9    S    
C1    O2    A    
C21   H10   S    
C6    C18   A    
C30   H13   S    
C4    C34   S    
C1    C19   S    
Cu2   O8    S    
C5    H19   S    
C27   C31   A    
C9    C39   S    
C40   H23   S    
Cu1   Cu2   S    
O9    H26   S    
C5    C18   A    
C20   C28   A    
C25   C26   A    
Cu2   O6    S    
Cu2   N2    S    
C31   N1    A    
C37   C38   S    
C11   C16   A    
C2    C38   S    
C3    C35   S    
C18   O9    S    
C39   H22   S    
C24   C25   A    
C5    C14   A    
C20   H8    S    
C37   H14   S    
C3    H17   S    
C4    C38   S    
C26   C30   A    
C7    C19   A    
Cu2   O4    S    
Cu1   O5    S    
C22   C24   A    
C32   N1    A    
C3    C4    S    
C20   C32   A    
C2    C36   S    
C6    C17   A    
C28   C29   A    
C32   H6    S    
C8    H4    S    
C10   C13   A    
C16   H5    S    
C25   C27   A    
C12   O4    A    
C13   C17   A    
C2    C3    S    
C2    H16   S    
Cu1   N1    S    
C15   H18   S    
C35   H1    S    
C10   C11   A    
C27   C28   A    
C22   C40   S    
C14   C15   A    
C39   H21   S    
C13   C14   A    
C33   O7    A    
