data_mof_unit_53454.cif
_audit_creation_date              2012-12-10T17:05:18-0500
_audit_creation_method            fapswitch 2.2
_symmetry_space_group_name_H-M    P1
_symmetry_Int_Tables_number       1
_space_group_crystal_system       triclinic
_cell_length_a                    10.064299
_cell_length_b                    10.650679
_cell_length_c                    15.515005
_cell_angle_alpha                 90.375612
_cell_angle_beta                  67.549211
_cell_angle_gamma                 91.006783
_cell_volume                      1536.79293353

loop_
_atom_site_label
_atom_site_type_symbol
_atom_type_description
_atom_site_fract_x
_atom_site_fract_y
_atom_site_fract_z
_atom_type_partial_charge
C1    C     C_R   0.500470 0.737407 0.501701 0.982696
C2    C     C_R   0.737991 0.515269 0.028552 0.160541
C3    C     C_R   0.595146 0.549740 0.084070 0.100527
C4    C     C_R   0.409877 0.501265 0.675949 0.878024
C5    C     C_R   0.835308 0.486963 0.070425 -0.215328
C6    C     C_R   0.790102 0.486135 0.167224 -0.167782
C7    C     C_R   0.552322 0.547004 0.180838 -0.255506
C8    C     C_2   0.557724 0.067319 0.562557 0.160249
C9    C     C_2   0.476241 0.131507 0.527428 -0.422643
C10   C     C_2   0.539504 0.930942 0.569462 0.368153
C11   C     C_2   0.504385 0.870128 0.504798 -0.426017
C12   C     C_R   0.428131 0.550542 0.907818 0.108392
C13   C     C_2   0.113664 0.470793 0.428933 -0.071201
C14   C     C_2   0.962443 0.445985 0.436369 0.409608
C15   C     C_R   0.494704 0.262710 0.506802 0.968108
C16   C     C_R   0.590261 0.502196 0.324045 0.863845
C17   C     C_R   0.356149 0.519955 0.776622 -0.041548
C18   C     C_R   0.646956 0.512479 0.222525 -0.059231
C19   C     C_R   0.190118 0.613861 0.918067 -0.214679
C20   C     C_R   0.223232 0.574904 0.826206 -0.161721
C21   C     C_R   0.452698 0.501204 0.819777 -0.217826
C22   C     C_3   0.807991 0.102985 0.536385 -0.607394
C23   C     C_R   0.291866 0.602260 0.959199 0.176143
C24   C     C_R   0.535118 0.547494 0.946195 0.057358
C25   C     C_R   0.496086 0.575826 0.041788 0.067773
C26   C     C_R   0.359233 0.627964 0.091734 -0.208289
C27   C     C_R   0.259901 0.642610 0.050334 -0.212234
C28   C     C_R   0.680361 0.519525 0.891646 -0.184250
C29   C     C_R   0.780488 0.505793 0.932304 -0.217241
Cl1   Cl    Cl    0.567586 0.851713 0.661069 -0.620280
Cl2   Cl    Cl    0.028972 0.458029 0.610465 -0.580083
Cl3   Cl    Cl    0.938091 0.349389 0.351413 -0.646810
H1    H     H_    0.156801 0.683826 0.090366 0.154231
H2    H     H_    0.087103 0.656509 0.955898 0.148521
H3    H     H_    0.147673 0.591353 0.793266 0.181531
H4    H     H_    0.548793 0.449310 0.782270 0.157866
H5    H     H_    0.327676 0.662624 0.162096 0.146821
H6    H     H_    0.720573 0.510871 0.816716 0.188126
H7    H     H_    0.636004 0.117149 0.663125 0.256513
H8    H     H_    0.879031 0.165948 0.557855 0.251602
H9    H     H_    0.830321 0.120223 0.461544 0.270124
H10   H     H_    0.832929 0.003946 0.545591 0.238230
H11   H     H_    0.944614 0.460788 0.028499 0.154327
H12   H     H_    0.385527 0.086607 0.517200 0.149479
H13   H     H_    0.487364 0.917494 0.448237 0.114835
H14   H     H_    0.198798 0.462154 0.360556 0.139978
H15   H     H_    0.874461 0.569937 0.536972 0.199840
H16   H     H_    0.442435 0.564670 0.225444 0.153928
H17   H     H_    0.865248 0.460687 0.198526 0.206772
H18   H     H_    0.890216 0.482741 0.888575 0.168112
N1    N     N_2   0.148330 0.498670 0.499030 0.040311
N2    N     N_2   0.852680 0.498640 0.499000 -0.185466
N3    N     N_2   0.659259 0.128891 0.592879 -0.271047
O1    O     O_R   0.386950 0.680940 0.500010 -0.606178
O2    O     O_R   0.613110 0.680900 0.499990 -0.581149
O3    O     O_R   0.322330 0.500030 0.632270 -0.567913
O4    O     O_R   0.548480 0.499990 0.632240 -0.596787
O5    O     O_R   0.386890 0.319100 0.500010 -0.595143
O6    O     O_R   0.613050 0.319060 0.499990 -0.542817
O7    O     O_R   0.451520 0.500010 0.367760 -0.640569
O8    O     O_R   0.677670 0.499970 0.367730 -0.577364
Zn1   Zn    Zn3+2 0.349000 0.500030 0.500020 1.036121
Zn2   Zn    Zn3+2 0.651000 0.499970 0.499980 1.035808

loop_
_geom_bond_atom_site_label_1
_geom_bond_atom_site_label_2
_ccdc_geom_bond_type
C8    N3    S    
O5    Zn1   S    
C19   C23   A    
C1    O1    A    
C26   H5    S    
H15   N2    S    
C23   C27   A    
C17   C21   A    
C10   Cl1   S    
O6    Zn2   S    
C19   C20   A    
C1    C11   S    
C28   H6    S    
C7    C18   A    
C22   H8    S    
C7    H16   S    
C2    C3    A    
C5    H11   S    
C21   H4    S    
C22   H10   S    
C13   C14   S    
C27   H1    S    
C12   C23   A    
C26   C27   A    
H7    N3    S    
N1    Zn1   S    
C2    C29   A    
C16   O7    A    
C4    C17   S    
C14   N2    D    
C28   C29   A    
O4    Zn2   S    
C22   N3    S    
C3    C7    A    
C29   H18   S    
C6    H17   S    
C9    C15   S    
C5    C6    A    
C6    C18   A    
C15   O5    A    
O3    Zn1   S    
C1    O2    A    
C11   H13   S    
C2    C5    A    
C16   O8    A    
C22   H9    S    
C3    C25   A    
C17   C20   A    
C24   C25   A    
O7    Zn1   S    
C10   C11   D    
Cl2   N1    S    
O8    Zn2   S    
C12   C24   A    
C13   H14   S    
C9    H12   S    
O2    Zn2   S    
O1    Zn1   S    
C25   C26   A    
C13   N1    D    
C20   H3    S    
C15   O6    A    
C12   C21   A    
C19   H2    S    
C8    C10   S    
C4    O3    A    
C24   C28   A    
C4    O4    A    
C14   Cl3   S    
C8    C9    D    
N2    Zn2   S    
C16   C18   S    
