data_mof_unit_38341.cif
_audit_creation_date              2012-10-26T20:25:38-0400
_audit_creation_method            fapswitch 2.2
_symmetry_space_group_name_H-M    P1
_symmetry_Int_Tables_number       1
_space_group_crystal_system       triclinic
_cell_length_a                    23.494556
_cell_length_b                    10.601212
_cell_length_c                    9.444071
_cell_angle_alpha                 88.452189
_cell_angle_beta                  90.152321
_cell_angle_gamma                 89.890743
_cell_volume                      2351.37085589

loop_
_atom_site_label
_atom_site_type_symbol
_atom_type_description
_atom_site_fract_x
_atom_site_fract_y
_atom_site_fract_z
_atom_type_partial_charge
C1    C     C_R   0.500725 0.259487 0.501470 0.552603
C2    C     C_R   0.701961 0.491444 0.628548 -0.136657
C3    C     C_R   0.238406 0.471121 0.624519 0.043834
C4    C     C_R   0.761640 0.491824 0.629995 0.046357
C5    C     C_R   0.209038 0.494416 0.495760 0.256397
C6    C     C_R   0.791101 0.503509 0.500144 0.257485
C7    C     C_3   0.519664 0.035223 0.626865 -0.122465
C8    C     C_3   0.480340 0.964783 0.373143 -0.121935
C9    C     C_3   0.552959 0.955293 0.520427 -0.124111
C10   C     C_3   0.447045 0.044712 0.479583 -0.123805
C11   C     C_3   0.499101 0.877546 0.496581 0.044795
C12   C     C_R   0.499277 0.740515 0.498532 0.552983
C13   C     C_3   0.500904 0.122458 0.503426 0.044519
C14   C     C_3   0.465735 0.955217 0.603094 -0.120561
C15   C     C_3   0.534270 0.044788 0.396915 -0.120631
C16   C     C_R   0.391045 0.499543 0.499879 0.548193
C17   C     C_R   0.608981 0.500439 0.500088 0.548144
C18   C     C_3   0.521161 0.602719 0.045244 0.096209
C19   C     C_3   0.478834 0.397282 0.954747 0.096244
C20   C     C_3   0.469970 0.592912 0.945693 -0.006416
C21   C     C_3   0.530025 0.407080 0.054303 -0.006415
C22   C     C_3   0.551363 0.510419 0.949038 -0.004802
C23   C     C_R   0.239340 0.519174 0.370979 -0.069614
C24   C     C_3   0.448633 0.489578 0.050964 -0.005239
C25   C     C_R   0.880865 0.613927 0.508747 0.386344
C26   C     C_R   0.119257 0.385879 0.472273 0.383339
C27   C     C_R   0.879937 0.390803 0.478233 0.388641
C28   C     C_R   0.120161 0.608651 0.505270 0.389533
C29   C     C_R   0.939593 0.387403 0.474852 0.026269
C30   C     C_R   0.060501 0.612561 0.504701 0.026718
C31   C     C_R   0.970023 0.500687 0.489896 -0.030482
C32   C     C_R   0.030074 0.499418 0.488593 -0.030454
C33   C     C_R   0.940545 0.615190 0.506647 0.025727
C34   C     C_R   0.760874 0.514046 0.372542 -0.070677
C35   C     C_R   0.059560 0.384963 0.471592 0.025175
C36   C     C_R   0.969410 0.273904 0.457383 -0.130984
C37   C     C_R   0.030684 0.726268 0.520655 -0.129720
C38   C     C_R   0.028790 0.272723 0.455585 -0.129710
C39   C     C_R   0.971307 0.727589 0.521480 -0.128870
C40   C     C_3   0.545277 0.727485 0.095584 -0.240818
C41   C     C_3   0.569689 0.807096 0.972144 -0.326578
C42   C     C_3   0.587988 0.936998 0.020942 -0.463648
C43   C     C_3   0.454691 0.272569 0.904335 -0.241111
C44   C     C_3   0.430222 0.192970 0.027701 -0.326916
C45   C     C_R   0.298510 0.520349 0.372150 -0.152846
C46   C     C_3   0.411896 0.063120 0.978813 -0.463509
C47   C     C_3   0.207205 0.443460 0.761615 -0.241035
C48   C     C_3   0.205663 0.560178 0.853717 -0.304567
C49   C     C_3   0.168467 0.537376 0.984030 -0.448928
C50   C     C_3   0.792455 0.479961 0.770618 -0.241714
C51   C     C_3   0.788387 0.345038 0.832384 -0.307162
C52   C     C_3   0.819564 0.332381 0.974042 -0.437112
C53   C     C_R   0.701657 0.512847 0.372293 -0.156492
C54   C     C_R   0.328425 0.498163 0.499169 -0.008384
C55   C     C_R   0.671655 0.501502 0.500285 -0.008999
C56   C     C_R   0.298092 0.474056 0.625041 -0.138524
Cu1   Cu    Cu3+1 0.500010 0.499990 0.643150 0.906046
Cu2   Cu    Cu3+1 0.499990 0.500010 0.356850 0.907671
H1    H     H_    0.946993 0.185627 0.445413 0.165483
H2    H     H_    0.620170 0.927546 0.106981 0.161322
H3    H     H_    0.607015 0.991182 0.930703 0.145260
H4    H     H_    0.607139 0.758284 0.927076 0.162299
H5    H     H_    0.537100 0.819829 0.887310 0.172846
H6    H     H_    0.510103 0.781038 0.143530 0.158367
H7    H     H_    0.579061 0.708139 0.175840 0.169682
H8    H     H_    0.379722 0.072658 0.892763 0.160194
H9    H     H_    0.449241 0.009940 0.939842 0.142570
H10   H     H_    0.392853 0.008917 0.069014 0.147193
H11   H     H_    0.462786 0.180165 0.112586 0.172904
H12   H     H_    0.053101 0.814496 0.532991 0.165975
H13   H     H_    0.392773 0.241826 0.072711 0.163360
H14   H     H_    0.420928 0.291987 0.824037 0.168051
H15   H     H_    0.489860 0.218973 0.856427 0.158545
H16   H     H_    0.594548 0.519589 0.902681 0.092422
H17   H     H_    0.405448 0.480408 0.097350 0.094241
H18   H     H_    0.050464 0.183561 0.442360 0.166089
H19   H     H_    0.949637 0.816804 0.534361 0.165475
H20   H     H_    0.320764 0.539873 0.273725 0.119083
H21   H     H_    0.679437 0.521188 0.271822 0.122371
H22   H     H_    0.123754 0.519629 0.951726 0.165407
H23   H     H_    0.216776 0.538241 0.272879 0.113145
H24   H     H_    0.184461 0.454825 0.047323 0.160059
H25   H     H_    0.169272 0.622015 0.050718 0.154955
H26   H     H_    0.249534 0.583797 0.888441 0.153537
H27   H     H_    0.188194 0.642034 0.791603 0.212908
H28   H     H_    0.163015 0.411887 0.740998 0.172511
H29   H     H_    0.228733 0.364352 0.820193 0.137630
H30   H     H_    0.865408 0.354973 0.960389 0.163356
H31   H     H_    0.800641 0.397011 0.051726 0.153535
H32   H     H_    0.815775 0.234022 0.016352 0.165943
H33   H     H_    0.743036 0.318852 0.848740 0.155771
H34   H     H_    0.783538 0.523043 0.273130 0.112253
H35   H     H_    0.807522 0.278194 0.757192 0.208776
H36   H     H_    0.838017 0.505836 0.759810 0.169326
H37   H     H_    0.773338 0.547218 0.845434 0.136010
H38   H     H_    0.596284 0.915383 0.536682 0.113418
H39   H     H_    0.403721 0.084626 0.463337 0.113920
H40   H     H_    0.536620 0.064991 0.730337 0.103490
H41   H     H_    0.463383 0.935031 0.269666 0.103952
H42   H     H_    0.437506 0.915368 0.687034 0.108454
H43   H     H_    0.562499 0.084634 0.312971 0.108603
H44   H     H_    0.320736 0.456178 0.723730 0.117051
H45   H     H_    0.679305 0.482928 0.728110 0.114039
H46   H     H_    0.445076 0.671434 0.895727 0.095043
H47   H     H_    0.554918 0.328552 0.104262 0.094926
H48   H     H_    0.550633 0.990154 0.059899 0.142599
N1    N     N_R   0.852048 0.502724 0.495866 -0.404463
N2    N     N_R   0.148079 0.496330 0.490794 -0.404145
N3    N     N_3   0.500040 0.499970 0.858290 -0.233302
N4    N     N_3   0.499960 0.500030 0.141710 -0.233536
O1    O     O_R   0.500030 0.316850 0.620870 -0.516368
O2    O     O_2   0.148361 0.277414 0.455924 -0.499663
O3    O     O_2   0.849963 0.283363 0.464396 -0.508620
O4    O     O_2   0.150115 0.715918 0.520644 -0.507568
O5    O     O_R   0.499970 0.683150 0.379130 -0.516202
O6    O     O_R   0.500000 0.316860 0.379090 -0.505055
O7    O     O_R   0.500000 0.683140 0.620910 -0.505093
O8    O     O_R   0.417890 0.499960 0.620920 -0.507973
O9    O     O_R   0.582110 0.500040 0.379080 -0.506448
O10   O     O_R   0.417870 0.499970 0.379140 -0.503290
O11   O     O_R   0.582130 0.500030 0.620860 -0.505336
O12   O     O_2   0.851775 0.722520 0.524348 -0.498619

loop_
_geom_bond_atom_site_label_1
_geom_bond_atom_site_label_2
_ccdc_geom_bond_type
C43   H15   S    
C43   H14   S    
C23   C45   A    
C7    H40   S    
C27   C29   A    
C41   C42   S    
C52   H32   S    
C36   H1    S    
C21   N4    S    
C38   H18   S    
C29   C36   A    
C33   C39   A    
C39   H19   S    
C19   C21   S    
C8    H41   S    
C46   H8    S    
C2    C55   A    
C16   O10   A    
C8    C10   S    
C11   C14   S    
C50   H37   S    
C44   H13   S    
C3    C47   S    
C18   C40   S    
C51   H33   S    
C7    C14   S    
Cu1   N3    S    
C20   C24   S    
C44   C46   S    
C6    N1    S    
C31   C33   A    
C45   H20   S    
C1    O6    A    
C25   O12   S    
C17   C55   S    
C12   O5    A    
C19   N3    S    
Cu2   N4    S    
C21   C22   S    
Cu2   O6    S    
C52   H31   S    
C41   H4    S    
C19   C43   S    
C34   H34   S    
C53   C55   A    
C54   C56   A    
C51   C52   S    
C47   H28   S    
C52   H30   S    
C35   C38   A    
C24   N4    S    
C4    C6    A    
C10   C14   S    
C26   N2    A    
C50   H36   S    
C48   H26   S    
C30   C37   A    
C4    C50   S    
C47   H29   S    
C49   H24   S    
C10   H39   S    
C2    C4    A    
C43   C44   S    
C32   C35   A    
C46   H10   S    
C16   O8    A    
C42   H48   S    
C3    C56   A    
C47   C48   S    
C5    C23   A    
C27   N1    A    
C22   N3    S    
Cu2   O10   S    
C50   C51   S    
C42   H3    S    
C44   H11   S    
C15   H43   S    
C9    C11   S    
C9    H38   S    
C28   O4    S    
C51   H35   S    
C27   O3    S    
C17   O11   A    
C48   C49   S    
C45   C54   A    
C8    C15   S    
C40   H7    S    
C13   C15   S    
Cu2   O5    S    
C1    C13   S    
C41   H5    S    
C42   H2    S    
C26   O2    S    
C25   N1    A    
Cu1   O7    S    
C7    C9    S    
C40   C41   S    
C23   H23   S    
C53   H21   S    
C18   C22   S    
C31   C32   A    
C18   N4    S    
C3    C5    A    
C10   C13   S    
C11   C12   S    
C24   H17   S    
C14   H42   S    
C20   H46   S    
C40   H6    S    
C49   H22   S    
C49   H25   S    
C36   C38   A    
C19   C24   S    
C9    C15   S    
C56   H44   S    
C46   H9    S    
C29   C31   A    
C1    O1    A    
C30   C32   A    
Cu1   Cu2   S    
Cu1   O1    S    
C2    H45   S    
C28   N2    A    
C8    C11   S    
C28   C30   A    
Cu2   O9    S    
C18   C20   S    
C16   C54   S    
C17   O9    A    
Cu1   O11   S    
C20   N3    S    
C6    C34   A    
C26   C35   A    
C7    C13   S    
C34   C53   A    
C37   C39   A    
C22   H16   S    
C48   H27   S    
C12   O7    A    
C37   H12   S    
C21   H47   S    
C25   C33   A    
Cu1   O8    S    
C5    N2    S    
