data_mof_unit_40012.cif
_audit_creation_date              2012-12-10T17:24:48-0500
_audit_creation_method            fapswitch 2.2
_symmetry_space_group_name_H-M    P1
_symmetry_Int_Tables_number       1
_space_group_crystal_system       triclinic
_cell_length_a                    10.204696
_cell_length_b                    10.365641
_cell_length_c                    19.184462
_cell_angle_alpha                 91.223317
_cell_angle_beta                  80.964362
_cell_angle_gamma                 94.933301
_cell_volume                      1996.62855077

loop_
_atom_site_label
_atom_site_type_symbol
_atom_type_description
_atom_site_fract_x
_atom_site_fract_y
_atom_site_fract_z
_atom_type_partial_charge
C1    C     C_R   0.554581 0.735430 0.499179 0.904791
C2    C     C_R   0.501189 0.502974 0.365636 0.910852
C3    C     C_R   0.377334 0.467370 0.757699 0.069881
C4    C     C_R   0.619817 0.561384 0.245676 0.066198
C5    C     C_R   0.379213 0.468827 0.830939 0.134889
C6    C     C_R   0.621949 0.562219 0.172158 0.133419
C7    C     C_R   0.502821 0.494809 0.855278 -0.023946
C8    C     C_R   0.505943 0.513961 0.145064 -0.029111
C9    C     C_R   0.623477 0.518054 0.808473 0.150789
C10   C     C_R   0.388313 0.467698 0.189527 0.152735
C11   C     C_R   0.618334 0.517668 0.736290 -0.238640
C12   C     C_R   0.445426 0.264741 0.508442 0.865173
C13   C     C_R   0.389899 0.466426 0.262054 -0.241357
C14   C     C_R   0.497325 0.494161 0.710843 -0.136204
C15   C     C_R   0.504313 0.510434 0.289776 -0.132230
C16   C     C_R   0.507557 0.509891 0.069691 0.277073
C17   C     C_R   0.505944 0.500363 0.930277 0.276918
C18   C     C_3   0.250770 0.440487 0.882796 -0.425119
C19   C     C_3   0.230761 0.298046 0.903775 -0.840398
C20   C     C_3   0.747832 0.611140 0.122905 -0.415019
C21   C     C_3   0.835532 0.501134 0.099316 -0.853695
C22   C     C_3   0.754607 0.544572 0.837451 -0.368623
C23   C     C_2   0.580649 0.874714 0.509066 -0.091880
C24   C     C_3   0.880353 0.569416 0.782854 -0.913409
C25   C     C_3   0.264441 0.419657 0.157751 -0.371577
C26   C     C_3   0.140420 0.375687 0.210199 -0.906482
C27   C     C_3   0.312072 0.049019 0.490915 -0.435878
C28   C     C_3   0.187498 0.016962 0.544960 -0.834539
C29   C     C_3   0.682802 0.948497 0.454925 -0.426412
C30   C     C_3   0.638229 0.947786 0.382571 -0.864967
C31   C     C_2   0.419015 0.126834 0.524471 -0.050226
C32   C     C_2   0.506951 0.932828 0.564666 0.109948
C33   C     C_2   0.496644 0.072378 0.565782 0.122950
C34   C     C_2   0.930811 0.519651 0.501078 0.127758
C35   C     C_2   0.069368 0.480920 0.498519 0.129567
C36   C     C_R   0.499036 0.498100 0.634601 0.867881
H1    H     H_    0.708405 0.537495 0.698991 0.180327
H2    H     H_    0.312914 0.271414 0.930756 0.274501
H3    H     H_    0.135608 0.280372 0.940511 0.247883
H4    H     H_    0.250671 0.501718 0.930952 0.218023
H5    H     H_    0.162294 0.465593 0.860719 0.197321
H6    H     H_    0.863556 0.454166 0.145641 0.252460
H7    H     H_    0.782734 0.427179 0.068779 0.273863
H8    H     H_    0.927884 0.540164 0.065151 0.248282
H9    H     H_    0.723162 0.657848 0.075636 0.218040
H10   H     H_    0.806839 0.688062 0.148276 0.198056
H11   H     H_    0.895776 0.483804 0.747622 0.263354
H12   H     H_    0.303115 0.429074 0.297867 0.171124
H13   H     H_    0.873977 0.656613 0.751286 0.262595
H14   H     H_    0.968036 0.587032 0.810538 0.245828
H15   H     H_    0.747056 0.630485 0.873090 0.212779
H16   H     H_    0.768945 0.460268 0.869452 0.216947
H17   H     H_    0.159419 0.291605 0.241011 0.259433
H18   H     H_    0.109231 0.456522 0.246273 0.262404
H19   H     H_    0.057453 0.344890 0.180808 0.252522
H20   H     H_    0.237578 0.498731 0.125789 0.212555
H21   H     H_    0.288972 0.336969 0.121606 0.216950
H22   H     H_    0.655345 0.197384 0.582715 0.204051
H23   H     H_    0.128834 0.635309 0.553698 0.173664
H24   H     H_    0.511947 0.213369 0.640534 0.184021
H25   H     H_    0.507957 0.803962 0.643264 0.168273
H26   H     H_    0.359489 0.803175 0.613218 0.205317
H27   H     H_    0.209618 0.955090 0.587351 0.263518
H28   H     H_    0.148596 0.107129 0.569074 0.255841
H29   H     H_    0.109358 0.964009 0.518562 0.241018
H30   H     H_    0.283833 0.105596 0.447776 0.194143
H31   H     H_    0.348672 0.958112 0.466688 0.230955
H32   H     H_    0.615575 0.847095 0.364337 0.256125
H33   H     H_    0.548788 0.002256 0.384630 0.253381
H34   H     H_    0.870933 0.364205 0.446795 0.174150
H35   H     H_    0.719134 0.995252 0.343676 0.250850
H36   H     H_    0.704263 0.050420 0.471432 0.222689
H37   H     H_    0.778198 0.902412 0.450137 0.209397
H38   H     H_    0.119031 0.296398 0.500504 0.212689
H39   H     H_    0.186217 0.378646 0.425002 0.226686
H40   H     H_    0.881545 0.704380 0.498240 0.204927
H41   H     H_    0.814115 0.623017 0.574089 0.226013
H42   H     H_    0.190592 0.507751 0.745539 0.181973
H43   H     H_    0.211820 0.346321 0.749452 0.192189
H44   H     H_    0.816306 0.567579 0.255534 0.200949
H45   H     H_    0.749107 0.713424 0.265374 0.169970
H46   H     H_    0.226619 0.234997 0.856540 0.254725
N1    N     N_R   0.535759 0.395767 0.963799 -0.181482
N2    N     N_3   0.440834 0.861942 0.625810 -0.447329
N3    N     N_3   0.102167 0.362099 0.463132 -0.492540
N4    N     N_3   0.898217 0.639053 0.535908 -0.490985
N5    N     N_R   0.478331 0.614723 0.036136 -0.186802
N6    N     N_R   0.536145 0.400372 0.032889 -0.179532
N7    N     N_R   0.477692 0.610034 0.967057 -0.184841
N8    N     N_2   0.842710 0.448880 0.471430 -0.206439
N9    N     N_2   0.157290 0.551120 0.528570 -0.203907
N10   N     N_3   0.255364 0.435998 0.730100 -0.432024
N11   N     N_3   0.732300 0.614651 0.276624 -0.437173
N12   N     N_3   0.572232 0.147580 0.612027 -0.449996
O1    O     O_R   0.431050 0.692470 0.505750 -0.616324
O2    O     O_R   0.568950 0.307530 0.494250 -0.621910
O3    O     O_R   0.651120 0.659650 0.487410 -0.613188
O4    O     O_R   0.348880 0.340350 0.512590 -0.606082
O5    O     O_R   0.389930 0.516430 0.611030 -0.581857
O6    O     O_R   0.610070 0.483570 0.388970 -0.570787
O7    O     O_R   0.610000 0.483610 0.592700 -0.643245
O8    O     O_R   0.390000 0.516390 0.407300 -0.630297
Zn1   Zn    Zn3+2 0.353060 0.521920 0.512240 0.918484
Zn2   Zn    Zn3+2 0.646940 0.478080 0.487760 0.914386

loop_
_geom_bond_atom_site_label_1
_geom_bond_atom_site_label_2
_ccdc_geom_bond_type
O5    Zn1   S    
C25   H20   S    
C33   N12   S    
C30   H35   S    
C23   C29   S    
C18   C19   S    
C14   C36   S    
C11   C14   A    
C9    C22   S    
C29   H37   S    
C2    O8    A    
O4    Zn1   S    
O6    Zn2   S    
C34   C35   S    
C34   N4    S    
C11   H1    S    
C18   H4    S    
C21   H7    S    
H39   N3    S    
C7    C17   S    
C16   N5    A    
C31   C33   D    
C19   H46   S    
C12   O4    A    
C20   H9    S    
C29   H36   S    
N1    N6    A    
C2    O6    A    
C8    C16   S    
C26   H19   S    
H34   N8    S    
C25   H21   S    
C26   H18   S    
O1    Zn1   S    
C24   H14   S    
C32   N2    S    
C27   C31   S    
C17   N7    A    
C4    C6    A    
C18   H5    S    
C1    O3    A    
C5    C7    A    
C6    C8    A    
C5    C18   S    
H42   N10   S    
C25   C26   S    
C10   C13   A    
C4    N11   S    
C36   O7    A    
C17   N1    A    
C34   N8    D    
C29   C30   S    
C19   H2    S    
C21   H8    S    
H45   N11   S    
C1    O1    A    
H23   N9    S    
C2    C15   S    
C9    C11   A    
N8    Zn2   S    
H43   N10   S    
C3    C14   A    
C19   H3    S    
C28   H28   S    
C10   C25   S    
H41   N4    S    
C1    C23   S    
O7    Zn2   S    
C13   C15   A    
C12   C31   S    
C22   C24   S    
C26   H17   S    
H40   N4    S    
C30   H33   S    
C22   H16   S    
C24   H13   S    
C7    C9    A    
H26   N2    S    
C24   H11   S    
C12   O2    A    
N9    Zn1   S    
C3    C5    A    
H25   N2    S    
C13   H12   S    
C6    C20   S    
C23   C32   D    
C4    C15   A    
O2    Zn2   S    
C28   H29   S    
H22   N12   S    
C27   H30   S    
C32   C33   S    
C35   N3    S    
C36   O5    A    
H38   N3    S    
O8    Zn1   S    
C20   H10   S    
O3    Zn2   S    
C27   H31   S    
C21   H6    S    
C28   H27   S    
C20   C21   S    
C8    C10   A    
C27   C28   S    
C16   N6    A    
N5    N7    A    
C3    N10   S    
H44   N11   S    
C30   H32   S    
H24   N12   S    
C22   H15   S    
C35   N9    D    
