data_mof_unit_21768.cif
_audit_creation_date              2012-12-10T16:52:03-0500
_audit_creation_method            fapswitch 2.2
_symmetry_space_group_name_H-M    P1
_symmetry_Int_Tables_number       1
_space_group_crystal_system       triclinic
_cell_length_a                    7.77054
_cell_length_b                    8.459641
_cell_length_c                    14.99369
_cell_angle_alpha                 90.303129
_cell_angle_beta                  85.658471
_cell_angle_gamma                 94.635808
_cell_volume                      979.581164281

loop_
_atom_site_label
_atom_site_type_symbol
_atom_type_description
_atom_site_fract_x
_atom_site_fract_y
_atom_site_fract_z
_atom_type_partial_charge
C1    C     C_R   0.547446 0.794534 0.508375 0.902127
C2    C     C_R   0.609256 0.613618 0.810131 0.101997
C3    C     C_R   0.494860 0.507468 0.231748 -0.098327
C4    C     C_R   0.506550 0.494505 0.768335 -0.060963
C5    C     C_R   0.596601 0.627919 0.182903 0.085029
C6    C     C_R   0.408963 0.372314 0.817785 0.088313
C7    C     C_R   0.583231 0.633625 0.090150 0.092210
C8    C     C_R   0.422555 0.367733 0.910351 0.083590
C9    C     C_R   0.503649 0.500960 0.046853 -0.007922
C10   C     C_R   0.503380 0.499857 0.953374 -0.009120
C11   C     C_R   0.422877 0.370049 0.096983 0.045489
C12   C     C_R   0.454916 0.205710 0.515298 0.891752
C13   C     C_R   0.582452 0.631252 0.903153 0.039380
C14   C     C_R   0.638785 0.770692 0.040367 -0.217505
C15   C     C_R   0.360506 0.232444 0.960428 -0.219127
C16   C     C_3   0.241869 0.297153 0.242204 -0.771285
C17   C     C_3   0.757922 0.706670 0.756611 -0.771055
C18   C     C_3   0.711753 0.749767 0.231217 -0.783475
C19   C     C_3   0.297094 0.243291 0.773420 -0.818127
C20   C     C_2   0.653391 0.932230 0.903998 0.911952
C21   C     C_2   0.348910 0.069590 0.096414 0.900079
C22   C     C_2   0.753820 0.022987 0.551012 1.004538
C23   C     C_R   0.632030 0.773794 0.948088 -0.036860
C24   C     C_2   0.279194 0.982299 0.603888 0.964588
C25   C     C_R   0.370818 0.228158 0.052320 -0.029408
C26   C     C_2   0.575689 0.956860 0.535616 -0.321308
C27   C     C_2   0.436980 0.043490 0.548130 -0.282678
C28   C     C_R   0.502123 0.498745 0.672815 0.921602
C29   C     C_R   0.498325 0.502665 0.327269 0.928072
C30   C     C_R   0.392761 0.388813 0.189605 0.087571
H1    H     H_    0.674070 0.881058 0.073186 0.218031
H2    H     H_    0.845496 0.778176 0.798872 0.227509
H3    H     H_    0.798682 0.829572 0.186744 0.239763
H4    H     H_    0.630689 0.822375 0.276759 0.247910
H5    H     H_    0.802567 0.689522 0.270356 0.252154
H6    H     H_    0.354773 0.128367 0.777216 0.284943
H7    H     H_    0.164707 0.233218 0.807539 0.248652
H8    H     H_    0.281400 0.263444 0.702263 0.247132
H9    H     H_    0.762938 0.156922 0.903378 0.349810
H10   H     H_    0.238636 0.845144 0.096912 0.347099
H11   H     H_    0.894492 0.190601 0.618001 0.373189
H12   H     H_    0.312801 0.125139 0.927894 0.219299
H13   H     H_    0.173482 0.831422 0.700744 0.338102
H14   H     H_    0.012971 0.380414 0.433990 0.205254
H15   H     H_    0.987041 0.619528 0.566061 0.204425
H16   H     H_    0.156728 0.381544 0.276250 0.231464
H17   H     H_    0.154901 0.226271 0.199347 0.230979
H18   H     H_    0.289625 0.219003 0.292610 0.257816
H19   H     H_    0.843215 0.623285 0.721785 0.224498
H20   H     H_    0.707758 0.784363 0.706797 0.261622
N1    N     N_2   0.950330 0.457950 0.475660 -0.170722
N2    N     N_2   0.049670 0.542050 0.524340 -0.163334
O1    O     O_R   0.389250 0.738570 0.505970 -0.583078
O2    O     O_R   0.761607 0.054369 0.938234 -0.802634
O3    O     O_2   0.430457 0.043662 0.160705 -0.638813
O4    O     O_R   0.239995 0.947905 0.062251 -0.801965
O5    O     O_2   0.876381 0.990948 0.500076 -0.582040
O6    O     O_R   0.776978 0.129307 0.621864 -0.761562
O7    O     O_2   0.143646 0.042831 0.598914 -0.623305
O8    O     O_R   0.288527 0.860769 0.665931 -0.772687
O9    O     O_R   0.610750 0.261430 0.494030 -0.600421
O10   O     O_R   0.678390 0.711620 0.490370 -0.606197
O11   O     O_R   0.321610 0.288380 0.509630 -0.596479
O12   O     O_R   0.355420 0.513510 0.639950 -0.605382
O13   O     O_R   0.644580 0.486490 0.360050 -0.615292
O14   O     O_R   0.644560 0.486560 0.624350 -0.630800
O15   O     O_R   0.355440 0.513440 0.375650 -0.627197
O16   O     O_2   0.572401 0.957532 0.839502 -0.618367
Zn1   Zn    Zn3+2 0.306940 0.517990 0.510420 0.990085
Zn2   Zn    Zn3+2 0.693060 0.482010 0.489580 0.979409

loop_
_geom_bond_atom_site_label_1
_geom_bond_atom_site_label_2
_ccdc_geom_bond_type
C17   H20   S    
C22   O6    S    
C21   O4    S    
C2    C4    A    
C20   C23   S    
C12   O9    A    
N1    Zn2   S    
C3    C30   A    
C9    C11   A    
C9    C10   A    
N2    Zn1   S    
C15   H12   S    
C28   O14   A    
C24   C27   S    
C14   H1    S    
C24   O8    S    
O1    Zn1   S    
C1    O10   A    
C16   H18   S    
C22   O5    D    
C6    C8    A    
C16   H17   S    
C3    C5    A    
C21   O3    D    
O9    Zn2   S    
C29   O15   A    
O12   Zn1   S    
C2    C17   S    
C6    C19   S    
C18   H4    S    
C13   C23   A    
C26   C27   D    
O14   Zn2   S    
H13   O8    S    
C24   O7    D    
C29   O13   A    
C28   O12   A    
H14   N1    S    
C8    C10   A    
C4    C28   S    
C14   C23   A    
H11   O6    S    
C8    C15   A    
C5    C7    A    
C19   H6    S    
C16   H16   S    
C1    C26   S    
C17   H2    S    
C18   H3    S    
C15   C25   A    
H9    O2    S    
C11   C25   A    
C12   C27   S    
C16   C30   S    
N1    N2    D    
C7    C9    A    
C19   H8    S    
C18   H5    S    
O10   Zn2   S    
C20   O2    S    
C4    C6    A    
C22   C26   S    
C17   H19   S    
C3    C29   S    
C2    C13   A    
C1    O1    A    
C21   C25   S    
C5    C18   S    
C19   H7    S    
H15   N2    S    
H10   O4    S    
O13   Zn2   S    
C12   O11   A    
C20   O16   D    
C7    C14   A    
O11   Zn1   S    
C11   C30   A    
O15   Zn1   S    
C10   C13   A    
