data_mof_unit_28708.cif
_audit_creation_date              2013-03-05T16:01:06-0500
_audit_creation_method            fapswitch 2.2
_symmetry_space_group_name_H-M    P1
_symmetry_Int_Tables_number       1
_space_group_crystal_system       triclinic
_cell_length_a                    8.301272
_cell_length_b                    13.108579
_cell_length_c                    18.71479
_cell_angle_alpha                 99.123329
_cell_angle_beta                  91.549649
_cell_angle_gamma                 99.864269
_cell_volume                      1977.93633527

loop_
_atom_site_label
_atom_site_type_symbol
_atom_site_description
_atom_site_fract_x
_atom_site_fract_y
_atom_site_fract_z
_atom_type_partial_charge
P1    P     P_3+3 0.041040 0.394770 0.336330 0.500600
O1    O     O_2   0.873090 0.425890 0.325140 -0.349464
O2    O     O_3   0.122420 0.434370 0.414380 -0.358539
O3    O     O_3   0.659500 0.627100 0.368810 -0.347362
O4    O     O_2   0.752916 0.526146 0.248159 -0.400553
O5    O     O_3   0.944429 0.263896 0.313672 -0.577045
O6    O     O_3   0.732688 0.714159 0.238534 -0.519481
C1    C     C_3   0.693571 0.863566 0.184007 0.231792
H1    H     H_    0.815861 0.907832 0.203897 0.128130
P2    P     P_3+3 0.672880 0.754030 0.556100 0.443327
P3    P     P_3+3 0.128196 0.818408 0.403035 0.560013
O7    O     O_2   0.848200 0.768190 0.534530 -0.335838
O8    O     O_3   0.081160 0.685950 0.404810 -0.379692
O9    O     O_2   0.005398 0.868834 0.451305 -0.302462
O10   O     O_3   0.706703 0.784092 0.650472 -0.602858
O11   O     O_3   0.073260 0.841221 0.315872 -0.478960
C2    C     C_3   0.173386 0.798293 0.263766 0.663548
H2    H     H_    0.299750 0.804311 0.286791 0.032072
C3    C     C_3   0.182325 0.857167 0.198968 -0.765512
H3    H     H_    0.058184 0.858833 0.176791 0.239572
H4    H     H_    0.248236 0.938519 0.213238 0.311269
C4    C     C_3   0.322277 0.797152 0.668631 0.554618
H5    H     H_    0.384151 0.750265 0.627143 0.076922
C5    C     C_3   0.426757 0.824556 0.740634 -0.077790
H6    H     H_    0.463466 0.752423 0.752891 0.073204
H7    H     H_    0.540171 0.880183 0.734206 0.115031
Ba1   Ba    Ba6+2 0.852780 0.548340 0.465070 1.615917
C6    C     C_3   0.035005 0.192400 0.332259 0.719053
H8    H     H_    0.167727 0.220820 0.334851 -0.048067
C7    C     C_3   0.995798 0.093224 0.274299 -0.209132
H9    H     H_    0.869039 0.054424 0.279630 0.179587
H10   H     H_    0.077190 0.037706 0.283483 0.178047
C8    C     C_3   0.733617 0.694358 0.677831 0.421479
H11   H     H_    0.827248 0.657661 0.647380 0.130455
H12   H     H_    0.618282 0.636488 0.673763 0.119560
C9    C     C_3   0.793268 0.724893 0.757507 -1.037610
H13   H     H_    0.923537 0.762588 0.761808 0.319987
H14   H     H_    0.779142 0.655503 0.784833 0.226980
H15   H     H_    0.722549 0.779664 0.787923 0.255888
P4    P     P_3+3 0.148670 0.605320 0.663680 0.474369
O12   O     O_2   0.316610 0.574140 0.674900 -0.422691
O13   O     O_3   0.067290 0.565720 0.585630 -0.369812
O14   O     O_3   0.530210 0.372990 0.631200 -0.368469
O15   O     O_3   0.165821 0.743090 0.678253 -0.544422
P5    P     P_3+3 0.062429 0.178633 0.600683 0.545829
O16   O     O_3   0.611340 0.366290 0.463630 -0.408037
O17   O     O_3   0.108550 0.314140 0.595200 -0.318426
O18   O     O_2   0.180661 0.126951 0.550523 -0.302630
O19   O     O_3   0.129672 0.156377 0.685701 -0.525336
Ba2   Ba    Ba6+2 0.337060 0.451750 0.534940 1.620422
P6    P     P_3+3 0.637759 0.603198 0.273135 0.441750
C10   C     C_3   0.631941 0.790366 0.239345 0.453919
H16   H     H_    0.503256 0.753170 0.222613 0.023983
O20   O     O_3   0.578370 0.633800 0.536380 -0.412807
C11   C     C_3   0.497837 0.288331 0.319036 0.461318
H17   H     H_    0.393712 0.323889 0.340398 0.012917
H18   H     H_    0.606999 0.349526 0.330853 0.146234
C12   C     C_3   0.473927 0.256104 0.237420 -0.854905
H19   H     H_    0.367798 0.191479 0.224083 0.300672
H20   H     H_    0.451789 0.323258 0.211689 0.183239
H21   H     H_    0.584962 0.228836 0.215566 0.293350
P7    P     P_3+3 0.524891 0.232177 0.444596 0.544110
O21   O     O_2   0.341510 0.231850 0.465510 -0.316282
O22   O     O_3   0.517320 0.200103 0.350063 -0.474996
H22   H     H_    0.247787 0.817077 0.155016 0.229258
C13   C     C_3   0.017192 0.179458 0.738319 0.668135
H23   H     H_    0.893846 0.179657 0.714102 -0.046764
C14   C     C_3   0.995248 0.096159 0.789019 -0.033932
H24   H     H_    0.914615 0.120165 0.832574 0.170601
P8    P     P_3+3 0.546341 0.389811 0.724800 0.451242
C15   C     C_3   0.538632 0.192029 0.729097 0.430413
H25   H     H_    0.641002 0.211860 0.693797 0.014310
O23   O     O_2   0.433087 0.467027 0.751933 -0.397287
O24   O     O_3   0.449960 0.272791 0.749800 -0.495843
H26   H     H_    0.453305 0.124639 0.697510 0.117447
H27   H     H_    0.711619 0.214394 0.820732 0.238211
C16   C     C_3   0.600881 0.158536 0.797222 -1.024940
H28   H     H_    0.629273 0.078641 0.784288 0.256067
H29   H     H_    0.507681 0.158137 0.838555 0.301780
C17   C     C_R   0.990904 0.437623 0.045425 0.001082
C18   C     C_R   0.886230 0.390578 0.093622 0.090888
C19   C     C_R   0.721589 0.350742 0.071254 -0.118997
C20   C     C_R   0.660973 0.358496 0.002233 -0.171655
C21   C     C_R   0.763612 0.406695 0.954205 0.110605
C22   C     C_R   0.929033 0.446694 0.975733 0.017781
C23   C     C_R   0.703754 0.413215 0.884586 -0.256995
C24   C     C_R   0.808269 0.455341 0.834140 -0.027730
C25   C     C_R   0.972021 0.501925 0.856908 0.009715
C26   C     C_R   0.032439 0.495463 0.927667 -0.009048
C27   C     C_R   0.757537 0.445995 0.760424 0.180668
C28   C     C_R   0.867114 0.484723 0.711045 -0.520961
C29   C     C_R   0.023504 0.541859 0.733498 0.263244
C30   C     C_R   0.078445 0.548678 0.807796 -0.046454
C31   C     C_R   0.157027 0.475501 0.066808 -0.012504
C32   C     C_R   0.216852 0.472745 0.138166 0.016637
C33   C     C_R   0.107961 0.432693 0.188821 -0.036217
C34   C     C_R   0.945955 0.386332 0.163918 -0.052338
H30   H     H_    0.638974 0.314293 0.107325 0.149092
H31   H     H_    0.533274 0.327136 0.986521 0.145970
H32   H     H_    0.826144 0.475789 0.654687 0.172205
H33   H     H_    0.576271 0.381488 0.869687 0.189234
H34   H     H_    0.862186 0.350097 0.199365 0.189678
C35   C     C_R   0.239809 0.593282 0.833596 -0.037721
C36   C     C_R   0.302855 0.580110 0.901126 0.102702
C37   C     C_R   0.198748 0.532091 0.948870 -0.000466
C38   C     C_R   0.261644 0.520596 0.017752 0.029825
C39   C     C_R   0.470702 0.610622 0.920395 -0.113768
C40   C     C_R   0.533876 0.595195 0.987007 -0.223433
C41   C     C_R   0.429398 0.554646 0.037473 0.128023
C42   C     C_R   0.382142 0.518500 0.160352 -0.024759
C43   C     C_R   0.488986 0.551733 0.107991 -0.270559
C44   C     C_R   0.431422 0.535800 0.235054 0.172792
C45   C     C_R   0.321335 0.500526 0.284672 -0.504471
C46   C     C_R   0.163113 0.446350 0.263205 0.182175
H35   H     H_    0.322068 0.632809 0.800077 0.155239
H36   H     H_    0.553770 0.644839 0.883400 0.136124
H37   H     H_    0.664399 0.617949 0.999846 0.152951
H38   H     H_    0.617732 0.579531 0.122301 0.181320
H39   H     H_    0.361571 0.513275 0.341387 0.173285
C47   C     C_R   0.749786 0.180304 0.540352 -0.329491
C48   C     C_R   0.425267 0.808989 0.476154 -0.514188
C49   C     C_R   0.407038 0.976421 0.442335 0.257185
C50   C     C_R   0.338849 0.872011 0.442851 0.080698
C51   C     C_R   0.577689 0.849644 0.512431 0.257520
C52   C     C_R   0.641683 0.960424 0.519320 -0.037517
C53   C     C_R   0.552907 0.025749 0.484207 -0.163820
C54   C     C_R   0.611701 0.137388 0.494012 0.278608
C55   C     C_R   0.848198 0.116734 0.566987 0.217647
C56   C     C_R   0.792133 0.007621 0.558367 -0.181298
H40   H     H_    0.868594 0.960636 0.581040 0.172031
H41   H     H_    0.791697 0.264422 0.548964 0.154756
H42   H     H_    0.371610 0.727376 0.474799 0.191291
C57   C     C_3   0.644992 0.853292 0.316207 -0.851622
H43   H     H_    0.580836 0.920176 0.319320 0.259764
H44   H     H_    0.588918 0.802782 0.354007 0.227414
H45   H     H_    0.774996 0.883347 0.334593 0.302811
N1    N     N_R   0.342477 0.870248 0.802024 0.256978
O25   O     O_R   0.422897 0.948381 0.848002 -0.404795
O26   O     O_R   0.207083 0.818646 0.821246 -0.403018
N2    N     N_R   0.983112 0.171257 0.402576 0.240691
O27   O     O_R   0.884693 0.085011 0.409192 -0.435055
O28   O     O_R   0.009825 0.248370 0.456495 -0.354422
N3    N     N_R   0.009929 0.117144 0.200789 0.245793
O29   O     O_R   0.892432 0.152978 0.171143 -0.352105
O30   O     O_R   0.117279 0.080404 0.159485 -0.384462
N4    N     N_R   0.583501 0.938508 0.175531 0.247916
O31   O     O_R   0.498284 0.931700 0.114942 -0.346989
O32   O     O_R   0.593534 0.023676 0.222811 -0.351837
C58   C     C_3   0.718877 0.801551 0.109966 -0.911837
H46   H     H_    0.802471 0.744969 0.114343 0.232889
H47   H     H_    0.598525 0.759772 0.085428 0.264238
H48   H     H_    0.773669 0.856137 0.073844 0.290079
C59   C     C_3   0.076744 0.288518 0.781443 -0.904967
H49   H     H_    0.081477 0.346728 0.744474 0.255018
H50   H     H_    0.991512 0.303898 0.824493 0.185146
H51   H     H_    0.199866 0.296811 0.807896 0.285626
C60   C     C_3   0.155483 0.085265 0.827227 -0.633856
H52   H     H_    0.132295 0.021117 0.859959 0.281496
H53   H     H_    0.207297 0.158116 0.865236 0.202264
H54   H     H_    0.246132 0.067332 0.787051 0.262789
C61   C     C_3   0.909973 0.989660 0.747826 -0.820391
H55   H     H_    0.868601 0.938925 0.787977 0.269593
H56   H     H_    0.801434 0.997282 0.714611 0.204969
H57   H     H_    0.992775 0.951821 0.711210 0.283312
C62   C     C_3   0.102593 0.684201 0.234265 -0.846691
H58   H     H_    0.076637 0.636876 0.277534 0.275863
H59   H     H_    0.990325 0.675838 0.199127 0.278644
H60   H     H_    0.194230 0.653819 0.199921 0.171389
N5    N     N_R   0.326529 0.028405 0.395693 0.237440
O33   O     O_R   0.361028 0.017273 0.328197 -0.428758
O34   O     O_R   0.182959 0.046276 0.411942 -0.348406
C63   C     C_3   0.303528 0.897752 0.640166 -0.988016
H61   H     H_    0.222716 0.878848 0.589880 0.272237
H62   H     H_    0.249388 0.950671 0.680708 0.265047
H63   H     H_    0.424575 0.940494 0.628664 0.192557

loop_
_geom_bond_atom_site_label_1
_geom_bond_atom_site_label_2
_geom_bond_distance
_ccdc_geom_bond_type
P2    Ba1   3.530319 S    
C1    H1    1.102301 S    
C21   C23   1.402356 A    
C13   C14   1.547769 S    
C11   H17   1.105383 S    
C60   H52   1.110703 S    
C10   C57   1.531649 S    
C47   H41   1.082626 S    
N5    O34   1.288587 A    
N5    O33   1.293979 A    
C32   C33   1.425850 A    
C6    N2    1.448993 S    
C24   C25   1.415640 A    
C55   C56   1.408225 A    
C30   C35   1.405866 A    
C18   C19   1.403954 A    
C47   C54   1.397534 A    
C14   C61   1.528059 S    
C63   H61   1.109971 S    
N1    O26   1.299524 A    
C62   H58   1.099966 S    
O16   P7    1.757233 S    
C43   H38   1.080222 S    
C9    H13   1.104377 S    
C3    H4    1.099908 S    
C5    H7    1.109638 S    
O6    C10   1.407025 S    
C56   H40   1.079132 S    
P2    C51   1.868822 S    
P2    O10   1.751567 S    
C58   H47   1.103151 S    
P7    C54   1.885130 S    
P3    O9    1.543845 D    
P5    C55   1.871197 S    
C12   H20   1.107093 S    
N3    O29   1.300069 A    
C8    C9    1.527011 S    
C40   C41   1.404393 A    
P1    O1    1.536304 D    
C42   C43   1.409507 A    
C44   C45   1.395882 A    
C48   C51   1.397743 A    
P7    O22   1.749202 S    
C41   C43   1.405327 A    
C8    H12   1.107613 S    
C45   H39   1.082364 S    
O5    C6    1.376733 S    
P7    O21   1.581489 D    
C3    H3    1.105522 S    
C14   H24   1.109873 S    
P8    O24   1.743385 S    
C57   H45   1.108845 S    
C39   C40   1.396751 A    
C5    H6    1.096946 S    
O1    Ba1   2.871656 S    
C28   H32   1.081489 S    
C59   H50   1.103890 S    
C1    C10   1.559049 S    
C34   H34   1.077480 S    
C63   H63   1.107694 S    
C12   H21   1.109744 S    
P4    O13   1.563800 S    
C13   H23   1.109061 S    
C60   H53   1.109168 S    
C20   H31   1.083837 S    
C11   O22   1.404610 S    
O14   P8    1.729088 S    
Ba2   O21   2.974940 S    
C19   H30   1.081367 S    
C33   C46   1.427563 A    
P8    C27   1.843713 S    
C36   C37   1.405430 A    
C61   H56   1.108365 S    
O2    Ba2   2.792458 S    
C63   H62   1.103285 S    
C61   H55   1.104106 S    
O17   Ba2   2.777143 S    
N4    O32   1.298919 A    
H27   C16   1.104586 S    
P5    O17   1.771805 S    
C4    O15   1.399734 S    
Ba1   O20   2.964750 S    
O19   C13   1.408949 S    
O7    Ba1   2.974713 S    
P1    O5    1.745183 S    
C7    H10   1.103424 S    
N2    O27   1.301681 A    
C45   C46   1.397241 A    
C58   H48   1.111042 S    
O4    P6    1.535512 D    
C28   C29   1.400174 A    
C22   C26   1.410971 A    
C23   C24   1.412250 A    
O11   C2    1.410153 S    
O3    P6    1.766929 S    
C12   H19   1.105199 S    
C16   H28   1.103750 S    
P4    C29   1.897601 S    
C7    N3    1.462067 S    
P1    O2    1.563800 S    
C49   C53   1.420620 A    
C35   H35   1.064559 S    
C17   C22   1.418782 A    
C13   C59   1.519846 S    
C57   H43   1.095992 S    
P3    O11   1.766223 S    
C20   C21   1.403622 A    
P6    C44   1.854228 S    
P5    O19   1.755901 S    
C49   N5    1.409285 S    
C33   C34   1.411176 A    
P8    O23   1.534647 D    
C2    H2    1.108461 S    
C16   H29   1.108701 S    
Ba2   O20   2.836760 S    
C21   C22   1.406882 A    
C59   H51   1.104091 S    
P2    O7    1.509474 D    
O13   Ba2   2.993123 S    
Ba1   O16   2.837368 S    
P4    O12   1.536660 D    
C60   H54   1.105454 S    
C11   H18   1.094261 S    
C52   C53   1.441069 A    
C4    C5    1.540666 S    
C24   C27   1.411704 A    
P1    C46   1.868319 S    
C48   H42   1.082172 S    
C17   C31   1.407467 A    
C14   C60   1.532002 S    
O12   Ba2   2.871994 S    
C15   C16   1.518183 S    
O3    Ba1   2.808315 S    
C10   H16   1.109943 S    
C61   H57   1.105710 S    
C57   H44   1.102839 S    
N4    O31   1.302705 A    
N1    O25   1.300103 A    
P5    O18   1.542557 D    
P3    C50   1.857247 S    
N3    O30   1.299937 A    
C25   C30   1.427553 A    
C6    H8    1.098073 S    
C40   H37   1.083122 S    
C9    H15   1.103188 S    
C1    N4    1.474546 S    
N2    O28   1.294932 A    
C17   C18   1.408590 A    
C32   C42   1.422347 A    
C15   O24   1.401817 S    
C47   C55   1.397586 A    
O14   Ba2   2.807651 S    
C5    N1    1.461850 S    
C62   H60   1.095206 S    
C37   C38   1.417479 A    
O16   Ba2   2.963838 S    
Ba1   Ba2   4.632413 S    
O2    Ba1   2.992215 S    
C1    C58   1.530378 S    
C49   C50   1.390244 A    
O6    P6    1.757716 S    
C15   H25   1.111462 S    
C2    C62   1.518683 S    
C58   H46   1.109468 S    
C9    H14   1.103124 S    
C15   H26   1.108563 S    
P3    O8    1.719045 S    
Ba1   O13   2.791808 S    
C27   C28   1.405413 A    
C7    H9    1.101949 S    
C18   C34   1.406074 A    
C53   C54   1.441796 A    
P4    Ba2   3.470951 S    
C6    C7    1.536686 S    
C29   C30   1.435870 A    
C2    C3    1.534192 S    
C8    H11   1.106991 S    
C3    H22   1.110409 S    
C31   C32   1.420184 A    
P2    O20   1.616130 S    
C42   C44   1.417754 A    
C39   H36   1.083676 S    
C48   C50   1.388428 A    
C31   C38   1.409196 A    
C52   C56   1.420961 A    
P4    O15   1.763460 S    
C25   C26   1.423561 A    
C62   H59   1.105441 S    
C19   C20   1.398592 A    
C11   C12   1.516944 S    
C26   C37   1.405998 A    
C35   C36   1.401889 A    
P1    Ba1   3.470338 S    
C4    H5    1.105817 S    
O8    Ba1   2.776512 S    
C59   H49   1.105033 S    
C23   H33   1.080330 S    
O10   C8    1.403766 S    
C36   C39   1.402705 A    
C4    C63   1.528298 S    
C51   C52   1.442297 A    
C38   C41   1.407732 A    
