data_mof_unit_16423.cif
_audit_creation_date              2013-03-05T16:48:40-0500
_audit_creation_method            fapswitch 2.2
_symmetry_space_group_name_H-M    P1
_symmetry_Int_Tables_number       1
_space_group_crystal_system       triclinic
_cell_length_a                    27.689701
_cell_length_b                    8.989354
_cell_length_c                    8.091563
_cell_angle_alpha                 90.003069
_cell_angle_beta                  89.994296
_cell_angle_gamma                 91.568213
_cell_volume                      2013.33698612

loop_
_atom_site_label
_atom_site_type_symbol
_atom_site_description
_atom_site_fract_x
_atom_site_fract_y
_atom_site_fract_z
_atom_type_partial_charge
O1    O     O_R   0.500000 0.285350 0.636850 -0.586319
O2    O     O_R   0.500000 0.714650 0.363150 -0.629030
O3    O     O_R   0.500000 0.714650 0.636850 -0.586223
O4    O     O_R   0.500000 0.285350 0.363150 -0.628978
C1    C     C_R   0.499971 0.217834 0.499995 0.965801
C2    C     C_R   0.500028 0.782166 0.500000 0.965660
O5    O     O_R   0.428760 0.500000 0.636860 -0.590224
O6    O     O_R   0.571240 0.500000 0.363140 -0.638197
O7    O     O_R   0.571240 0.500000 0.636860 -0.590078
O8    O     O_R   0.428760 0.500000 0.363140 -0.638412
C3    C     C_R   0.405552 0.493714 0.500277 0.901294
C4    C     C_R   0.594448 0.506367 0.500258 0.901321
Zn1   Zn    Zn3+2 0.500000 0.500000 0.682780 1.067344
Zn2   Zn    Zn3+2 0.500000 0.500000 0.317220 1.012912
C5    C     C_R   0.172722 0.335555 0.587597 0.560516
C6    C     C_R   0.827264 0.665292 0.587036 0.560533
C7    C     C_R   0.180318 0.599265 0.558624 0.534116
C8    C     C_R   0.819697 0.401579 0.557965 0.534104
O9    O     O_2   0.193257 0.201418 0.579287 -0.543273
O10   O     O_2   0.806717 0.799409 0.578714 -0.543224
O11   O     O_2   0.209705 0.721240 0.553861 -0.570902
O12   O     O_2   0.790323 0.279577 0.553078 -0.571003
N1    N     N_R   0.200272 0.461835 0.561181 -0.325616
N2    N     N_R   0.799729 0.538989 0.560583 -0.325623
C9    C     C_R   0.272249 0.509756 0.389454 0.097922
C10   C     C_R   0.727736 0.491033 0.389002 0.097789
C11   C     C_R   0.280565 0.394486 0.660343 0.046062
C12   C     C_R   0.719434 0.606134 0.660000 0.045790
C13   C     C_R   0.322941 0.526625 0.375798 -0.106439
C14   C     C_R   0.677051 0.474077 0.375469 -0.106270
C15   C     C_R   0.330855 0.393242 0.639673 -0.061990
C16   C     C_R   0.669130 0.607079 0.639572 -0.061862
C17   C     C_R   0.251498 0.452163 0.535482 0.298615
C18   C     C_R   0.748496 0.548598 0.535014 0.298693
C19   C     C_R   0.101204 0.483831 0.595840 -0.113646
C20   C     C_R   0.898793 0.517065 0.595404 -0.113670
C21   C     C_R   0.122998 0.345098 0.618019 -0.053301
C22   C     C_R   0.876985 0.655787 0.617534 -0.053306
C23   C     C_R   0.129876 0.612978 0.562818 -0.063212
C24   C     C_R   0.870139 0.387907 0.562260 -0.063202
C25   C     C_R   0.094315 0.220605 0.667762 0.163270
C26   C     C_R   0.905647 0.780298 0.667361 0.163236
C27   C     C_R   0.106880 0.749284 0.531737 0.117832
C28   C     C_R   0.893151 0.251616 0.531220 0.117896
C29   C     C_R   0.352476 0.470779 0.503895 -0.186982
C30   C     C_R   0.647518 0.529541 0.503789 -0.186863
C31   C     C_R   0.971346 0.368578 0.595833 0.015862
C32   C     C_R   0.028653 0.632335 0.595980 0.015858
C33   C     C_R   0.978268 0.639791 0.618235 0.032738
C34   C     C_R   0.021719 0.361122 0.618332 0.032738
C35   C     C_R   0.949487 0.508252 0.604197 0.080582
C36   C     C_R   0.050507 0.492657 0.604432 0.080578
C37   C     C_R   0.942775 0.242193 0.555273 -0.209007
C38   C     C_R   0.057246 0.758718 0.555581 -0.208968
C39   C     C_R   0.955949 0.773519 0.658101 -0.257207
C40   C     C_R   0.044018 0.227395 0.658308 -0.257231
H1    H     H_    0.959088 0.136600 0.529735 0.156083
H2    H     H_    0.040948 0.864319 0.529994 0.156076
H3    H     H_    0.977439 0.871241 0.691370 0.126418
H4    H     H_    0.022512 0.129681 0.691495 0.126425
C41   C     C_1   0.499990 0.065055 0.500006 -0.144114
C42   C     C_1   0.500009 0.934944 0.500014 -0.144069
N3    N     N_1   0.500000 0.500000 0.073640 -0.024330
N4    N     N_1   0.500000 0.500000 0.926360 -0.015695
C43   C     C_2   0.359569 0.305409 0.758638 0.466960
H5    H     H_    0.350953 0.305653 0.889396 0.078337
O13   O     O_2   0.391731 0.226064 0.710084 -0.564555
C44   C     C_2   0.640401 0.694674 0.758740 0.466892
H6    H     H_    0.649052 0.694380 0.889465 0.079209
O14   O     O_2   0.608189 0.773914 0.710388 -0.564676
C45   C     C_2   0.344521 0.612559 0.235537 0.435861
H7    H     H_    0.374341 0.690868 0.257290 0.088868
O15   O     O_2   0.329789 0.595767 0.094416 -0.606897
C46   C     C_2   0.655489 0.388504 0.234949 0.436109
H8    H     H_    0.625872 0.309418 0.256636 0.088633
O16   O     O_2   0.669991 0.406562 0.093738 -0.607423
N5    N     N_3   0.258182 0.337950 0.808432 -0.438907
H9    H     H_    0.266315 0.225686 0.821616 0.214896
H10   H     H_    0.272528 0.397018 0.908838 0.200251
N6    N     N_3   0.741839 0.662845 0.807969 -0.438911
H11   H     H_    0.733630 0.775058 0.821171 0.214816
H12   H     H_    0.727559 0.603722 0.908451 0.200386
N7    N     N_3   0.240611 0.559186 0.261276 -0.435176
H13   H     H_    0.248305 0.671319 0.235579 0.240221
H14   H     H_    0.246163 0.495555 0.155559 0.218297
N8    N     N_3   0.759357 0.441704 0.260698 -0.435169
H15   H     H_    0.751632 0.329623 0.234798 0.239623
H16   H     H_    0.753804 0.505467 0.155096 0.218158
N9    N     N_3   0.116066 0.091627 0.737505 -0.404807
H17   H     H_    0.089735 0.011499 0.770524 0.173382
H18   H     H_    0.133046 0.124759 0.847433 0.203249
N10   N     N_3   0.883868 0.909285 0.737009 -0.404806
H19   H     H_    0.910185 0.989437 0.770086 0.173374
H20   H     H_    0.866857 0.876178 0.846895 0.203277
N11   N     N_3   0.131635 0.876059 0.460684 -0.419925
H21   H     H_    0.149025 0.842979 0.352567 0.216153
H22   H     H_    0.157149 0.918581 0.544015 0.296319
N12   N     N_3   0.868431 0.124843 0.460024 -0.420028
H23   H     H_    0.851077 0.157943 0.351860 0.216117
H24   H     H_    0.842890 0.082271 0.543241 0.296294

loop_
_geom_bond_atom_site_label_1
_geom_bond_atom_site_label_2
_geom_bond_distance
_ccdc_geom_bond_type
C25   N9    1.436617 S    
C39   H3    1.081495 S    
N11   H21   1.045632 S    
O3    C2    1.262767 A    
N5    H9    1.045470 S    
C11   C17   1.400158 A    
C32   C38   1.405413 A    
C7    N1    1.367225 A    
C46   O16   1.220466 D    
C8    N2    1.367235 A    
C19   C21   1.411710 A    
C22   C26   1.413007 A    
C32   C36   1.410327 A    
C14   C46   1.488607 S    
N8    H16   1.042704 S    
C43   O13   1.221028 D    
N12   H23   1.045650 S    
C7    C23   1.405901 A    
C8    C24   1.405893 A    
C5    C21   1.403594 A    
C20   C24   1.413890 A    
O7    Zn1   2.007265 S    
C5    O9    1.348821 S    
C28   N12   1.434027 S    
C28   C37   1.392668 A    
C10   C18   1.406373 A    
C44   H6    1.084593 S    
N1    C17   1.438552 S    
C27   N11   1.434015 S    
N9    H18   1.045630 S    
O3    Zn1   1.965048 S    
C6    O10   1.348827 S    
C31   C37   1.405404 A    
C5    N1    1.367053 A    
C12   C18   1.400158 A    
C6    N2    1.367053 A    
O4    Zn2   1.965049 S    
O2    C2    1.262715 A    
O2    Zn2   1.965009 S    
O5    C3    1.278946 A    
C31   C34   1.410071 A    
N5    H10   1.043203 S    
C9    C13   1.411980 A    
C46   H8    1.084816 S    
C11   C15   1.402857 A    
C12   C16   1.402938 A    
N6    H12   1.043239 S    
O8    Zn2   2.007267 S    
C45   O15   1.220565 D    
C37   H1    1.082209 S    
N8    H15   1.045463 S    
O4    C1    1.262733 A    
C23   C27   1.418756 A    
C10   N8    1.436010 S    
C33   C35   1.412308 A    
C33   C39   1.404171 A    
C34   C40   1.404162 A    
C40   H4    1.081488 S    
C13   C29   1.420520 A    
C19   C23   1.413888 A    
C25   C40   1.397832 A    
C26   C39   1.397861 A    
C27   C38   1.392677 A    
C34   C36   1.412297 A    
N7    H13   1.045453 S    
O5    Zn1   2.007340 S    
O6    C4    1.282719 A    
N10   H20   1.045604 S    
C1    C41   1.373393 S    
C20   C35   1.409897 A    
C4    C30   1.478797 S    
C32   C33   1.410113 A    
N7    H14   1.042731 S    
C10   C14   1.411799 A    
N12   H24   1.041694 S    
O1    C1    1.262748 A    
C3    C29   1.478752 S    
O1    Zn1   1.965010 S    
C38   H2    1.082195 S    
C15   C43   1.488876 S    
O6    Zn2   2.007337 S    
C8    O12   1.347986 S    
C16   C30   1.424188 A    
C14   C30   1.420389 A    
N6    H11   1.045518 S    
C11   N5    1.435607 S    
C31   C35   1.410322 A    
N11   H22   1.041711 S    
C16   C44   1.488867 S    
C2    C42   1.373392 S    
C20   C22   1.411721 A    
C45   H7    1.084677 S    
Zn1   N4    1.970943 S    
Zn2   N3    1.970943 S    
N10   H19   1.045499 S    
C26   N10   1.436619 S    
C21   C25   1.412985 A    
C41   C42   1.169629 T    
C12   N6    1.435635 S    
O7    C4    1.279006 A    
N2    C18   1.438577 S    
O8    C3    1.282714 A    
N3    N4    1.191725 T    
C24   C28   1.418744 A    
C44   O14   1.221016 D    
C43   H5    1.084583 S    
C15   C29   1.424208 A    
C9    C17   1.406424 A    
C19   C36   1.409883 A    
C9    N7    1.436029 S    
N9    H17   1.045497 S    
C6    C22   1.403618 A    
C13   C45   1.488816 S    
C7    O11   1.347981 S    
