data_mof_unit_24970.cif
_audit_creation_date              2012-12-10T17:17:53-0500
_audit_creation_method            fapswitch 2.2
_symmetry_space_group_name_H-M    P1
_symmetry_Int_Tables_number       1
_space_group_crystal_system       triclinic
_cell_length_a                    14.811159
_cell_length_b                    15.848607
_cell_length_c                    9.682499
_cell_angle_alpha                 90.362604
_cell_angle_beta                  91.698575
_cell_angle_gamma                 89.999427
_cell_volume                      2271.78917231

loop_
_atom_site_label
_atom_site_type_symbol
_atom_type_description
_atom_site_fract_x
_atom_site_fract_y
_atom_site_fract_z
_atom_type_partial_charge
C1    C     C_R   0.386147 0.877503 0.498827 0.822827
C2    C     C_R   0.386912 0.123208 0.500224 0.829440
C3    C     C_R   0.885798 0.377599 0.499073 0.824449
C4    C     C_R   0.885807 0.622335 0.499417 0.822139
C5    C     C_R   0.286759 0.224242 0.379334 -0.101333
C6    C     C_R   0.267428 0.792379 0.382903 -0.091295
C7    C     C_R   0.767108 0.706474 0.382714 -0.090405
C8    C     C_R   0.766604 0.292949 0.382742 -0.089080
C9    C     C_R   0.696823 0.763901 0.387510 -0.134357
C10   C     C_R   0.696060 0.235805 0.387875 -0.140210
C11   C     C_R   0.219943 0.285036 0.381030 -0.143643
C12   C     C_R   0.198027 0.734206 0.388245 -0.131069
C13   C     C_R   0.678334 0.806445 0.509769 -0.108267
C14   C     C_R   0.677602 0.194131 0.510153 -0.106540
C15   C     C_R   0.182259 0.310031 0.505422 -0.093478
C16   C     C_R   0.181165 0.691469 0.510645 -0.103902
C17   C     C_R   0.666017 0.000471 0.149607 -0.018439
C18   C     C_R   0.165778 0.492541 0.149364 -0.047610
C19   C     C_R   0.747066 0.001300 0.080808 -0.038290
C20   C     C_R   0.246273 0.483581 0.080514 -0.077786
C21   C     C_R   0.746642 0.001541 0.938202 -0.152209
C22   C     C_R   0.245917 0.484168 0.937915 -0.153086
C23   C     C_R   0.665200 0.000992 0.863384 -0.131936
C24   C     C_R   0.165001 0.493031 0.863315 -0.127330
C25   C     C_R   0.581234 0.000485 0.928824 0.162571
C26   C     C_R   0.081134 0.496688 0.928767 0.164756
C27   C     C_R   0.581354 0.000328 0.077763 0.177129
C28   C     C_R   0.081247 0.496602 0.077676 0.185685
C29   C     C_R   0.422156 0.999598 0.071135 0.477161
C30   C     C_R   0.922172 0.501391 0.071126 0.474218
C31   C     C_R   0.614767 0.122349 0.502606 0.762538
C32   C     C_R   0.615041 0.877849 0.502252 0.763431
C33   C     C_R   0.116171 0.621361 0.502822 0.761878
C34   C     C_R   0.116037 0.378734 0.501439 0.760603
C35   C     C_R   0.421699 0.999389 0.923576 0.235396
C36   C     C_R   0.921719 0.501474 0.923575 0.238378
C37   C     C_R   0.350501 0.225998 0.754566 -0.245772
C38   C     C_R   0.378199 0.757747 0.729863 -0.261937
C39   C     C_R   0.869918 0.739071 0.736982 -0.258325
C40   C     C_R   0.868710 0.262984 0.737776 -0.257340
C41   C     C_R   0.310056 0.240895 0.880323 0.369558
C42   C     C_R   0.354133 0.733095 0.861305 0.384722
C43   C     C_R   0.841192 0.761029 0.867899 0.379665
C44   C     C_R   0.839548 0.242034 0.868522 0.386746
C45   C     C_R   0.751840 0.786357 0.883412 0.387381
C46   C     C_R   0.750252 0.216607 0.883416 0.376871
C47   C     C_R   0.218315 0.261816 0.881275 0.390724
C48   C     C_R   0.266131 0.705529 0.881810 0.383402
C49   C     C_R   0.696075 0.800414 0.767376 -0.267705
C50   C     C_R   0.694811 0.201942 0.767132 -0.272430
C51   C     C_R   0.172810 0.281514 0.757779 -0.258724
C52   C     C_R   0.206956 0.692588 0.768606 -0.279969
C53   C     C_R   0.727134 0.784619 0.633159 0.033450
C54   C     C_R   0.726222 0.216898 0.633291 0.034722
C55   C     C_R   0.217043 0.275947 0.631031 0.026433
C56   C     C_R   0.233138 0.711698 0.632821 0.037010
C57   C     C_R   0.299850 0.232814 0.629350 0.038767
C58   C     C_R   0.313777 0.757462 0.619074 0.039559
C59   C     C_R   0.808690 0.739976 0.622050 0.037705
C60   C     C_R   0.807893 0.261287 0.622298 0.038523
C61   C     C_R   0.327097 0.196754 0.502955 -0.118361
C62   C     C_R   0.325256 0.805055 0.497850 -0.103366
C63   C     C_R   0.823554 0.693857 0.499305 -0.104854
C64   C     C_R   0.823249 0.306200 0.499091 -0.102732
Cu1   Cu    Cu3+1 0.499990 0.000000 0.640660 0.963034
Cu2   Cu    Cu3+1 0.999990 0.500000 0.640660 0.965044
Cu3   Cu    Cu3+1 0.500010 0.000000 0.359340 1.045679
Cu4   Cu    Cu3+1 0.000010 0.500000 0.359340 1.048378
H1    H     H_    0.306821 0.198836 0.281452 0.256738
H2    H     H_    0.274813 0.828374 0.289216 0.234545
H3    H     H_    0.776178 0.671011 0.288204 0.240671
H4    H     H_    0.775740 0.327718 0.288255 0.240078
H5    H     H_    0.809883 0.001967 0.884900 0.162815
H6    H     H_    0.309018 0.480103 0.884587 0.162423
H7    H     H_    0.671484 0.000807 0.754323 0.201943
H8    H     H_    0.171608 0.498007 0.754622 0.198506
H9    H     H_    0.421356 0.209370 0.756123 0.198780
H10   H     H_    0.446640 0.779407 0.716335 0.189069
H11   H     H_    0.939269 0.719030 0.727077 0.194341
H12   H     H_    0.938091 0.282683 0.728433 0.188427
H13   H     H_    0.626829 0.816941 0.785852 0.222204
H14   H     H_    0.625511 0.185430 0.785021 0.216894
H15   H     H_    0.102039 0.296988 0.762610 0.209041
H16   H     H_    0.139012 0.674417 0.791661 0.221915
H17   H     H_    0.653801 0.773024 0.297205 0.239207
H18   H     H_    0.652879 0.226052 0.297775 0.235196
H19   H     H_    0.196485 0.311704 0.284734 0.231639
H20   H     H_    0.154972 0.724556 0.297461 0.232197
H21   H     H_    0.673717 0.999709 0.259035 0.180560
H22   H     H_    0.173789 0.497270 0.258592 0.179062
H23   H     H_    0.810697 0.001482 0.138833 0.174335
H24   H     H_    0.309723 0.479147 0.138492 0.171278
N1    N     N_R   0.501200 0.000000 0.147910 -0.243934
N2    N     N_R   0.001200 0.500000 0.147910 -0.239221
N3    N     N_R   0.501270 0.000000 0.852040 -0.258874
N4    N     N_R   0.001270 0.500000 0.852040 -0.256681
O1    O     O_R   0.409820 0.909830 0.618810 -0.567532
O2    O     O_R   0.409820 0.090170 0.618810 -0.574243
O3    O     O_R   0.909820 0.409830 0.618810 -0.571476
O4    O     O_R   0.909820 0.590170 0.618810 -0.568703
O5    O     O_R   0.409840 0.909830 0.381240 -0.525637
O6    O     O_R   0.409840 0.090170 0.381240 -0.521004
O7    O     O_R   0.909840 0.409830 0.381240 -0.518595
O8    O     O_R   0.909840 0.590170 0.381240 -0.524967
O9    O     O_R   0.590170 0.090170 0.618760 -0.621797
O10   O     O_R   0.590170 0.909830 0.618760 -0.622670
O11   O     O_R   0.090170 0.590170 0.618760 -0.622712
O12   O     O_R   0.090170 0.409830 0.618760 -0.620393
O13   O     O_R   0.590190 0.090180 0.381190 -0.588969
O14   O     O_R   0.590190 0.909820 0.381190 -0.584814
O15   O     O_R   0.090190 0.590180 0.381190 -0.584585
O16   O     O_R   0.090190 0.409820 0.381190 -0.590052
I1    I     I_    0.291707 0.997854 0.820154 -0.157322
I2    I     I_    0.791784 0.502191 0.820075 -0.169168
Cl1   Cl    Cl    0.375425 0.229074 0.032903 -0.606904
Cl2   Cl    Cl    0.433052 0.744370 0.999712 -0.536430
Cl3   Cl    Cl    0.915907 0.749158 0.011199 -0.554089
Cl4   Cl    Cl    0.913527 0.255142 0.012524 -0.513810
Cl5   Cl    Cl    0.706625 0.798255 0.046409 -0.608447
Cl6   Cl    Cl    0.704732 0.204782 0.045907 -0.627354
Cl7   Cl    Cl    0.157464 0.262624 0.033083 -0.556952
Cl8   Cl    Cl    0.227230 0.689814 0.048425 -0.612810
Cl9   Cl    Cl    0.318943 0.999696 0.157116 -0.510523
Cl10  Cl    Cl    0.818952 0.501324 0.156982 -0.539389

loop_
_geom_bond_atom_site_label_1
_geom_bond_atom_site_label_2
_ccdc_geom_bond_type
C58   C62   A    
Cu2   Cu4   S    
C18   C28   A    
C6    H2    S    
C40   C60   A    
C51   H15   S    
C31   O13   A    
C34   O16   A    
C13   C32   S    
C33   O11   A    
Cu4   O7    S    
Cu2   O11   S    
C36   I2    S    
C1    C62   S    
C53   C59   A    
C54   C60   A    
C3    C64   S    
C20   H24   S    
C4    C63   S    
C50   H14   S    
C50   C54   A    
C32   O14   A    
C19   C21   A    
C24   C26   A    
Cu1   O2    S    
C5    C11   A    
C7    H3    S    
C47   Cl7   S    
C2    O6    A    
Cu2   O4    S    
C21   H5    S    
C28   N2    A    
Cu4   O16   S    
C18   H22   S    
C49   H13   S    
C52   H16   S    
C9    C13   A    
C5    H1    S    
C9    H17   S    
C38   C58   A    
C11   C15   A    
Cu3   O13   S    
C12   C16   A    
C11   H19   S    
Cu1   Cu3   S    
C40   H12   S    
C33   O15   A    
C45   C49   A    
C14   C31   S    
C15   C34   S    
C18   C20   A    
C2    C61   S    
Cu2   O12   S    
C45   Cl5   S    
C29   Cl9   S    
C32   O10   A    
C31   O9    A    
C41   Cl1   S    
Cu1   O9    S    
C29   N1    A    
C44   C46   A    
C13   C53   A    
C21   C23   A    
C26   N4    A    
C48   Cl8   S    
C8    H4    S    
C12   H20   S    
Cu1   N3    S    
C5    C61   A    
C17   C27   A    
C17   H21   S    
C10   C14   A    
C1    O1    A    
C24   H8    S    
C39   C43   A    
C38   H10   S    
C37   H9    S    
Cu4   N2    S    
Cu4   O15   S    
C39   H11   S    
Cu2   O3    S    
C16   C56   A    
C16   C33   S    
C36   N4    A    
Cu3   O14   S    
C44   Cl4   S    
C39   C59   A    
C41   C47   A    
C46   Cl6   S    
C42   C48   A    
C43   C45   A    
C7    C63   A    
C8    C64   A    
C42   Cl2   S    
C14   C54   A    
C20   C22   A    
C25   N3    A    
C55   C57   A    
C22   C24   A    
C27   N1    A    
C22   H6    S    
C40   C44   A    
C1    O5    A    
Cu1   O10   S    
C23   H7    S    
Cu3   O5    S    
Cu2   N4    S    
C3    O7    A    
C7    C9    A    
C46   C50   A    
C10   H18   S    
C59   C63   A    
Cu4   O8    S    
C30   Cl10  S    
C47   C51   A    
C57   C61   A    
C35   N3    A    
C25   C27   A    
C29   C35   A    
C26   C28   A    
C30   C36   A    
C60   C64   A    
C34   O12   A    
C6    C62   A    
C4    O4    A    
Cu1   O1    S    
C30   N2    A    
C6    C12   A    
C49   C53   A    
C4    O8    A    
Cu3   N1    S    
C17   C19   A    
C56   C58   A    
C35   I1    S    
C51   C55   A    
C23   C25   A    
C37   C41   A    
C19   H23   S    
C38   C42   A    
C3    O3    A    
C48   C52   A    
C2    O2    A    
C8    C10   A    
C43   Cl3   S    
C37   C57   A    
C52   C56   A    
Cu3   O6    S    
C15   C55   A    
