data_mof_unit_25538.cif
_audit_creation_date              2012-12-10T17:57:25-0500
_audit_creation_method            fapswitch 2.2
_symmetry_space_group_name_H-M    P1
_symmetry_Int_Tables_number       1
_space_group_crystal_system       triclinic
_cell_length_a                    9.519476
_cell_length_b                    10.8367
_cell_length_c                    13.46802
_cell_angle_alpha                 90.191809
_cell_angle_beta                  73.169833
_cell_angle_gamma                 90.28372
_cell_volume                      1329.82794528

loop_
_atom_site_label
_atom_site_type_symbol
_atom_type_description
_atom_site_fract_x
_atom_site_fract_y
_atom_site_fract_z
_atom_type_partial_charge
C1    C     C_R   0.500091 0.737758 0.500571 0.827031
C2    C     C_R   0.446196 0.437865 0.974754 0.083453
C3    C     C_R   0.491987 0.438758 0.864742 0.087623
C4    C     C_R   0.552919 0.457662 0.028592 0.074708
C5    C     C_R   0.703198 0.468728 0.971829 0.175664
C6    C     C_R   0.747545 0.445744 0.865953 -0.259410
C7    C     C_R   0.643779 0.425247 0.814061 -0.200069
C8    C     C_R   0.514886 0.471832 0.136576 -0.254457
C9    C     C_R   0.768784 0.510487 0.129140 -0.201380
C10   C     C_R   0.384119 0.451219 0.810317 -0.103967
C11   C     C_R   0.631967 0.936862 0.475912 -0.185436
C12   C     C_R   0.423685 0.484830 0.698872 0.797845
C13   C     C_R   0.630474 0.064472 0.476609 -0.259295
C14   C     C_R   0.496603 0.127826 0.502679 -0.120042
C15   C     C_R   0.362460 0.062043 0.528311 0.502530
C16   C     C_R   0.365599 0.933686 0.529431 -0.264724
C17   C     C_R   0.499567 0.871304 0.501787 -0.088976
C18   C     C_R   0.897669 0.570510 0.569306 -0.036236
C19   C     C_R   0.046420 0.570267 0.569435 -0.026437
C20   C     C_R   0.102404 0.429750 0.430498 -0.013598
C21   C     C_R   0.953524 0.429562 0.430669 -0.043384
C22   C     C_R   0.498834 0.261988 0.501289 0.814322
C23   C     C_R   0.577819 0.500252 0.300230 0.795999
C24   C     C_R   0.808433 0.499391 0.021841 -0.204602
C25   C     C_R   0.622025 0.494707 0.186985 -0.044021
C26   C     C_R   0.235907 0.432071 0.864427 -0.183213
C27   C     C_R   0.194368 0.407880 0.970313 -0.156603
C28   C     C_R   0.296252 0.415932 0.025918 -0.181148
Cu1   Cu    Cu3+1 0.359340 0.499980 0.500000 0.960420
Cu2   Cu    Cu3+1 0.640660 0.500020 0.500000 0.933363
H1    H     H_    0.852542 0.531527 0.166635 0.153907
H2    H     H_    0.734365 0.113491 0.455758 0.164796
H3    H     H_    0.263029 0.882946 0.553664 0.157994
H4    H     H_    0.819296 0.627103 0.624807 0.132780
H5    H     H_    0.080079 0.626650 0.625011 0.118963
H6    H     H_    0.180831 0.373327 0.374886 0.108341
H7    H     H_    0.919804 0.372928 0.375264 0.115013
H8    H     H_    0.863058 0.442502 0.823075 0.145180
H9    H     H_    0.921041 0.515697 0.977302 0.133417
H10   H     H_    0.402233 0.466323 0.183208 0.147619
H11   H     H_    0.152105 0.433532 0.824565 0.151462
H12   H     H_    0.254835 0.400423 0.108271 0.117032
H13   H     H_    0.081848 0.385084 0.010761 0.141711
H14   H     H_    0.686533 0.394245 0.735069 0.192112
H15   H     H_    0.736551 0.889660 0.454475 0.159768
N1    N     N_R   0.147940 0.499970 0.499970 -0.150347
N2    N     N_R   0.852060 0.500060 0.499990 -0.159258
O1    O     O_R   0.381250 0.680340 0.500010 -0.587207
O2    O     O_R   0.618820 0.680370 0.500010 -0.583220
O3    O     O_R   0.323240 0.499950 0.650980 -0.580157
O4    O     O_R   0.560810 0.499980 0.650980 -0.598443
O5    O     O_R   0.381180 0.319630 0.499990 -0.536544
O6    O     O_R   0.618750 0.319660 0.499990 -0.601350
O7    O     O_R   0.439190 0.500020 0.349020 -0.593479
O8    O     O_R   0.676760 0.500050 0.349020 -0.588443
O9    O     O_3   0.229459 0.123025 0.562564 -0.562411
C29   C     C_3   0.150107 0.106528 0.489697 -0.305694
H16   H     H_    0.216480 0.133351 0.410087 0.144119
H17   H     H_    0.052411 0.167222 0.511784 0.187168
H18   H     H_    0.109711 0.010089 0.490115 0.149211

loop_
_geom_bond_atom_site_label_1
_geom_bond_atom_site_label_2
_ccdc_geom_bond_type
C12   O3    A    
Cu2   O4    S    
C6    H8    S    
C9    C24   A    
C23   O8    A    
C6    C7    A    
C16   H3    S    
C11   C13   A    
Cu2   O8    S    
C13   H2    S    
C1    C17   S    
Cu1   N1    S    
C4    C8    A    
C15   O9    S    
C14   C22   S    
C2    C3    A    
C29   H16   S    
C19   N1    A    
C9    C25   A    
C1    O1    A    
C3    C10   A    
C19   H5    S    
C13   C14   A    
C18   N2    A    
C8    C25   A    
C18   H4    S    
C10   C26   A    
C26   C27   A    
Cu1   Cu2   S    
C5    C24   A    
C10   C12   S    
C2    C4    A    
C28   H12   S    
Cu2   O2    S    
C22   O6    A    
C3    C7    A    
Cu1   O3    S    
C23   C25   S    
C5    C6    A    
Cu2   O6    S    
C11   H15   S    
C29   H17   S    
Cu1   O7    S    
C9    H1    S    
Cu1   O1    S    
C15   C16   A    
C20   H6    S    
C27   H13   S    
Cu2   N2    S    
C4    C5    A    
C12   O4    A    
C21   H7    S    
C20   C21   A    
C23   O7    A    
C22   O5    A    
C18   C19   A    
C27   C28   A    
O9    C29   S    
C14   C15   A    
C11   C17   A    
C29   H18   S    
C2    C28   A    
C8    H10   S    
C7    H14   S    
C1    O2    A    
C24   H9    S    
C20   N1    A    
C26   H11   S    
C16   C17   A    
C21   N2    A    
Cu1   O5    S    
