data_mof_unit_40207.cif
_audit_creation_date              2012-12-10T20:39:57-0500
_audit_creation_method            fapswitch 2.2
_symmetry_space_group_name_H-M    P1
_symmetry_Int_Tables_number       1
_space_group_crystal_system       triclinic
_cell_length_a                    23.419717
_cell_length_b                    10.660155
_cell_length_c                    9.862524
_cell_angle_alpha                 89.679497
_cell_angle_beta                  90.083277
_cell_angle_gamma                 90.113918
_cell_volume                      2462.21022423

loop_
_atom_site_label
_atom_site_type_symbol
_atom_type_description
_atom_site_fract_x
_atom_site_fract_y
_atom_site_fract_z
_atom_type_partial_charge
C1    C     C_R   0.500604 0.260279 0.500534 0.941816
C2    C     C_R   0.969506 0.273037 0.501712 -0.154428
C3    C     C_R   0.028937 0.272385 0.500965 -0.153293
C4    C     C_R   0.059485 0.385779 0.498326 -0.019197
C5    C     C_R   0.029917 0.500768 0.496105 -0.020591
C6    C     C_R   0.060191 0.615099 0.493361 -0.015539
C7    C     C_R   0.030344 0.729162 0.491169 -0.153095
C8    C     C_R   0.970907 0.729805 0.491781 -0.155642
C9    C     C_R   0.119105 0.387537 0.497802 0.508913
C10   C     C_R   0.119796 0.612025 0.493430 0.504490
C11   C     C_R   0.238306 0.535051 0.380080 -0.083501
C12   C     C_R   0.389349 0.499841 0.499844 0.897083
C13   C     C_R   0.297560 0.535351 0.381133 -0.206121
C14   C     C_R   0.327168 0.499489 0.498879 -0.027606
C15   C     C_R   0.296904 0.462808 0.615145 -0.170417
C16   C     C_R   0.237654 0.462549 0.613861 -0.083573
C17   C     C_R   0.208429 0.498852 0.496459 0.305440
C18   C     C_R   0.762191 0.470945 0.617889 -0.098219
C19   C     C_R   0.702946 0.469723 0.618209 -0.229540
C20   C     C_R   0.672796 0.500977 0.499789 -0.044161
C21   C     C_R   0.702473 0.533318 0.381086 -0.181936
C22   C     C_R   0.761728 0.534502 0.381092 -0.096901
C23   C     C_R   0.502633 0.739715 0.499927 0.924211
C24   C     C_R   0.791478 0.503159 0.499359 0.316534
C25   C     C_R   0.482198 0.062200 0.610930 0.052220
C26   C     C_R   0.505958 0.128811 0.503635 -0.118231
C27   C     C_R   0.540153 0.068042 0.408169 -0.230919
C28   C     C_R   0.542637 0.937939 0.408797 0.261339
C29   C     C_R   0.508880 0.871611 0.503259 -0.143450
C30   C     C_R   0.483704 0.934815 0.610509 0.062986
C31   C     C_3   0.425564 0.922247 0.671131 -0.461353
C32   C     C_3   0.423702 0.064826 0.672192 0.094704
C33   C     C_R   0.470937 0.409634 0.071798 0.206494
C34   C     C_R   0.610640 0.500132 0.499989 0.871096
C35   C     C_R   0.532633 0.582192 0.071800 -0.250229
C36   C     C_R   0.533358 0.582144 0.926756 0.501400
C37   C     C_R   0.470677 0.410080 0.929195 0.122100
C38   C     C_3   0.407783 0.388686 0.924699 -0.488572
C39   C     C_3   0.408295 0.386101 0.078355 -0.454427
C40   C     C_R   0.880733 0.614587 0.495739 0.504184
C41   C     C_R   0.880067 0.390145 0.500532 0.505316
C42   C     C_R   0.939664 0.387085 0.499783 -0.016210
C43   C     C_R   0.969932 0.501422 0.496806 -0.020959
C44   C     C_R   0.940358 0.616401 0.494645 -0.015989
H1    H     H_    0.947090 0.184083 0.503866 0.194334
H2    H     H_    0.680824 0.443276 0.710339 0.158460
H3    H     H_    0.679974 0.558329 0.288802 0.168747
H4    H     H_    0.784622 0.559210 0.289411 0.141597
H5    H     H_    0.563787 0.120997 0.332670 0.188636
H6    H     H_    0.394509 0.877577 0.600849 0.223546
H7    H     H_    0.427099 0.880184 0.774460 0.199326
H8    H     H_    0.423911 0.104314 0.776117 0.131971
H9    H     H_    0.556717 0.650920 0.127346 0.203818
H10   H     H_    0.050798 0.182946 0.502594 0.194780
H11   H     H_    0.384424 0.470805 0.882717 0.212647
H12   H     H_    0.396345 0.297059 0.879117 0.213532
H13   H     H_    0.384423 0.465326 0.123836 0.211939
H14   H     H_    0.398250 0.292210 0.121847 0.221237
H15   H     H_    0.052760 0.818126 0.489077 0.195525
H16   H     H_    0.949044 0.819239 0.490120 0.193985
H17   H     H_    0.215515 0.563029 0.289237 0.144958
H18   H     H_    0.320093 0.564844 0.290625 0.153943
H19   H     H_    0.318880 0.432956 0.706144 0.159791
H20   H     H_    0.214358 0.434354 0.703812 0.144973
H21   H     H_    0.785438 0.446567 0.709262 0.141698
N1    N     N_R   0.852188 0.502655 0.498640 -0.361366
N2    N     N_R   0.147689 0.499468 0.495651 -0.362202
N3    N     N_R   0.499610 0.499140 0.142800 -0.126437
N4    N     N_R   0.499610 0.499180 0.857150 -0.144872
O1    O     O_R   0.500010 0.316790 0.614690 -0.621369
O2    O     O_2   0.850054 0.281915 0.502330 -0.541619
O3    O     O_2   0.148433 0.278620 0.498726 -0.525799
O4    O     O_2   0.149793 0.720302 0.492353 -0.537459
O5    O     O_R   0.500000 0.316760 0.385350 -0.613002
O6    O     O_R   0.416160 0.499980 0.614700 -0.625336
O7    O     O_R   0.416150 0.499940 0.385360 -0.619977
O8    O     O_R   0.500000 0.683240 0.614650 -0.568090
O9    O     O_R   0.499990 0.683210 0.385310 -0.590834
O10   O     O_R   0.583850 0.500060 0.614640 -0.608419
O11   O     O_R   0.583840 0.500020 0.385300 -0.615727
O12   O     O_2   0.851369 0.723405 0.494733 -0.541698
Zn1   Zn    Zn3+2 0.500000 0.500020 0.653130 0.994759
Zn2   Zn    Zn3+2 0.500000 0.499980 0.346870 0.978727
Br1   Br    Br    0.593175 0.858631 0.283065 -0.561603
Br2   Br    Br    0.365266 0.133590 0.552589 -0.498085
O13   O     O_3   0.562027 0.674220 0.854167 -0.570805
C45   C     C_3   0.620658 0.674745 0.887718 0.068617
H22   H     H_    0.638921 0.578322 0.885557 0.122037
H23   H     H_    0.627724 0.716457 0.989371 0.167997
C46   C     C_3   0.652539 0.755321 0.784785 -0.708326
H24   H     H_    0.637239 0.853733 0.789770 0.255331
H25   H     H_    0.699024 0.753378 0.806981 0.211784
H26   H     H_    0.645274 0.719472 0.680761 0.258102

loop_
_geom_bond_atom_site_label_1
_geom_bond_atom_site_label_2
_ccdc_geom_bond_type
C22   H4    S    
C45   H22   S    
C37   N4    A    
C28   Br1   S    
C41   C42   A    
C19   C20   A    
C9    O3    S    
O5    Zn2   S    
C19   H2    S    
C7    C8    A    
C10   N2    A    
C18   H21   S    
C5    C6    A    
C26   C27   A    
C29   C30   A    
C18   C24   A    
C1    O5    A    
C23   C29   S    
C28   C29   A    
C30   C31   S    
C10   O4    S    
C35   H9    S    
C15   C16   A    
C39   H13   S    
C35   N3    A    
C18   C19   A    
C32   H8    S    
N4    Zn1   S    
C34   O11   A    
O9    Zn2   S    
C38   H11   S    
C35   C36   A    
C16   C17   A    
C24   N1    S    
C41   O2    S    
C20   C34   S    
C25   C32   S    
C5    C43   A    
C40   N1    A    
C21   C22   A    
O11   Zn2   S    
O7    Zn2   S    
C7    H15   S    
C2    H1    S    
C17   N2    S    
C13   H18   S    
O13   C45   S    
C36   O13   S    
C25   C26   A    
C39   H14   S    
C33   C37   A    
C43   C44   A    
C9    N2    A    
C37   C38   S    
C34   O10   A    
C46   H25   S    
C31   C32   S    
C33   C39   S    
C23   O8    A    
C41   N1    A    
C12   C14   S    
C45   H23   S    
C1    C26   S    
C22   C24   A    
C12   O6    A    
C42   C43   A    
C31   H6    S    
C3    C4    A    
C36   N4    A    
C46   H26   S    
C25   C30   A    
C11   C17   A    
N3    Zn2   S    
C40   O12   S    
C8    C44   A    
C31   H7    S    
C4    C5    A    
C11   H17   S    
C6    C10   A    
O10   Zn1   S    
O6    Zn1   S    
C6    C7    A    
C1    O1    A    
C12   O7    A    
C2    C3    A    
C8    H16   S    
C11   C13   A    
C46   H24   S    
C38   C39   S    
O8    Zn1   S    
C2    C42   A    
C32   Br2   S    
C3    H10   S    
C23   O9    A    
O1    Zn1   S    
C40   C44   A    
C38   H12   S    
C20   C21   A    
C45   C46   S    
C27   C28   A    
C15   H19   S    
C14   C15   A    
C16   H20   S    
C4    C9    A    
C13   C14   A    
C27   H5    S    
C33   N3    A    
C21   H3    S    
