data_mof_unit_10581.cif
_audit_creation_date              2013-03-05T16:31:20-0500
_audit_creation_method            fapswitch 2.2
_symmetry_space_group_name_H-M    P1
_symmetry_Int_Tables_number       1
_space_group_crystal_system       triclinic
_cell_length_a                    9.556627
_cell_length_b                    10.843719
_cell_length_c                    13.477212
_cell_angle_alpha                 90.626105
_cell_angle_beta                  73.362259
_cell_angle_gamma                 90.60464
_cell_volume                      1338.04375415

loop_
_atom_site_label
_atom_site_type_symbol
_atom_site_description
_atom_site_fract_x
_atom_site_fract_y
_atom_site_fract_z
_atom_type_partial_charge
O1    O     O_R   0.381190 0.680360 0.500000 -0.557683
O2    O     O_R   0.618780 0.680320 0.499990 -0.563972
C1    C     C_R   0.499753 0.737554 0.502363 0.814947
O3    O     O_R   0.323230 0.500000 0.650990 -0.589939
O4    O     O_R   0.560820 0.499960 0.650980 -0.602049
C2    C     C_R   0.423747 0.485213 0.698665 0.796700
Cu1   Cu    Cu3+1 0.359330 0.500020 0.500010 0.970644
Cu2   Cu    Cu3+1 0.640670 0.499980 0.499990 0.956516
O5    O     O_R   0.381220 0.319680 0.500010 -0.579387
O6    O     O_R   0.618810 0.319640 0.500000 -0.597884
O7    O     O_R   0.439180 0.500040 0.349020 -0.587048
O8    O     O_R   0.676770 0.500000 0.349010 -0.582828
C3    C     C_R   0.498777 0.262185 0.502127 0.798294
C4    C     C_R   0.577540 0.501269 0.300364 0.797224
C5    C     C_R   0.806784 0.498732 0.022343 -0.196529
H1    H     H_    0.852115 0.528123 0.167280 0.154795
H2    H     H_    0.859420 0.437478 0.824344 0.135548
H3    H     H_    0.919050 0.513019 0.977888 0.134731
C6    C     C_R   0.621284 0.497658 0.187083 -0.045762
C7    C     C_R   0.235829 0.435097 0.863739 -0.184487
C8    C     C_R   0.194113 0.413538 0.969728 -0.147678
C9    C     C_R   0.295309 0.423735 0.025528 -0.174236
C10   C     C_R   0.444825 0.443467 0.974633 0.083712
C11   C     C_R   0.490419 0.440891 0.864892 0.094624
C12   C     C_R   0.551413 0.462917 0.028504 0.074630
C13   C     C_R   0.701234 0.469770 0.972175 0.180479
C14   C     C_R   0.744642 0.443844 0.866738 -0.253841
C15   C     C_R   0.640691 0.423773 0.814876 -0.207147
C16   C     C_R   0.513895 0.479866 0.136111 -0.250922
C17   C     C_R   0.767902 0.509892 0.129592 -0.196605
C18   C     C_R   0.383638 0.452916 0.810014 -0.102703
H4    H     H_    0.401535 0.480512 0.181851 0.148203
H5    H     H_    0.152536 0.435634 0.823595 0.144645
H6    H     H_    0.253765 0.411070 0.107784 0.118507
H7    H     H_    0.082229 0.391001 0.010178 0.139857
H8    H     H_    0.681304 0.390057 0.736518 0.182612
C19   C     C_R   0.368072 0.934240 0.521372 0.104720
C20   C     C_R   0.496723 0.870482 0.513439 -0.167623
C21   C     C_R   0.620456 0.936981 0.520823 -0.165834
H9    H     H_    0.719956 0.890299 0.521213 0.209760
C22   C     C_R   0.619581 0.065682 0.520765 -0.202007
H10   H     H_    0.718649 0.114791 0.521274 0.170447
C23   C     C_R   0.495053 0.128942 0.513203 -0.098888
C24   C     C_R   0.367057 0.061448 0.521279 0.089131
C25   C     C_3   0.263415 0.064971 0.456839 -0.545593
C26   C     C_3   0.265814 0.925032 0.455798 0.188993
H11   H     H_    0.156332 0.104110 0.500887 0.224857
H12   H     H_    0.313991 0.105094 0.379072 0.171218
H13   H     H_    0.315504 0.883755 0.377766 0.099874
C27   C     C_R   0.960905 0.467910 0.412811 0.286832
N1    N     N_R   0.852320 0.499070 0.499340 -0.200000
C28   C     C_R   0.893345 0.545731 0.581811 -0.039842
H14   H     H_    0.812029 0.582604 0.648284 0.154724
C29   C     C_R   0.041828 0.544807 0.582192 0.003998
H15   H     H_    0.070398 0.579825 0.649301 0.147139
N2    N     N_R   0.148230 0.499110 0.499340 -0.195670
C30   C     C_R   0.108256 0.468104 0.412722 0.291737
C31   C     C_3   0.133358 0.347164 0.357447 -0.534264
C32   C     C_3   0.975124 0.347882 0.356433 -0.509109
H16   H     H_    0.212129 0.353227 0.279392 0.189241
H17   H     H_    0.156613 0.274561 0.406803 0.218157
H18   H     H_    0.962380 0.357846 0.277476 0.195805
H19   H     H_    0.908296 0.273185 0.403558 0.217916
N3    N     N_R   0.124569 0.870201 0.510515 0.150524
O9    O     O_R   0.056964 0.799830 0.460055 -0.389828
O10   O     O_R   0.062292 0.895046 0.607851 -0.372383

loop_
_geom_bond_atom_site_label_1
_geom_bond_atom_site_label_2
_geom_bond_distance
_ccdc_geom_bond_type
C5    H3    1.079101 S    
C10   C11   1.417185 A    
C19   C20   1.393585 A    
C8    H7    1.078792 S    
O4    Cu2   1.958066 S    
C22   H10   1.083042 S    
C29   H15   1.080954 S    
C32   H19   1.111486 S    
Cu2   N1    2.020297 S    
C6    C17   1.399235 A    
Cu2   O8    1.964028 S    
C23   C24   1.396552 A    
N3    O9    1.300789 A    
C7    C8    1.390418 A    
C31   H17   1.100676 S    
C25   H11   1.111565 S    
C2    C18   1.483525 S    
C13   C14   1.387988 A    
C11   C18   1.429156 A    
Cu1   Cu2   2.688588 S    
C21   C22   1.395729 A    
C6    C16   1.399650 A    
C8    C9    1.387600 A    
C24   C25   1.493600 S    
Cu1   O7    1.958065 S    
C22   C23   1.409048 A    
C26   H13   1.113570 S    
C30   C31   1.488388 S    
O4    C2    1.292410 A    
Cu1   N2    2.019928 S    
C19   C24   1.379561 A    
O3    Cu1   1.964028 S    
C27   C32   1.487554 S    
Cu2   O6    1.964487 S    
C19   C26   1.495511 S    
C28   C29   1.420612 A    
C27   N1    1.362637 A    
C16   H4    1.074274 S    
O2    C1    1.293725 A    
C10   C12   1.422962 A    
C12   C16   1.401192 A    
C20   C21   1.405668 A    
C9    H6    1.074974 S    
O7    C4    1.296858 A    
C29   N2    1.369198 A    
C31   C32   1.516249 S    
N2    C30   1.365952 A    
C7    H5    1.083117 S    
C31   H16   1.106635 S    
N1    C28   1.370467 A    
H2    C14   1.084546 S    
C25   C26   1.517727 S    
C3    C23   1.453178 S    
C28   H14   1.080003 S    
C15   H8    1.076748 S    
C5    C17   1.389793 A    
O3    C2    1.311582 A    
C25   H12   1.112123 S    
C26   N3    1.463563 S    
C21   H9    1.083299 S    
Cu1   O5    1.968907 S    
O5    C3    1.298147 A    
C9    C10   1.411890 A    
C5    C13   1.397313 A    
C32   H18   1.111690 S    
O1    C1    1.294175 A    
C12   C13   1.417187 A    
O1    Cu1   1.964487 S    
C27   C30   1.407813 A    
H1    C17   1.083180 S    
C4    C6    1.463112 S    
O6    C3    1.292794 A    
O2    Cu2   1.968908 S    
C11   C15   1.414131 A    
C1    C20   1.447266 S    
O8    C4    1.298387 A    
C14   C15   1.382932 A    
C7    C18   1.403040 A    
N3    O10   1.302397 A    
