data_mof_unit_63712.cif
_audit_creation_date              2013-03-05T16:18:07-0500
_audit_creation_method            fapswitch 2.2
_symmetry_space_group_name_H-M    P1
_symmetry_Int_Tables_number       1
_space_group_crystal_system       triclinic
_cell_length_a                    10.852604
_cell_length_b                    9.996491
_cell_length_c                    15.708002
_cell_angle_alpha                 88.53196
_cell_angle_beta                  92.463274
_cell_angle_gamma                 89.350176
_cell_volume                      1701.86349899

loop_
_atom_site_label
_atom_site_type_symbol
_atom_site_description
_atom_site_fract_x
_atom_site_fract_y
_atom_site_fract_z
_atom_type_partial_charge
O1    O     O_R   0.314910 0.616040 0.499980 -0.559399
O2    O     O_R   0.314910 0.383960 0.499980 -0.545640
C1    C     C_R   0.259493 0.499885 0.511134 0.985581
O3    O     O_R   0.500120 0.616090 0.377110 -0.538677
O4    O     O_R   0.500120 0.383910 0.377110 -0.598269
C2    C     C_R   0.502627 0.501338 0.339136 0.987826
Zn1   Zn    Zn3+2 0.500150 0.654960 0.499960 1.044064
Zn2   Zn    Zn3+2 0.500150 0.345040 0.499960 1.056792
O5    O     O_R   0.685320 0.616040 0.499960 -0.648311
O6    O     O_R   0.685320 0.383960 0.499960 -0.600766
O7    O     O_R   0.500110 0.615990 0.622830 -0.608397
O8    O     O_R   0.500110 0.384010 0.622830 -0.603668
C3    C     C_R   0.741027 0.499041 0.509156 0.885354
C4    C     C_R   0.499644 0.498548 0.661061 0.925045
C5    C     C_3   0.415908 0.627660 0.046074 0.095812
C6    C     C_3   0.427133 0.364828 0.051830 0.079968
C7    C     C_3   0.418578 0.368108 0.951873 -0.308535
C8    C     C_3   0.420208 0.631744 0.946643 -0.286068
H1    H     H_    0.495787 0.284674 0.071360 0.132968
H2    H     H_    0.470878 0.714799 0.068459 0.141420
H3    H     H_    0.477865 0.283145 0.932519 0.151922
H4    H     H_    0.486561 0.711994 0.930529 0.135495
C9    C     C_1   0.493207 0.495852 0.749781 -0.006010
C10   C     C_3   0.485005 0.499425 0.083446 0.044078
C11   C     C_3   0.480768 0.498078 0.916521 0.075686
C12   C     C_3   0.616339 0.495838 0.953392 -0.419422
C13   C     C_3   0.618650 0.503669 0.051418 -0.482160
C14   C     C_1   0.486678 0.496108 0.824889 0.002247
C15   C     C_1   0.494429 0.502714 0.174997 0.035659
C16   C     C_1   0.499949 0.503813 0.250330 0.019734
H5    H     H_    0.664868 0.597525 0.071238 0.224171
H6    H     H_    0.675373 0.419078 0.080033 0.225468
H7    H     H_    0.668840 0.581202 0.926738 0.217507
H8    H     H_    0.665028 0.402805 0.935219 0.211212
C17   C     C_3   0.067121 0.644654 0.550837 0.053628
C18   C     C_3   0.072477 0.388170 0.589158 0.119076
C19   C     C_3   0.926147 0.623295 0.562390 -0.412731
C20   C     C_3   0.931044 0.373034 0.565478 -0.385174
H9    H     H_    0.901114 0.612158 0.629887 0.211694
H10   H     H_    0.876385 0.349888 0.621823 0.255879
H11   H     H_    0.876283 0.713654 0.540258 0.303771
H12   H     H_    0.917211 0.287558 0.523588 0.269049
H13   H     H_    0.889060 0.592091 0.391637 0.234691
H14   H     H_    0.869061 0.421643 0.386891 0.202741
C21   C     C_3   0.061525 0.471796 0.421429 0.466737
C22   C     C_3   0.120971 0.499876 0.517966 -0.376396
C23   C     C_3   0.877799 0.498290 0.515653 -0.103486
C24   C     C_3   0.920397 0.497881 0.423872 -0.450665
C25   C     C_3   0.379541 0.086284 0.462209 0.101596
C26   C     C_3   0.372644 0.925535 0.474686 0.074201
H15   H     H_    0.304024 0.126885 0.498958 0.207591
H16   H     H_    0.313003 0.906562 0.529178 0.155846
H17   H     H_    0.574437 0.125860 0.376481 0.184669
H18   H     H_    0.529658 0.918299 0.370421 0.207797
C27   C     C_3   0.594420 0.081264 0.441010 -0.239208
C28   C     C_3   0.580730 0.924397 0.432078 -0.219985
C29   C     C_3   0.515983 0.073184 0.586529 -0.252913
C30   C     C_3   0.530514 0.914606 0.584795 -0.252516
N1    N     N_3   0.499750 0.138610 0.498180 -0.185857
N2    N     N_3   0.499750 0.861390 0.498180 -0.180672
H19   H     H_    0.427998 0.090907 0.618437 0.170124
H20   H     H_    0.459276 0.875720 0.627714 0.171721
C31   C     C_2   0.302605 0.682832 0.900284 1.024774
O9    O     O_2   0.250463 0.618293 0.844931 -0.569657
O10   O     O_R   0.256497 0.809218 0.919472 -0.726393
H21   H     H_    0.178937 0.834630 0.884183 0.378280
C32   C     C_2   0.293214 0.337316 0.910751 1.096041
O11   O     O_2   0.199925 0.395033 0.931582 -0.517143
O12   O     O_R   0.284777 0.237811 0.849842 -0.736667
H22   H     H_    0.196906 0.223328 0.827756 0.377518
N3    N     N_R   0.115040 0.558972 0.354696 0.266040
O13   O     O_R   0.231783 0.547631 0.340910 -0.307378
O14   O     O_R   0.044899 0.604097 0.290540 -0.254938
N4    N     N_R   0.075582 0.334617 0.389258 0.212025
O15   O     O_R   0.098275 0.229768 0.437361 -0.335707
O16   O     O_R   0.049740 0.314812 0.308764 -0.241610
N5    N     N_R   0.354303 0.135298 0.372495 0.262304
O17   O     O_R   0.303373 0.251630 0.357314 -0.233036
O18   O     O_R   0.385465 0.068102 0.306668 -0.319461
N6    N     N_R   0.303672 0.869582 0.400795 0.273096
O19   O     O_R   0.198153 0.924674 0.377037 -0.183845
O20   O     O_R   0.354691 0.794564 0.346149 -0.258838
C33   C     C_2   0.605465 0.135483 0.650651 1.045906
O21   O     O_2   0.681482 0.217085 0.629845 -0.589318
O22   O     O_R   0.597378 0.099456 0.736875 -0.780831
H23   H     H_    0.659487 0.147448 0.774877 0.349238
C34   C     C_2   0.647997 0.857280 0.628366 1.026109
O23   O     O_2   0.748363 0.879718 0.600274 -0.550477
O24   O     O_R   0.641627 0.787829 0.706524 -0.793251
H24   H     H_    0.725514 0.756338 0.730563 0.348165
C35   C     C_2   0.726026 0.125764 0.453379 1.048649
O25   O     O_2   0.788603 0.094314 0.517040 -0.487863
O26   O     O_R   0.781696 0.186948 0.384148 -0.804382
H25   H     H_    0.874564 0.185720 0.391334 0.393097
C36   C     C_2   0.692924 0.847418 0.404867 1.009200
O27   O     O_2   0.793694 0.862900 0.439593 -0.523440
O28   O     O_R   0.684140 0.772142 0.330876 -0.786243
H26   H     H_    0.766845 0.738112 0.312511 0.357308
N7    N     N_R   0.292049 0.645795 0.079202 0.260704
O29   O     O_R   0.196804 0.583016 0.047987 -0.254642
O30   O     O_R   0.275300 0.733795 0.137371 -0.225362
N8    N     N_R   0.312179 0.322704 0.091320 0.260917
O31   O     O_R   0.268225 0.384874 0.155369 -0.220148
O32   O     O_R   0.269763 0.204346 0.075094 -0.281948
N9    N     N_R   0.077323 0.762376 0.491724 0.244104
O33   O     O_R   0.093729 0.879837 0.524474 -0.286738
O34   O     O_R   0.021242 0.764931 0.417285 -0.275552
N10   N     N_R   0.134455 0.254716 0.592305 0.237837
O35   O     O_R   0.247272 0.242984 0.623451 -0.395043
O36   O     O_R   0.068262 0.146771 0.595054 -0.266176
C37   C     C_2   0.128746 0.691054 0.635913 0.984080
O37   O     O_2   0.066114 0.726089 0.694650 -0.565786
O38   O     O_R   0.256276 0.706925 0.643702 -0.786034
H27   H     H_    0.284560 0.746740 0.699802 0.364593
C38   C     C_2   0.088923 0.429810 0.682660 0.906203
O39   O     O_2   0.193034 0.446354 0.713300 -0.560733
O40   O     O_R   0.988645 0.442118 0.735293 -0.811244
H28   H     H_    0.014286 0.468249 0.795366 0.399799

loop_
_geom_bond_atom_site_label_1
_geom_bond_atom_site_label_2
_geom_bond_distance
_ccdc_geom_bond_type
C30   H20   1.114235 S    
C5    C8    1.564057 S    
C34   O23   1.213773 D    
C31   O10   1.398428 S    
O26   H25   1.009231 S    
C27   N1    1.510952 S    
C21   N3    1.487468 S    
C36   O27   1.214244 D    
C10   C13   1.556134 S    
C27   C28   1.586039 S    
C30   C34   1.520118 S    
O28   H26   1.012392 S    
O22   H23   1.014026 S    
C11   C14   1.444167 S    
Zn1   O7    1.959175 S    
N9    O34   1.294317 A    
C12   C13   1.542930 S    
N4    O16   1.303891 A    
C17   C19   1.564771 S    
C20   H12   1.099475 S    
Zn2   N1    2.064533 S    
O4    C2    1.304125 A    
O7    C4    1.305084 A    
C8    C31   1.518648 S    
C29   N1    1.521380 S    
C18   N10   1.485945 S    
C28   C36   1.515823 S    
C30   N2    1.499211 S    
C38   O39   1.223592 D    
N10   O35   1.301719 A    
O5    C3    1.312283 A    
C10   C15   1.438577 S    
C27   C35   1.506843 S    
C12   H8    1.114018 S    
C33   O21   1.215570 D    
N10   O36   1.303909 A    
C6    C7    1.568356 S    
C38   O40   1.400896 S    
C26   H16   1.108922 S    
C29   C33   1.518950 S    
C18   C22   1.665662 S    
C19   C23   1.550666 S    
H13   C24   1.101122 S    
N5    O17   1.294073 A    
H17   C27   1.108593 S    
C6    C10   1.574186 S    
O1    Zn1   2.051976 S    
N8    O31   1.300977 A    
C8    C11   1.574940 S    
O3    Zn1   1.978181 S    
N5    O18   1.302016 A    
C5    H2    1.117038 S    
H18   C28   1.098455 S    
C7    C32   1.518932 S    
N4    O15   1.291409 A    
C13   H5    1.114004 S    
C32   O11   1.220606 D    
C23   C24   1.532906 S    
N6    O20   1.292363 A    
C35   O25   1.216844 D    
N3    O14   1.304411 A    
C25   H15   1.102160 S    
C11   C12   1.557554 S    
C21   C22   1.654173 S    
C7    H3    1.115984 S    
C28   N2    1.518120 S    
C21   N4    1.482070 S    
O1    C1    1.324811 A    
C4    C9    1.397938 S    
C15   C16   1.182612 T    
C17   N9    1.488337 S    
C35   O26   1.397310 S    
C12   H7    1.114156 S    
N7    O29   1.299848 A    
Zn2   O8    1.978739 S    
C37   O38   1.395394 S    
C9    C14   1.185025 T    
N8    O32   1.301719 A    
C20   C23   1.552017 S    
C6    N8    1.477682 S    
C5    C10   1.565885 S    
C2    C16   1.393598 S    
O8    C4    1.306525 A    
O10   H21   1.013973 S    
C34   O24   1.399557 S    
O3    C2    1.306972 A    
Zn1   N2    2.063002 S    
C17   C37   1.552517 S    
C3    C23   1.483378 S    
O38   H27   1.013257 S    
C21   C24   1.552990 S    
Zn1   O5    2.042557 S    
C37   O37   1.225146 D    
C33   O22   1.399197 S    
C13   H6    1.113995 S    
C8    H4    1.115591 S    
O2    Zn2   2.043315 S    
C5    N7    1.473077 S    
N6    O19   1.300914 A    
O6    C3    1.313990 A    
C26   N6    1.479319 S    
O4    Zn2   1.958661 S    
C36   O28   1.401104 S    
C29   H19   1.111857 S    
N9    O33   1.304962 A    
C1    C22   1.511738 S    
C25   N1    1.504012 S    
C26   N2    1.540855 S    
C18   C20   1.573626 S    
O2    C1    1.318709 A    
C7    C11   1.570686 S    
N3    O13   1.298668 A    
C19   H9    1.108924 S    
O40   H28   1.013816 S    
C20   H10   1.107474 S    
C17   C22   1.657645 S    
C29   C30   1.592313 S    
C6    H1    1.116018 S    
C25   N5    1.493126 S    
C19   H11   1.089155 S    
O12   H22   1.013904 S    
C31   O9    1.219498 D    
Zn2   O6    2.051221 S    
C25   C26   1.616811 S    
C32   O12   1.398736 S    
O24   H24   1.014079 S    
C18   C38   1.540376 S    
N7    O30   1.301392 A    
H14   C24   1.110477 S    
