data_mof_unit_9213.cif
_audit_creation_date              2012-10-26T17:12:31-0400
_audit_creation_method            fapswitch 2.2
_symmetry_space_group_name_H-M    P1
_symmetry_Int_Tables_number       1
_space_group_crystal_system       triclinic
_cell_length_a                    17.067504
_cell_length_b                    16.83067
_cell_length_c                    16.884444
_cell_angle_alpha                 66.812581
_cell_angle_beta                  68.875655
_cell_angle_gamma                 67.499415
_cell_volume                      3991.44140288

loop_
_atom_site_label
_atom_site_type_symbol
_atom_type_description
_atom_site_fract_x
_atom_site_fract_y
_atom_site_fract_z
_atom_type_partial_charge
C1    C     C_R   0.030798 0.826952 0.565023 0.797129
C2    C     C_R   0.032115 0.562422 0.828728 0.792525
C3    C     C_1   0.418126 0.736533 0.159559 0.254649
C4    C     C_1   0.910944 0.618691 0.229610 0.271838
C5    C     C_1   0.108530 0.376465 0.782345 0.272029
C6    C     C_3   0.721538 0.092522 0.718594 -0.277544
C7    C     C_3   0.783524 0.028219 0.780262 -0.604563
C8    C     C_3   0.252457 0.956966 0.252761 -0.244195
C9    C     C_3   0.208437 0.053478 0.201511 -0.730358
C10   C     C_3   0.130533 0.700853 0.712899 -0.341494
C11   C     C_3   0.217790 0.700881 0.642633 -0.789620
C12   C     C_3   0.868375 0.300855 0.298173 -0.318574
C13   C     C_R   0.170867 0.971567 0.436048 0.810996
C14   C     C_3   0.784918 0.379282 0.289344 -0.800980
C15   C     C_3   0.732321 0.728602 0.082982 -0.269969
C16   C     C_3   0.789725 0.787329 0.007827 -0.652972
C17   C     C_3   0.298794 0.319309 0.863616 -0.315181
C18   C     C_3   0.374883 0.328849 0.780263 -0.817328
C19   C     C_R   0.828825 0.024626 0.564938 0.800930
C20   C     C_R   0.460393 0.050644 0.699512 0.000376
C21   C     C_R   0.540410 0.911709 0.305322 0.021089
C22   C     C_R   0.082653 0.699647 0.454535 0.020182
C23   C     C_R   0.960566 0.290035 0.541882 0.019130
C24   C     C_R   0.712565 0.459633 0.031830 0.000641
C25   C     C_R   0.267802 0.486584 0.064838 0.004800
C26   C     C_R   0.295669 0.934553 0.550961 -0.003744
C27   C     C_R   0.971939 0.172664 0.434923 0.783121
C28   C     C_R   0.712976 0.029100 0.456577 0.006036
C29   C     C_R   0.543541 0.312690 0.923919 -0.014143
C30   C     C_R   0.456862 0.695515 0.088751 0.009256
C31   C     C_R   0.964343 0.548356 0.286134 0.031499
C32   C     C_R   0.073692 0.441503 0.708327 -0.004153
C33   C     C_R   0.552827 0.995007 0.547516 0.031976
C34   C     C_R   0.459491 0.961745 0.459432 0.037107
C35   C     C_R   0.043871 0.535812 0.539452 0.033712
C36   C     C_R   0.007970 0.449138 0.447333 0.034292
C37   C     C_R   0.541057 0.550014 0.020262 0.030947
C38   C     C_R   0.829023 0.565125 0.026162 0.800121
C39   C     C_R   0.447414 0.457767 0.994360 0.032482
C40   C     C_R   0.594307 0.978822 0.463793 0.034544
C41   C     C_R   0.421734 0.971248 0.544831 0.039124
C42   C     C_R   0.039688 0.446511 0.578634 0.039957
C43   C     C_R   0.020296 0.536026 0.404807 0.038417
C44   C     C_R   0.448208 0.579333 0.041344 0.037417
C45   C     C_R   0.539031 0.434612 0.968751 0.038143
C46   C     C_R   0.548293 0.959468 0.420611 0.032538
C47   C     C_R   0.465392 0.993886 0.585929 0.037061
C48   C     C_R   0.400891 0.528885 0.033428 0.035829
C49   C     C_R   0.169862 0.430976 0.983088 0.782571
C50   C     C_R   0.584981 0.473715 0.990550 0.036220
C51   C     C_R   0.017866 0.404621 0.534673 0.035574
C52   C     C_R   0.041628 0.578199 0.449657 0.034713
C53   C     C_R   0.419396 0.026959 0.658618 -0.250150
C54   C     C_R   0.589425 0.928518 0.345148 -0.242299
C55   C     C_R   0.067909 0.657825 0.406372 -0.250144
C56   C     C_R   0.992349 0.325610 0.581087 -0.251724
C57   C     C_R   0.670939 0.428635 0.998101 -0.251065
C58   C     C_R   0.310503 0.539850 0.071032 -0.242123
C59   C     C_R   0.343734 0.950053 0.591201 -0.253266
C60   C     C_R   0.565230 0.025634 0.827833 0.798630
C61   C     C_R   0.675257 0.995774 0.419947 -0.247197
C62   C     C_R   0.584004 0.369028 0.925463 -0.249291
C63   C     C_R   0.407388 0.651671 0.078273 -0.240225
C64   C     C_R   0.998379 0.583827 0.323970 -0.238116
C65   C     C_R   0.062058 0.399278 0.659358 -0.251199
C66   C     C_R   0.552881 0.032215 0.675776 -0.007832
C67   C     C_R   0.448479 0.943479 0.327511 -0.021833
C68   C     C_R   0.057236 0.672118 0.548116 -0.012949
C69   C     C_R   0.969004 0.321190 0.449009 -0.003199
C70   C     C_R   0.680664 0.550650 0.034202 -0.009734
C71   C     C_R   0.434853 0.971910 0.171851 0.808913
C72   C     C_R   0.310639 0.428955 0.010526 -0.011493
C73   C     C_R   0.321405 0.947394 0.456184 -0.016382
C74   C     C_R   0.683023 0.024809 0.548884 -0.011534
C75   C     C_R   0.451179 0.327549 0.956299 0.001103
C76   C     C_R   0.548648 0.675072 0.054149 -0.010575
C77   C     C_R   0.967155 0.454841 0.318261 0.015707
C78   C     C_R   0.058825 0.537692 0.678914 0.000540
C79   C     C_R   0.600683 0.036957 0.727651 -0.166234
C80   C     C_R   0.397165 0.953869 0.271754 -0.145082
C81   C     C_R   0.053398 0.724371 0.599317 -0.132805
C82   C     C_R   0.435579 0.172654 0.971312 0.788450
C83   C     C_R   0.955611 0.274172 0.402303 -0.167448
C84   C     C_R   0.731136 0.599133 0.040700 -0.164579
C85   C     C_R   0.266325 0.391767 0.981554 -0.162766
C86   C     C_R   0.268167 0.953865 0.402356 -0.151913
C87   C     C_R   0.731030 0.034585 0.598113 -0.162619
C88   C     C_R   0.402680 0.273803 0.956497 -0.127721
C89   C     C_R   0.599749 0.727944 0.048895 -0.148042
C90   C     C_R   0.953639 0.406794 0.271599 -0.107431
C91   C     C_R   0.056825 0.590604 0.729402 -0.168910
C92   C     C_R   0.686847 0.045830 0.684374 0.022740
C93   C     C_R   0.564488 0.828168 0.029866 0.819679
C94   C     C_R   0.307043 0.954597 0.310575 0.086884
C95   C     C_R   0.070744 0.676364 0.684071 0.066536
C96   C     C_R   0.933492 0.324102 0.320478 0.034781
C97   C     C_R   0.688429 0.686549 0.051605 0.031829
C98   C     C_R   0.318276 0.321391 0.942847 0.056187
C99   C     C_R   0.597407 0.015199 0.591863 0.047075
C100  C     C_R   0.408785 0.952363 0.413724 0.045881
C101  C     C_R   0.052263 0.582245 0.589539 0.039434
C102  C     C_R   0.982970 0.407646 0.403884 0.038918
C103  C     C_R   0.590806 0.593258 0.033877 0.044720
C104  C     C_R   0.970646 0.436383 0.171834 0.811245
C105  C     C_R   0.403025 0.406122 0.984913 0.044521
C106  C     C_1   0.400996 0.111581 0.749293 0.271489
C107  C     C_1   0.576749 0.828338 0.283464 0.249099
C108  C     C_1   0.154063 0.739582 0.412015 0.247146
C109  C     C_1   0.893152 0.249395 0.603645 0.270622
C110  C     C_1   0.768408 0.386656 0.085276 0.285930
C111  C     C_1   0.194823 0.467761 0.137336 0.260601
C112  C     C_1   0.225984 0.900510 0.617752 0.278467
C113  C     C_1   0.759872 0.091333 0.389233 0.279537
C114  C     C_1   0.605214 0.242088 0.888532 0.271709
Cu1   Cu    Cu3+1 0.995180 0.995180 0.424630 0.961898
Cu2   Cu    Cu3+1 0.004820 0.004820 0.575370 0.967562
Cu3   Cu    Cu3+1 0.995180 0.424630 0.995180 0.993294
Cu4   Cu    Cu3+1 0.004820 0.575370 0.004820 0.949094
Cu5   Cu    Cu3+1 0.424630 0.995180 0.995180 0.965718
Cu6   Cu    Cu3+1 0.575370 0.004820 0.004820 0.943683
H1    H     H_    0.348498 0.044224 0.678489 0.147165
H2    H     H_    0.337359 0.672446 0.103884 0.138801
H3    H     H_    0.996028 0.654506 0.295292 0.140346
H4    H     H_    0.076042 0.326530 0.683081 0.146517
H5    H     H_    0.755810 0.031823 0.849269 0.240197
H6    H     H_    0.799550 0.957049 0.782194 0.221640
H7    H     H_    0.845300 0.047269 0.757183 0.234436
H8    H     H_    0.753583 0.138712 0.660450 0.203776
H9    H     H_    0.665622 0.140296 0.748869 0.201307
H10   H     H_    0.155315 0.090130 0.246578 0.252451
H11   H     H_    0.255584 0.094191 0.164822 0.248221
H12   H     H_    0.660092 0.904779 0.325141 0.146886
H13   H     H_    0.180031 0.050784 0.153234 0.219223
H14   H     H_    0.287617 0.913393 0.209739 0.212442
H15   H     H_    0.206238 0.916665 0.285617 0.214510
H16   H     H_    0.246771 0.635853 0.626763 0.247388
H17   H     H_    0.208728 0.756461 0.580523 0.246514
H18   H     H_    0.264841 0.708623 0.668578 0.242643
H19   H     H_    0.096157 0.764859 0.729023 0.243711
H20   H     H_    0.149036 0.650507 0.774178 0.207845
H21   H     H_    0.759232 0.404652 0.348085 0.245469
H22   H     H_    0.797496 0.435418 0.228237 0.233621
H23   H     H_    0.087699 0.681547 0.334512 0.140859
H24   H     H_    0.733724 0.355989 0.286164 0.257220
H25   H     H_    0.899105 0.277625 0.238310 0.252850
H26   H     H_    0.846079 0.245625 0.353877 0.220416
H27   H     H_    0.793781 0.785731 0.941271 0.231129
H28   H     H_    0.763832 0.858354 0.008840 0.220825
H29   H     H_    0.856759 0.764761 0.017213 0.242636
H30   H     H_    0.684656 0.769342 0.125776 0.217666
H31   H     H_    0.767275 0.673603 0.130906 0.211377
H32   H     H_    0.393724 0.390257 0.766305 0.246788
H33   H     H_    0.432826 0.269283 0.788467 0.242367
H34   H     H_    0.982802 0.298865 0.652576 0.145687
H35   H     H_    0.354384 0.335425 0.722048 0.252664
H36   H     H_    0.280671 0.256961 0.882116 0.259452
H37   H     H_    0.243863 0.378051 0.844116 0.208012
H38   H     H_    0.700477 0.360360 0.993820 0.147781
H39   H     H_    0.273548 0.582542 0.113662 0.140051
H40   H     H_    0.322236 0.939266 0.662591 0.146419
H41   H     H_    0.702711 0.997699 0.350690 0.147047
H42   H     H_    0.653413 0.359358 0.893990 0.151230
N1    N     N_1   0.350156 0.159192 0.789438 -0.299790
N2    N     N_1   0.389068 0.766141 0.218589 -0.300549
N3    N     N_1   0.870252 0.679844 0.185099 -0.330516
N4    N     N_1   0.133120 0.320310 0.841959 -0.290190
N5    N     N_1   0.603188 0.758570 0.271793 -0.322333
N6    N     N_1   0.214107 0.767470 0.380042 -0.316598
N7    N     N_1   0.838655 0.219503 0.656828 -0.327400
N8    N     N_1   0.813281 0.325756 0.126054 -0.286220
N9    N     N_1   0.138760 0.449623 0.197855 -0.298033
N10   N     N_1   0.169398 0.877725 0.674929 -0.299753
N11   N     N_1   0.796903 0.140203 0.332545 -0.305391
N12   N     N_1   0.659894 0.185175 0.863219 -0.303772
O1    O     O_R   0.124540 0.978640 0.385460 -0.591199
O2    O     O_R   0.124540 0.385460 0.978640 -0.568247
O3    O     O_R   0.021360 0.875460 0.614540 -0.571443
O4    O     O_R   0.978640 0.124540 0.385460 -0.579290
O5    O     O_R   0.013780 0.867370 0.487190 -0.581411
O6    O     O_R   0.986220 0.132630 0.512810 -0.576463
O7    O     O_R   0.867370 0.487190 0.013780 -0.582405
O8    O     O_R   0.132630 0.512810 0.986220 -0.586005
O9    O     O_R   0.487190 0.013780 0.867370 -0.573363
O10   O     O_R   0.512810 0.986220 0.132630 -0.581356
O11   O     O_R   0.512810 0.132630 0.986220 -0.574848
O12   O     O_R   0.875460 0.021360 0.614540 -0.576263
O13   O     O_R   0.487190 0.867370 0.013780 -0.581722
O14   O     O_R   0.986220 0.512810 0.132630 -0.581223
O15   O     O_R   0.013780 0.487190 0.867370 -0.575482
O16   O     O_R   0.132630 0.986220 0.512810 -0.578236
O17   O     O_R   0.867370 0.013780 0.487190 -0.582017
O18   O     O_R   0.978640 0.385460 0.124540 -0.573117
O19   O     O_R   0.021360 0.614540 0.875460 -0.592214
O20   O     O_R   0.385460 0.124540 0.978640 -0.566098
O21   O     O_R   0.614540 0.875460 0.021360 -0.588297
O22   O     O_R   0.614540 0.021360 0.875460 -0.569636
O23   O     O_R   0.385460 0.978640 0.124540 -0.586692
O24   O     O_R   0.875460 0.614540 0.021360 -0.575908

loop_
_geom_bond_atom_site_label_1
_geom_bond_atom_site_label_2
_ccdc_geom_bond_type
C66   C99   A    
C73   C100  A    
C11   H16   S    
C29   C114  S    
C14   H22   S    
C60   C79   S    
C26   C112  S    
C23   C69   A    
C2    O15   A    
C57   H38   S    
C87   C92   A    
C28   C74   A    
Cu6   O11   S    
C15   H31   S    
C72   C85   A    
C22   C55   A    
C24   C70   A    
C23   C56   A    
C22   C108  S    
C112  N10   T    
C9    H10   S    
C40   C46   A    
C66   C79   A    
Cu6   O22   S    
C38   O7    A    
C16   H27   S    
C61   H41   S    
C68   C81   A    
C10   C95   S    
C20   C66   A    
C11   H18   S    
C19   C87   S    
C58   H39   S    
C19   O12   A    
C21   C54   A    
C81   C95   A    
C6    C92   S    
C43   C52   A    
C5    N4    T    
C1    C81   S    
C15   C16   S    
C104  O18   A    
C45   C62   A    
C26   C73   A    
C4    N3    T    
C36   C102  A    
C51   C56   A    
C65   H4    S    
C12   H26   S    
Cu4   O19   S    
C35   C42   A    
Cu1   O1    S    
C85   C98   A    
C86   C94   A    
C1    O3    A    
C8    C9    S    
C13   C86   S    
C42   C65   A    
C34   C100  A    
C27   O4    A    
C31   C77   A    
C16   H29   S    
C34   C46   A    
C74   C87   A    
C70   C84   A    
C26   C59   A    
C111  N9    T    
C18   H32   S    
C52   C55   A    
C42   C51   A    
C39   C45   A    
C5    C32   S    
Cu1   O17   S    
C28   C61   A    
C76   C103  A    
C9    H11   S    
C32   C65   A    
C108  N6    T    
C14   H21   S    
Cu2   O3    S    
C21   C67   A    
C78   C101  A    
C4    C31   S    
C77   C102  A    
C93   O21   A    
C34   C41   A    
C10   H20   S    
C15   C97   S    
C6    H9    S    
C104  O14   A    
C31   C64   A    
C71   C80   S    
C109  N7    T    
C43   C64   A    
C71   O23   A    
C6    C7    S    
C20   C106  S    
Cu4   O8    S    
C44   C63   A    
C23   C109  S    
C107  N5    T    
C77   C90   A    
Cu6   O21   S    
C55   H23   S    
C82   O11   A    
C8    H14   S    
C33   C40   A    
C49   C85   S    
C8    C94   S    
C27   O6    A    
C41   C59   A    
C56   H34   S    
C10   C11   S    
C37   C103  A    
Cu4   O14   S    
C70   C103  A    
C24   C57   A    
C69   C102  A    
Cu2   O12   S    
Cu1   O5    S    
C13   O16   A    
C89   C97   A    
C33   C99   A    
C12   H25   S    
C3    C30   S    
C69   C83   A    
Cu3   O18   S    
C30   C76   A    
C59   H40   S    
C68   C101  A    
C14   H24   S    
C90   C104  S    
C46   C54   A    
C38   O24   A    
C17   C18   S    
C41   C47   A    
C24   C110  S    
C25   C72   A    
Cu5   O9    S    
C106  N1    T    
C7    H5    S    
C90   C96   A    
C18   H33   S    
C22   C68   A    
C79   C92   A    
C21   C107  S    
C36   C51   A    
Cu3   O15   S    
C3    N2    T    
C93   O13   A    
Cu3   O2    S    
C49   O2    A    
C12   C14   S    
C75   C105  A    
Cu2   O6    S    
C33   C47   A    
C10   H19   S    
C84   C97   A    
C80   C94   A    
Cu4   O24   S    
C110  N8    T    
C63   H2    S    
C17   H37   S    
C60   O22   A    
C113  N11   T    
C17   C98   S    
C39   C105  A    
Cu2   O16   S    
C29   C62   A    
C38   C84   S    
Cu5   O23   S    
C50   C57   A    
C71   O10   A    
C67   C80   A    
C20   C53   A    
C35   C101  A    
Cu5   Cu6   S    
C48   C58   A    
C74   C99   A    
C29   C75   A    
C78   C91   A    
C64   H3    S    
C54   H12   S    
C76   C89   A    
C47   C53   A    
C16   H28   S    
Cu5   O20   S    
C2    O19   A    
C37   C44   A    
C27   C83   S    
C11   H17   S    
C6    H8    S    
C67   C100  A    
Cu3   Cu4   S    
C37   C50   A    
C1    O5    A    
Cu1   Cu2   S    
C62   H42   S    
C45   C50   A    
C60   O9    A    
C82   C88   S    
C83   C96   A    
Cu3   O7    S    
C25   C111  S    
C7    H6    S    
C89   C93   S    
C2    C91   S    
Cu5   O13   S    
C73   C86   A    
C82   O20   A    
Cu1   O4    S    
C28   C113  S    
C40   C61   A    
C32   C78   A    
C49   O8    A    
C75   C88   A    
C114  N12   T    
C72   C105  A    
C91   C95   A    
C25   C58   A    
C35   C52   A    
Cu6   O10   S    
C13   O1    A    
C12   C96   S    
C36   C43   A    
C53   H1    S    
C7    H7    S    
C30   C63   A    
C17   H36   S    
C15   H30   S    
C88   C98   A    
C18   H35   S    
C44   C48   A    
C19   O17   A    
C39   C48   A    
C8    H15   S    
C9    H13   S    
