data_mof_unit_42055.cif
_audit_creation_date              2012-10-26T21:06:32-0400
_audit_creation_method            fapswitch 2.2
_symmetry_space_group_name_H-M    P1
_symmetry_Int_Tables_number       1
_space_group_crystal_system       triclinic
_cell_length_a                    15.879244
_cell_length_b                    10.891258
_cell_length_c                    9.529365
_cell_angle_alpha                 90.305451
_cell_angle_beta                  90.437533
_cell_angle_gamma                 91.07741
_cell_volume                      1647.69137127

loop_
_atom_site_label
_atom_site_type_symbol
_atom_type_description
_atom_site_fract_x
_atom_site_fract_y
_atom_site_fract_z
_atom_type_partial_charge
C1    C     C_R   0.507677 0.262774 0.499461 0.552172
C2    C     C_R   0.565258 0.552067 0.075454 0.015545
C3    C     C_R   0.339859 0.498674 0.499426 0.549927
C4    C     C_R   0.660218 0.499199 0.500775 0.523744
C5    C     C_3   0.970893 0.381506 0.556643 -0.118492
C6    C     C_3   0.029369 0.599141 0.458163 -0.094836
C7    C     C_3   0.024806 0.398927 0.423137 0.049362
C8    C     C_3   0.975385 0.581506 0.591705 0.049300
C9    C     C_1   0.250291 0.494720 0.498233 -0.048217
C10   C     C_1   0.749866 0.495746 0.503786 -0.058486
C11   C     C_3   0.030335 0.472723 0.637053 0.041583
C12   C     C_R   0.500813 0.738224 0.500587 0.553552
C13   C     C_3   0.970522 0.507860 0.377908 0.050188
C14   C     C_3   0.083272 0.489093 0.503788 0.036495
C15   C     C_3   0.917165 0.491207 0.510641 0.023302
C16   C     C_1   0.174848 0.491386 0.499142 -0.077885
C17   C     C_1   0.825321 0.492830 0.508082 -0.085908
C18   C     C_R   0.538943 0.062303 0.375262 -0.033095
C19   C     C_R   0.491282 0.941340 0.624923 -0.029951
C20   C     C_3   0.057634 0.292579 0.334750 -0.269551
C21   C     C_3   0.986252 0.214720 0.270495 -0.447910
C22   C     C_3   0.942231 0.684681 0.685111 -0.270928
C23   C     C_R   0.539947 0.933725 0.381888 0.232405
C24   C     C_3   0.999995 0.798334 0.685068 -0.453353
C25   C     C_3   0.931198 0.535805 0.235739 -0.275598
C26   C     C_3   0.997288 0.555287 0.123477 -0.454288
C27   C     C_3   0.065257 0.440387 0.782030 -0.277287
C28   C     C_3   0.123870 0.540029 0.843251 -0.440806
C29   C     C_3   0.559258 0.122526 0.235252 -0.227821
C30   C     C_3   0.479914 0.133306 0.144695 -0.398958
C31   C     C_3   0.440565 0.890244 0.747154 -0.220370
C32   C     C_3   0.495985 0.847715 0.868551 -0.376045
C33   C     C_3   0.652648 0.838977 0.282915 0.010299
C34   C     C_R   0.513818 0.065586 0.628079 0.239131
C35   C     C_3   0.695703 0.843052 0.139683 -0.274139
C36   C     C_3   0.777188 0.771946 0.139777 -0.498025
C37   C     C_3   0.606123 0.165612 0.779380 0.038370
C38   C     C_3   0.662411 0.062129 0.830637 -0.295222
C39   C     C_3   0.752988 0.107542 0.853757 -0.497913
C40   C     C_R   0.508647 0.872715 0.502058 -0.045136
C41   C     C_R   0.521205 0.129348 0.499604 -0.055206
C42   C     C_R   0.435044 0.446762 0.073137 0.001189
C43   C     C_R   0.565345 0.552124 0.926901 -0.013150
C44   C     C_R   0.435201 0.446394 0.924516 0.015818
Cu1   Cu    Cu3+1 0.500000 0.500020 0.640660 0.921434
Cu2   Cu    Cu3+1 0.500000 0.499980 0.359340 0.930631
H1    H     H_    0.945630 0.293086 0.597667 0.092624
H2    H     H_    0.098821 0.328969 0.250499 0.137821
H3    H     H_    0.096411 0.233430 0.403301 0.137747
H4    H     H_    0.066303 0.773864 0.706621 0.152390
H5    H     H_    0.996707 0.844406 0.581529 0.139844
H6    H     H_    0.979227 0.863972 0.766776 0.130384
H7    H     H_    0.879143 0.711980 0.646548 0.139537
H8    H     H_    0.934820 0.650134 0.793597 0.134811
H9    H     H_    0.042619 0.629564 0.154593 0.147819
H10   H     H_    0.031664 0.469293 0.104875 0.154433
H11   H     H_    0.965451 0.582197 0.024773 0.130810
H12   H     H_    0.054926 0.687112 0.416492 0.097991
H13   H     H_    0.886635 0.460832 0.204042 0.139726
H14   H     H_    0.895555 0.621296 0.247348 0.141576
H15   H     H_    0.174633 0.565262 0.769122 0.164863
H16   H     H_    0.088022 0.622930 0.870204 0.149310
H17   H     H_    0.153727 0.505680 0.940795 0.129196
H18   H     H_    0.011739 0.423631 0.853989 0.130679
H19   H     H_    0.100642 0.353721 0.772844 0.139131
H20   H     H_    0.452936 0.040695 0.121096 0.164348
H21   H     H_    0.431128 0.186924 0.198967 0.161530
H22   H     H_    0.495742 0.179409 0.044547 0.158056
H23   H     H_    0.383018 0.403676 0.127805 0.104801
H24   H     H_    0.592878 0.211945 0.247898 0.156028
H25   H     H_    0.605031 0.068159 0.175836 0.154158
H26   H     H_    0.460550 0.779948 0.932998 0.151949
H27   H     H_    0.554468 0.805164 0.830155 0.152534
H28   H     H_    0.513166 0.926545 0.937103 0.167624
H29   H     H_    0.397550 0.961689 0.787060 0.152475
H30   H     H_    0.397468 0.814650 0.711830 0.146186
H31   H     H_    0.656456 0.745095 0.327119 0.167558
H32   H     H_    0.688358 0.902903 0.354935 0.095404
H33   H     H_    0.652930 0.804365 0.057206 0.165482
H34   H     H_    0.617693 0.594503 0.872355 0.104216
H35   H     H_    0.711175 0.939762 0.113136 0.140068
H36   H     H_    0.820940 0.809565 0.221418 0.142908
H37   H     H_    0.807810 0.780186 0.035802 0.141291
H38   H     H_    0.763549 0.673369 0.160188 0.138531
H39   H     H_    0.605627 0.238652 0.861218 0.155600
H40   H     H_    0.634614 0.208603 0.684668 0.131668
H41   H     H_    0.637767 0.027081 0.931126 0.153820
H42   H     H_    0.662074 0.985874 0.752714 0.156394
H43   H     H_    0.779774 0.142834 0.754121 0.144648
H44   H     H_    0.792056 0.030499 0.890824 0.143291
H45   H     H_    0.383393 0.402708 0.868014 0.120729
H46   H     H_    0.755326 0.181698 0.934267 0.141255
H47   H     H_    0.617631 0.593457 0.132043 0.119665
H48   H     H_    0.943060 0.180678 0.353365 0.145064
H49   H     H_    0.950231 0.268589 0.192964 0.147899
H50   H     H_    0.012972 0.134419 0.215440 0.129714
N1    N     N_R   0.500020 0.500030 0.852070 -0.226373
N2    N     N_R   0.499980 0.499970 0.147930 -0.220991
O1    O     O_R   0.500000 0.319660 0.618740 -0.456874
O2    O     O_3   0.521452 0.124179 0.757543 -0.562949
O3    O     O_R   0.500000 0.680340 0.381260 -0.445103
O4    O     O_R   0.499990 0.319630 0.381170 -0.516718
O5    O     O_R   0.500010 0.680370 0.618830 -0.514144
O6    O     O_R   0.379080 0.500000 0.618760 -0.505440
O7    O     O_R   0.620920 0.500000 0.381240 -0.521138
O8    O     O_R   0.379080 0.499970 0.381190 -0.500943
O9    O     O_R   0.620920 0.500030 0.618810 -0.513175
O10   O     O_3   0.566613 0.868515 0.265682 -0.557606

loop_
_geom_bond_atom_site_label_1
_geom_bond_atom_site_label_2
_ccdc_geom_bond_type
C3    O6    A    
C24   H6    S    
C6    H12   S    
C35   C36   S    
C19   C31   S    
C26   H9    S    
C1    O1    A    
C35   H35   S    
C32   H26   S    
Cu1   Cu2   S    
Cu2   O4    S    
C20   H3    S    
C3    C9    S    
C37   H39   S    
C37   C38   S    
C5    C11   S    
C42   N2    A    
C32   H28   S    
C38   C39   S    
C11   C14   S    
C33   H32   S    
C21   H48   S    
C36   H37   S    
C23   C40   A    
Cu2   O7    S    
Cu1   O5    S    
C31   H29   S    
C27   H18   S    
C7    C14   S    
C36   H36   S    
C8    C22   S    
C25   H14   S    
C39   H44   S    
C30   H21   S    
C28   H15   S    
C24   H5    S    
Cu2   N2    S    
C13   C25   S    
C33   O10   S    
C42   C44   A    
Cu2   O3    S    
C22   H7    S    
C3    O8    A    
C24   H4    S    
C4    O9    A    
C18   C23   A    
C37   H40   S    
C12   O5    A    
C22   H8    S    
Cu1   O1    S    
C18   C41   A    
C32   H27   S    
C5    C7    S    
C6    C8    S    
C21   H49   S    
C43   H34   S    
C42   H23   S    
C38   H42   S    
C12   C40   S    
C34   C41   A    
C29   C30   S    
C27   H19   S    
Cu1   O6    S    
C6    C14   S    
C5    H1    S    
C44   N1    A    
C34   O2    S    
C31   C32   S    
C11   C27   S    
C2    C43   A    
C18   C29   S    
C20   H2    S    
C30   H20   S    
C44   H45   S    
C1    C41   S    
C8    C15   S    
C13   C15   S    
C14   C16   S    
C4    C10   S    
C39   H46   S    
C29   H24   S    
C15   C17   S    
C9    C16   T    
C2    H47   S    
C43   N1    A    
C19   C34   A    
C26   H10   S    
C21   H50   S    
C25   H13   S    
C4    O7    A    
C38   H41   S    
C25   C26   S    
C12   O3    A    
Cu1   N1    S    
C6    C13   S    
C33   H31   S    
C31   H30   S    
C36   H38   S    
C8    C11   S    
C23   O10   S    
Cu2   O8    S    
C35   H33   S    
C33   C35   S    
C22   C24   S    
C26   H11   S    
C5    C15   S    
C19   C40   A    
C28   H17   S    
C7    C13   S    
C20   C21   S    
C2    N2    A    
C7    C20   S    
C27   C28   S    
C10   C17   T    
C1    O4    A    
C39   H43   S    
C37   O2    S    
C30   H22   S    
Cu1   O9    S    
C29   H25   S    
C28   H16   S    
