data_mof_unit_63812.cif
_audit_creation_date              2012-10-26T20:08:29-0400
_audit_creation_method            fapswitch 2.2
_symmetry_space_group_name_H-M    P1
_symmetry_Int_Tables_number       1
_space_group_crystal_system       triclinic
_cell_length_a                    15.974615
_cell_length_b                    14.431719
_cell_length_c                    13.144935
_cell_angle_alpha                 90.000202
_cell_angle_beta                  90.000234
_cell_angle_gamma                 90.000184
_cell_volume                      3030.44849478

loop_
_atom_site_label
_atom_site_type_symbol
_atom_type_description
_atom_site_fract_x
_atom_site_fract_y
_atom_site_fract_z
_atom_type_partial_charge
C1    C     C_R   0.500015 0.328699 0.500000 0.552410
C2    C     C_1   0.500000 0.500025 0.949319 -0.011734
C3    C     C_R   0.338069 0.500031 0.500000 0.560257
C4    C     C_R   0.661931 0.500099 0.500000 0.560258
C5    C     C_R   0.499985 0.671304 0.500000 0.553749
C6    C     C_3   0.048642 0.446760 0.594374 0.265474
C7    C     C_3   0.048642 0.451222 0.402762 0.265557
C8    C     C_3   0.951351 0.446761 0.594372 0.265477
C9    C     C_3   0.951350 0.451224 0.402764 0.265558
C10   C     C_1   0.751018 0.499999 0.500000 0.020007
C11   C     C_1   0.248982 0.499959 0.499999 0.020000
C12   C     C_1   0.500009 0.142302 0.500000 -0.023577
C13   C     C_3   0.082299 0.499742 0.499993 -0.016449
C14   C     C_3   0.917700 0.499748 0.499994 -0.016444
C15   C     C_3   0.951543 0.600456 0.502822 -0.199191
C16   C     C_3   0.048467 0.600452 0.502821 -0.199176
C17   C     C_1   0.826086 0.499892 0.499998 0.037431
C18   C     C_1   0.173913 0.499873 0.499996 0.037416
C19   C     C_1   0.500013 0.227125 0.500000 -0.028848
C20   C     C_1   0.500003 0.042412 0.500000 0.018324
C21   C     C_1   0.499998 0.957591 0.500000 0.018604
C22   C     C_1   0.499992 0.857701 0.500000 -0.022696
C23   C     C_1   0.499988 0.772878 0.500000 -0.027581
C24   C     C_1   0.500000 0.500024 0.173623 0.156590
C25   C     C_1   0.500000 0.500024 0.826377 0.156618
C26   C     C_1   0.500000 0.500025 0.050681 -0.011743
Cu1   Cu    Cu3+1 0.500000 0.499990 0.592680 1.026024
Cu2   Cu    Cu3+1 0.500000 0.499990 0.407320 1.025946
F1    F     F_    0.078942 0.495111 0.316317 -0.541516
F2    F     F_    0.078943 0.486569 0.683172 -0.541497
F3    F     F_    0.921049 0.495110 0.316320 -0.541521
F4    F     F_    0.921050 0.486565 0.683171 -0.541499
H1    H     H_    0.928695 0.373831 0.592151 0.075997
H2    H     H_    0.928694 0.378287 0.400888 0.076398
H3    H     H_    0.071294 0.373831 0.592157 0.075997
H4    H     H_    0.071292 0.378285 0.400883 0.076396
H5    H     H_    0.071728 0.636757 0.571963 0.183393
H6    H     H_    0.071726 0.639928 0.435806 0.183037
H7    H     H_    0.928289 0.636761 0.571967 0.183395
H8    H     H_    0.928288 0.639934 0.435808 0.183035
N1    N     N_1   0.500000 0.500020 0.268070 -0.157279
N2    N     N_1   0.500000 0.500020 0.731930 -0.157270
O1    O     O_R   0.500000 0.376050 0.578280 -0.473480
O2    O     O_R   0.500000 0.376050 0.421720 -0.473822
O3    O     O_R   0.379430 0.500000 0.578300 -0.477934
O4    O     O_R   0.379430 0.500000 0.421700 -0.477995
O5    O     O_R   0.620570 0.500000 0.578300 -0.477934
O6    O     O_R   0.620570 0.500000 0.421700 -0.477996
O7    O     O_R   0.500000 0.623940 0.578240 -0.473249
O8    O     O_R   0.500000 0.623940 0.421760 -0.472918

loop_
_geom_bond_atom_site_label_1
_geom_bond_atom_site_label_2
_ccdc_geom_bond_type
C25   N2    T    
Cu2   O2    S    
C9    C14   S    
C11   C18   T    
C7    F1    S    
C7    H4    S    
C1    O2    A    
Cu1   N2    S    
C16   H5    S    
Cu2   O4    S    
C12   C20   S    
C3    O3    A    
C2    C26   T    
C21   C22   S    
C6    H3    S    
C6    C13   S    
C24   N1    T    
C14   C17   S    
C15   H7    S    
C13   C18   S    
C6    C8    S    
C12   C19   T    
C6    F2    S    
C24   C26   S    
C2    C25   S    
C8    H1    S    
C9    H2    S    
C5    O8    A    
C15   H8    S    
C5    O7    A    
C1    C19   S    
Cu1   O3    S    
C9    F3    S    
C10   C17   T    
C4    C10   S    
C15   C16   S    
C8    F4    S    
Cu1   O1    S    
Cu2   N1    S    
C7    C13   S    
C3    C11   S    
C20   C21   T    
C4    O6    A    
C13   C16   S    
Cu1   O5    S    
Cu1   Cu2   S    
C7    C9    S    
C14   C15   S    
Cu2   O6    S    
C8    C14   S    
C3    O4    A    
C22   C23   T    
Cu2   O8    S    
C1    O1    A    
Cu1   O7    S    
C16   H6    S    
C4    O5    A    
C5    C23   S    
