data_mof_unit_35563.cif
_audit_creation_date              2012-12-11T17:29:57-0500
_audit_creation_method            fapswitch 2.2
_symmetry_space_group_name_H-M    P1
_symmetry_Int_Tables_number       1
_space_group_crystal_system       triclinic
_cell_length_a                    19.154721
_cell_length_b                    19.37828
_cell_length_c                    20.304406
_cell_angle_alpha                 107.437686
_cell_angle_beta                  105.760676
_cell_angle_gamma                 112.384489
_cell_volume                      5979.23809412

loop_
_atom_site_label
_atom_site_type_symbol
_atom_type_description
_atom_site_fract_x
_atom_site_fract_y
_atom_site_fract_z
_atom_type_partial_charge
C1    C     C_R   0.086227 0.087537 0.353944 -0.143554
C2    C     C_R   0.235751 0.076378 0.492779 -0.202487
C3    C     C_R   0.153268 0.222361 0.710368 0.337248
C4    C     C_R   0.755144 0.927035 0.489183 -0.152070
C5    C     C_R   0.021882 0.778946 0.452471 -0.151971
C6    C     C_R   0.232354 0.269243 0.715329 -0.013316
C7    C     C_R   0.982243 0.734466 0.485105 0.084927
C8    C     C_R   0.238888 0.011350 0.444519 0.034634
C9    C     C_R   0.017929 0.980770 0.726879 0.089417
C10   C     C_R   0.055653 0.659669 0.498134 -0.228085
C11   C     C_R   0.980665 0.660148 0.482178 0.102090
C12   C     C_R   0.746997 0.996467 0.518482 0.083542
C13   C     C_R   0.904843 0.589293 0.458691 -0.277578
C14   C     C_R   0.904075 0.515897 0.451792 0.157019
C15   C     C_R   0.980637 0.515617 0.470571 0.072100
C16   C     C_R   0.840591 0.819004 0.280863 -0.124898
C17   C     C_R   0.056331 0.587646 0.492842 0.105693
C18   C     C_R   0.828596 0.443342 0.427052 -0.215662
C19   C     C_R   0.829079 0.370777 0.422874 -0.189473
C20   C     C_R   0.905269 0.371468 0.445179 0.187392
C21   C     C_R   0.981785 0.444221 0.468933 -0.096480
C22   C     C_R   0.059675 0.446625 0.494271 -0.181021
C23   C     C_R   0.759440 0.796863 0.272573 0.037528
C24   C     C_R   0.134936 0.516903 0.511463 0.597728
C25   C     C_R   0.131562 0.587135 0.509253 -0.429472
C26   C     C_R   0.906564 0.301057 0.445678 -0.313708
C27   C     C_R   0.983308 0.305707 0.475406 -0.103192
C28   C     C_R   0.960473 0.205650 0.529556 -0.166771
C29   C     C_R   0.060209 0.379443 0.505139 0.547228
C30   C     C_R   0.387671 0.096874 0.476957 -0.258132
C31   C     C_R   0.310346 0.023214 0.425794 0.127735
C32   C     C_R   0.308509 0.957353 0.370705 -0.254631
C33   C     C_R   0.382443 0.956163 0.379079 0.131765
C34   C     C_R   0.984533 0.235153 0.480843 0.104312
C35   C     C_R   0.458628 0.023843 0.440752 0.029353
C36   C     C_R   0.461803 0.096512 0.487005 0.138801
C37   C     C_R   0.380204 0.884691 0.332338 -0.205303
C38   C     C_R   0.452005 0.877741 0.350577 -0.202940
C39   C     C_R   0.526066 0.941990 0.415842 0.142075
C40   C     C_R   0.762023 0.811193 0.344837 -0.122931
C41   C     C_R   0.529985 0.016254 0.460043 0.026688
C42   C     C_R   0.603936 0.081208 0.526057 0.144336
C43   C     C_R   0.608180 0.155560 0.568739 -0.207221
C44   C     C_R   0.537368 0.163536 0.548792 -0.206216
C45   C     C_R   0.232735 0.225174 0.647820 -0.191048
C46   C     C_R   0.596361 0.933443 0.438006 -0.260145
C47   C     C_R   0.669511 0.997923 0.503988 0.115882
C48   C     C_R   0.672378 0.070554 0.548677 -0.268971
C49   C     C_R   0.294918 0.356297 0.771978 0.149856
C50   C     C_R   0.306967 0.382242 0.848197 -0.196247
C51   C     C_R   0.363954 0.464530 0.902444 -0.177860
C52   C     C_R   0.036988 0.208857 0.462520 -0.063874
C53   C     C_R   0.411724 0.522674 0.881841 0.235146
C54   C     C_R   0.401191 0.496439 0.805985 -0.182287
C55   C     C_R   0.342499 0.413801 0.750976 -0.195938
C56   C     C_R   0.937729 0.767483 0.511667 -0.143501
C57   C     C_R   0.622768 0.723197 0.064771 -0.163908
C58   C     C_R   0.693788 0.760446 0.133432 -0.185972
C59   C     C_R   0.542642 0.693528 0.063613 0.220596
C60   C     C_R   0.686225 0.769135 0.202007 0.148014
C61   C     C_R   0.607395 0.748882 0.201742 -0.176062
C62   C     C_R   0.536405 0.711739 0.132995 -0.185353
C63   C     C_R   0.107320 0.029191 0.236130 0.144894
C64   C     C_R   0.825301 0.066946 0.552883 -0.133624
C65   C     C_R   0.112728 0.961633 0.192308 -0.189659
C66   C     C_R   0.143687 0.966114 0.138282 -0.163913
C67   C     C_R   0.166144 0.937823 0.424191 0.347065
C68   C     C_R   0.168989 0.038285 0.126724 0.221676
C69   C     C_R   0.172038 0.108552 0.176081 -0.179818
C70   C     C_R   0.140817 0.104036 0.230045 -0.181306
C71   C     C_R   0.171050 0.031245 0.921857 -0.384528
C72   C     C_R   0.140279 0.037865 0.853503 0.570210
C73   C     C_R   0.121343 0.963386 0.931633 0.208137
C74   C     C_R   0.058334 0.974576 0.796185 0.008128
C75   C     C_R   0.013467 0.903581 0.804207 -0.262654
C76   C     C_R   0.017626 0.948672 0.289411 -0.130127
C77   C     C_R   0.045371 0.897717 0.870894 -0.172911
C78   C     C_R   0.032104 0.053299 0.719202 -0.085102
C79   C     C_R   0.066434 0.021845 0.287467 0.046365
C80   C     C_3   0.124447 0.856381 0.353663 -1.113789
C81   C     C_3   0.110305 0.257642 0.750127 -1.102300
C82   C     C_3   0.141877 0.399466 0.623430 0.199783
C83   C     C_3   0.203571 0.491227 0.681954 -0.294407
C84   C     C_3   0.206234 0.507617 0.761193 -1.002573
C85   C     C_3   0.282630 0.584623 0.574763 0.210276
C86   C     C_3   0.331482 0.622452 0.534245 -0.293667
C87   C     C_3   0.412709 0.704511 0.591660 -1.017790
C88   C     C_3   0.257814 0.173502 0.900610 0.197541
C89   C     C_R   0.962288 0.913668 0.654933 -0.143923
C90   C     C_3   0.233183 0.226103 0.952457 -0.355456
C91   C     C_3   0.310618 0.306551 0.018175 -0.998507
H1    H     H_    0.134722 0.151965 0.377291 0.095972
H2    H     H_    0.707901 0.862411 0.466809 0.090581
H3    H     H_    0.770431 0.314943 0.404347 0.129181
H4    H     H_    0.848635 0.243793 0.426095 0.154208
H5    H     H_    0.187066 0.641836 0.520586 0.149713
H6    H     H_    0.391400 0.150674 0.517542 0.120784
H7    H     H_    0.250801 0.903547 0.325489 0.145027
H8    H     H_    0.322124 0.832616 0.284201 0.130769
H9    H     H_    0.448797 0.821035 0.315482 0.128113
H10   H     H_    0.594876 0.878058 0.402467 0.118197
H11   H     H_    0.862375 0.816724 0.237022 0.094352
H12   H     H_    0.891693 0.740334 0.531042 0.091566
H13   H     H_    0.728539 0.119965 0.600234 0.120052
H14   H     H_    0.665398 0.206390 0.618662 0.130396
H15   H     H_    0.540377 0.219902 0.584374 0.130392
H16   H     H_    0.753595 0.778186 0.131378 0.114279
H17   H     H_    0.630197 0.711806 0.012225 0.124660
H18   H     H_    0.439203 0.539748 0.789793 0.117245
H19   H     H_    0.334177 0.395232 0.692284 0.123278
H20   H     H_    0.598997 0.757137 0.253514 0.107686
H21   H     H_    0.373640 0.481598 0.961420 0.130480
H22   H     H_    0.475280 0.689751 0.133068 0.119353
H23   H     H_    0.071881 0.116555 0.764193 0.150868
H24   H     H_    0.926793 0.222481 0.560092 0.106409
H25   H     H_    0.273952 0.338379 0.866469 0.139834
H26   H     H_    0.231329 0.078899 0.969203 0.141668
H27   H     H_    0.191418 0.164466 0.167935 0.123230
H28   H     H_    0.138562 0.157586 0.263738 0.119210
H29   H     H_    0.951299 0.854129 0.760432 0.142003
H30   H     H_    0.142528 0.911291 0.102185 0.123525
H31   H     H_    0.007064 0.845085 0.877955 0.128803
H32   H     H_    0.090615 0.904149 0.197514 0.108989
H33   H     H_    0.710069 0.799629 0.359190 0.087648
H34   H     H_    0.938405 0.848567 0.640845 0.102030
H35   H     H_    0.071452 0.226316 0.430480 0.115290
H36   H     H_    0.843395 0.130914 0.586756 0.087827
H37   H     H_    0.000885 0.886171 0.252084 0.093671
H38   H     H_    0.278620 0.248238 0.626931 0.113691
H39   H     H_    0.123228 0.867658 0.303156 0.244514
H40   H     H_    0.156773 0.820633 0.361948 0.258405
H41   H     H_    0.057505 0.818468 0.339788 0.255803
H42   H     H_    0.130087 0.263784 0.809102 0.245978
H43   H     H_    0.125370 0.319856 0.752527 0.261443
H44   H     H_    0.041141 0.215852 0.718083 0.255767
H45   H     H_    0.273681 0.142224 0.509996 0.111561
H46   H     H_    0.166201 0.360308 0.639415 0.132348
H47   H     H_    0.080898 0.379603 0.627461 0.077983
H48   H     H_    0.267349 0.507785 0.686072 0.200694
H49   H     H_    0.184367 0.531974 0.663044 0.189654
H50   H     H_    0.144044 0.495723 0.759259 0.264002
H51   H     H_    0.253781 0.573883 0.802740 0.272704
H52   H     H_    0.223484 0.466691 0.781437 0.280689
H53   H     H_    0.321158 0.567628 0.611103 0.119367
H54   H     H_    0.274717 0.631365 0.615170 0.067221
H55   H     H_    0.346888 0.577335 0.502142 0.208373
H56   H     H_    0.055034 0.763642 0.420584 0.124211
H57   H     H_    0.292678 0.634155 0.492226 0.197261
H58   H     H_    0.398641 0.751280 0.623092 0.269881
H59   H     H_    0.447071 0.729822 0.560689 0.274181
H60   H     H_    0.453464 0.694029 0.633422 0.265897
H61   H     H_    0.291959 0.212139 0.876891 0.135730
H62   H     H_    0.303409 0.159549 0.932466 0.095491
H63   H     H_    0.192083 0.242314 0.917839 0.198994
H64   H     H_    0.197636 0.190278 0.977154 0.203026
H65   H     H_    0.351330 0.291578 0.054879 0.268491
H66   H     H_    0.290925 0.343842 0.053902 0.271218
H67   H     H_    0.113602 0.715992 0.515675 0.130327
H68   H     H_    0.347049 0.344782 0.995490 0.262769
H69   H     H_    0.846916 0.591096 0.444441 0.126920
H70   H     H_    0.769635 0.443007 0.411648 0.131384
N1    N     N_R   0.052570 0.055840 0.395080 -0.039044
N2    N     N_2   0.468533 0.629598 0.996474 -0.105233
N3    N     N_2   0.174113 0.037151 0.058136 -0.098804
N4    N     N_R   0.834730 0.954500 0.499860 -0.037564
N5    N     N_2   0.137200 0.965113 0.004440 -0.095316
N6    N     N_R   0.890190 0.849120 0.355200 -0.041097
N7    N     N_R   0.997110 0.161210 0.539740 -0.043530
N8    N     N_R   0.841940 0.845190 0.395070 -0.040701
N9    N     N_R   0.045360 0.165140 0.499870 -0.052747
N10   N     N_R   0.877490 0.041590 0.539730 -0.037909
N11   N     N_R   0.009810 0.968740 0.355210 -0.036232
N12   N     N_R   0.954640 0.834860 0.500130 -0.037808
N13   N     N_R   0.158060 0.154810 0.604930 -0.049073
N14   N     N_R   0.122510 0.958410 0.460270 -0.055387
N15   N     N_R   0.990190 0.031260 0.644790 -0.052701
N16   N     N_R   0.947430 0.944160 0.604920 -0.042882
N17   N     N_R   0.165270 0.045500 0.500140 -0.050251
N18   N     N_R   0.109810 0.150880 0.644800 -0.052617
N19   N     N_R   0.002890 0.838790 0.460260 -0.039092
N20   N     N_2   0.480303 0.601966 0.939115 -0.107421
Ni1   Ni    Ni4+2 0.104370 0.104380 0.500010 0.211597
Ni2   Ni    Ni4+2 0.895630 0.895620 0.499990 0.213771
Ni3   Ni    Ni4+2 0.006290 0.904630 0.408560 0.211605
Ni4   Ni    Ni4+2 0.993710 0.095370 0.591440 0.208728
O1    O     O_3   0.135139 0.387212 0.548832 -0.635793
O2    O     O_3   0.206426 0.509915 0.519901 -0.623479
O3    O     O_3   0.186610 0.100694 0.837118 -0.685129

loop_
_geom_bond_atom_site_label_1
_geom_bond_atom_site_label_2
_ccdc_geom_bond_type
C85   O2    S    
C66   C68   A    
C63   C65   A    
C45   H38   S    
C51   H21   S    
C80   H41   S    
C6    C45   A    
C27   C29   A    
C41   C42   A    
C14   C18   A    
C35   C36   A    
C76   C79   A    
C3    C6    A    
N13   Ni1   S    
C83   H48   S    
C57   C58   A    
N15   Ni4   S    
N6    N8    A    
C63   C79   S    
C53   C54   A    
C4    N4    A    
C7    C11   S    
C30   H6    S    
C26   C27   A    
C75   H29   S    
C82   O1    S    
C24   O2    S    
C5    H56   S    
C22   C29   A    
C85   H54   S    
N1    Ni1   S    
C82   H46   S    
C30   C31   A    
C12   C64   A    
C18   H70   S    
C57   C59   A    
N2    N20   D    
C16   N6    A    
C58   C60   A    
C23   C40   A    
C48   H13   S    
C69   H27   S    
C29   O1    S    
C58   H16   S    
C43   H14   S    
C76   N11   A    
C3    N18   A    
C72   O3    S    
C77   H31   S    
C46   C47   A    
N8    Ni2   S    
C47   C48   A    
C67   N14   A    
C68   C69   A    
C87   H59   S    
C3    C81   S    
C89   N16   A    
C4    C12   A    
C10   H67   S    
C13   H69   S    
C91   H68   S    
C61   C62   A    
N7    N9    A    
C28   C34   A    
C80   H40   S    
C87   H60   S    
C13   C14   A    
N9    Ni1   S    
C78   N15   A    
C88   H61   S    
C78   H23   S    
C7    C56   A    
C12   C47   S    
C86   H55   S    
C85   H53   S    
C40   N8    A    
C81   H44   S    
N14   N17   A    
C68   N3    S    
C27   C34   S    
C23   C60   S    
C40   H33   S    
C46   H10   S    
C80   H39   S    
C74   C75   A    
C71   H26   S    
N4    Ni2   S    
C81   H43   S    
C59   N2    S    
C24   C25   A    
C62   H22   S    
C72   C74   A    
C52   N9    A    
C5    C7    A    
N10   Ni4   S    
C86   C87   S    
C18   C19   A    
C89   H34   S    
N12   N19   A    
C85   C86   S    
C82   C83   S    
C33   C37   A    
C54   H18   S    
C60   C61   A    
C51   C53   A    
C43   C44   A    
C5    N19   A    
C37   C38   A    
C28   H24   S    
C53   N20   S    
N11   Ni3   S    
N6    Ni3   S    
C63   C70   A    
C84   H51   S    
C70   H28   S    
C64   H36   S    
C50   C51   A    
C66   H30   S    
N1    N11   A    
C42   C48   A    
C75   C77   A    
N17   Ni1   S    
C19   H3    S    
N4    N10   A    
C25   H5    S    
C39   C46   A    
C38   H9    S    
N15   N16   A    
C88   C90   S    
C1    N1    A    
C49   C50   A    
C1    H1    S    
C55   H19   S    
C87   H58   S    
C76   H37   S    
C22   C24   A    
C83   C84   S    
C90   H63   S    
C9    C74   S    
C9    C89   A    
C10   C17   A    
C61   H20   S    
C37   H8    S    
C71   C73   A    
C16   H11   S    
C26   H4    S    
C15   C17   A    
C54   C55   A    
C59   C62   A    
C52   H35   S    
N7    Ni4   S    
C8    C31   S    
C31   C32   A    
C2    C8    A    
C67   C80   S    
C56   H12   S    
C73   N5    S    
C86   H57   S    
C81   H42   S    
N18   Ni4   S    
C44   H15   S    
C16   C23   A    
C39   C41   A    
C34   C52   A    
C84   H52   S    
C30   C36   A    
C56   N12   A    
C17   C25   A    
C88   H62   S    
C19   C20   A    
N3    N5    D    
C71   C72   A    
C82   H47   S    
C49   C55   A    
C45   N13   A    
C32   C33   A    
C11   C13   A    
C90   C91   S    
C38   C39   A    
C15   C21   A    
C20   C26   A    
C84   H50   S    
C64   N10   A    
C1    C79   A    
C33   C35   A    
C32   H7    S    
C50   H25   S    
C9    C78   A    
C65   H32   S    
C6    C49   S    
C69   C70   A    
C35   C41   A    
C2    H45   S    
C91   H66   S    
C36   C44   A    
C10   C11   A    
C28   N7    A    
C83   H49   S    
C4    H2    S    
C88   O3    S    
C57   H17   S    
C91   H65   S    
C20   C21   A    
N12   Ni2   S    
C8    C67   A    
C65   C66   A    
C42   C43   A    
C73   C77   A    
C14   C15   A    
N16   Ni2   S    
C2    N17   A    
C90   H64   S    
C21   C22   A    
N13   N18   A    
N19   Ni3   S    
N14   Ni3   S    
