data_mof_unit_10082.cif
_audit_creation_date              2012-12-11T15:50:40-0500
_audit_creation_method            fapswitch 2.2
_symmetry_space_group_name_H-M    P1
_symmetry_Int_Tables_number       1
_space_group_crystal_system       triclinic
_cell_length_a                    18.929264
_cell_length_b                    11.061897
_cell_length_c                    18.733324
_cell_angle_alpha                 89.941223
_cell_angle_beta                  90.435447
_cell_angle_gamma                 90.440498
_cell_volume                      3922.4065199

loop_
_atom_site_label
_atom_site_type_symbol
_atom_type_description
_atom_site_fract_x
_atom_site_fract_y
_atom_site_fract_z
_atom_type_partial_charge
C1    C     C_R   0.272787 0.038990 0.855103 0.524811
C2    C     C_R   0.743430 0.597416 0.918095 0.043546
C3    C     C_R   0.227752 0.541776 0.354802 0.550561
C4    C     C_R   0.469455 0.823077 0.646832 0.564906
C5    C     C_R   0.530397 0.824068 0.352867 0.561034
C6    C     C_R   0.970994 0.322962 0.647872 0.535303
C7    C     C_R   0.033017 0.323597 0.354434 0.577831
C8    C     C_R   0.258628 0.634939 0.645292 0.531857
C9    C     C_R   0.738996 0.636770 0.356402 0.581828
C10   C     C_R   0.758808 0.135513 0.644903 0.545785
C11   C     C_R   0.238969 0.136781 0.356420 0.561534
C12   C     C_3   0.485899 0.943457 0.025310 0.281199
C13   C     C_R   0.757708 0.098516 0.082410 0.020425
C14   C     C_3   0.526456 0.885287 0.964050 0.240526
C15   C     C_3   0.973069 0.395239 0.034329 0.258915
C16   C     C_3   0.016280 0.450747 0.973676 0.291867
C17   C     C_3   0.416648 0.882608 0.998323 -0.165718
C18   C     C_3   0.542676 0.775179 0.010528 -0.178087
C19   C     C_3   0.955205 0.286345 0.987286 -0.151297
C20   C     C_3   0.083230 0.387363 0.002767 -0.167662
C21   C     C_3   0.458952 0.823642 0.937624 0.001043
C22   C     C_3   0.500811 0.832203 0.071735 -0.000076
C23   C     C_3   0.000148 0.339597 0.926952 0.011174
C24   C     C_R   0.258087 0.063515 0.930211 -0.011623
C25   C     C_3   0.038028 0.329037 0.062344 -0.007556
C26   C     C_R   0.308424 0.546494 0.040825 -0.007013
C27   C     C_R   0.700491 0.526356 0.962268 0.017177
C28   C     C_R   0.799697 0.027157 0.038278 -0.004652
C29   C     C_R   0.212618 0.988385 0.970113 0.019581
C30   C     C_R   0.312403 0.561059 0.967164 0.009335
C31   C     C_R   0.697006 0.546724 0.035295 0.071458
C32   C     C_R   0.803351 0.048004 0.965140 0.074502
C33   C     C_R   0.730002 0.045895 0.148402 0.538800
C34   C     C_R   0.211222 0.996872 0.044519 0.002353
C35   C     C_R   0.206539 0.677852 0.969660 -0.115363
C36   C     C_R   0.775054 0.717756 0.021685 -0.073337
C37   C     C_R   0.727403 0.219546 0.978947 -0.085550
C38   C     C_R   0.311557 0.129097 0.041598 -0.133938
C39   C     C_R   0.205746 0.671644 0.043426 -0.140206
C40   C     C_R   0.780216 0.694693 0.948888 -0.038672
C41   C     C_R   0.723142 0.197519 0.052022 -0.061459
C42   C     C_R   0.309328 0.130099 0.967786 -0.166624
C43   C     C_3   0.333163 0.420026 0.036967 -0.259626
C44   C     C_R   0.770158 0.545745 0.851742 0.552140
C45   C     C_3   0.622784 0.498719 0.958189 -0.303925
C46   C     C_3   0.877393 0.003064 0.042582 -0.299432
C47   C     C_3   0.133624 0.977426 0.967322 -0.273846
C48   C     C_3   0.338708 0.436045 0.956904 -0.274809
C49   C     C_3   0.621911 0.505150 0.039331 -0.290975
C50   C     C_3   0.878683 0.010035 0.961546 -0.281774
C51   C     C_3   0.133563 0.984319 0.048208 -0.280776
C52   C     C_R   0.257578 0.617283 0.930037 0.010288
C53   C     C_R   0.732395 0.646547 0.065757 0.056676
C54   C     C_R   0.768115 0.147043 0.934494 0.057871
C55   C     C_R   0.228637 0.543602 0.147159 0.531691
C56   C     C_R   0.256620 0.076720 0.080765 0.008197
C57   C     C_R   0.502986 0.839502 0.423929 0.042324
C58   C     C_R   0.487111 0.828023 0.572190 0.031928
C59   C     C_R   0.015541 0.332377 0.428983 0.019835
C60   C     C_R   0.001704 0.324617 0.577361 0.013343
C61   C     C_R   0.438499 0.816715 0.862031 0.577548
C62   C     C_R   0.530256 0.821932 0.144303 0.548449
C63   C     C_R   0.970811 0.323477 0.854832 0.549716
C64   C     C_R   0.059762 0.318055 0.137577 0.578767
C65   C     C_R   0.455339 0.757822 0.453489 0.010806
C66   C     C_3   0.474341 0.712102 0.984060 -0.152115
C67   C     C_R   0.449672 0.750637 0.526377 0.029149
C68   C     C_R   0.997614 0.226002 0.463034 0.104141
C69   C     C_R   0.991347 0.221431 0.535281 0.048910
C70   C     C_R   0.527181 0.921654 0.542859 -0.172556
C71   C     C_R   0.535569 0.926818 0.468879 -0.152792
C72   C     C_R   0.031020 0.427933 0.545715 -0.171710
C73   C     C_R   0.037860 0.431873 0.471114 -0.165390
C74   C     C_3   0.446271 0.624352 0.444457 -0.265155
C75   C     C_3   0.445572 0.615961 0.525201 -0.241308
C76   C     C_3   0.936794 0.143540 0.449198 -0.276790
C77   C     C_3   0.432573 0.770360 0.045717 -0.170886
C78   C     C_3   0.928605 0.138909 0.529305 -0.238739
C79   C     C_R   0.246723 0.570857 0.426268 -0.029673
C80   C     C_R   0.761018 0.572546 0.572848 0.006828
C81   C     C_R   0.749023 0.076859 0.424904 -0.029713
C82   C     C_R   0.260713 0.074875 0.573168 0.011935
C83   C     C_R   0.225794 0.679049 0.455510 -0.013203
C84   C     C_R   0.819497 0.563693 0.528340 0.023411
C85   C     C_R   0.722293 0.180241 0.455605 -0.013549
C86   C     C_R   0.319339 0.066402 0.528771 0.031330
C87   C     C_R   0.225652 0.691449 0.527790 0.007331
C88   C     C_3   0.066203 0.276313 0.954669 -0.184488
C89   C     C_R   0.812564 0.568735 0.455890 -0.024898
C90   C     C_R   0.721732 0.190311 0.527934 -0.004386
C91   C     C_R   0.312484 0.071042 0.456353 -0.026660
C92   C     C_R   0.272790 0.489814 0.544610 0.180225
C93   C     C_R   0.685016 0.569507 0.470166 0.195246
C94   C     C_R   0.781499 0.998628 0.542341 0.188872
C95   C     C_R   0.184769 0.069388 0.470169 0.195822
C96   C     C_R   0.273172 0.477730 0.470719 -0.102850
C97   C     C_R   0.693573 0.568808 0.543678 -0.103365
C98   C     C_R   0.782983 0.989615 0.468284 -0.098051
C99   C     C_3   0.020877 0.219517 0.014890 -0.177568
C100  C     C_R   0.193255 0.071427 0.543799 -0.102831
C101  C     C_3   0.158185 0.746276 0.446498 -0.260640
C102  C     C_3   0.886618 0.635035 0.528473 -0.253460
C103  C     C_3   0.652362 0.241027 0.447501 -0.258086
C104  C     C_3   0.386344 0.138427 0.528901 -0.250236
C105  C     C_3   0.156184 0.754886 0.526740 -0.243205
C106  C     C_3   0.880267 0.638834 0.448030 -0.266385
C107  C     C_3   0.650727 0.248577 0.527943 -0.247526
C108  C     C_3   0.379922 0.141994 0.448444 -0.267553
C109  C     C_R   0.262238 0.642865 0.853997 0.542311
C110  C     C_R   0.252092 0.594448 0.079393 -0.006458
C111  C     C_R   0.726571 0.681273 0.140580 0.554924
C112  C     C_R   0.773519 0.181016 0.859292 0.563603
C113  C     C_R   0.240539 0.133394 0.149481 0.536302
C114  C     C_R   0.247701 0.598525 0.573140 0.015529
C115  C     C_R   0.745792 0.581939 0.425558 0.015014
C116  C     C_R   0.748241 0.099418 0.572455 0.007624
C117  C     C_R   0.245689 0.082374 0.425696 0.007790
C118  C     C_R   0.272022 0.045984 0.646248 0.547116
C119  C     C_R   0.728267 0.043112 0.354373 0.552148
C120  C     C_R   0.772196 0.545385 0.646057 0.548180
Cr1   Cr    Cr6+3 0.229640 0.835880 0.747370 1.033859
Cr2   Cr    Cr6+3 0.614230 0.677220 0.250660 1.021227
Cr3   Cr    Cr6+3 0.885770 0.177220 0.749340 1.028443
Cr4   Cr    Cr6+3 0.114230 0.177220 0.250660 1.019953
Cr5   Cr    Cr6+3 0.770360 0.835880 0.252630 1.031062
Cr6   Cr    Cr6+3 0.729640 0.335880 0.747370 1.044005
Cr7   Cr    Cr6+3 0.270360 0.335880 0.252630 1.020295
Cr8   Cr    Cr6+3 0.387390 0.989720 0.750850 1.075555
Cr9   Cr    Cr6+3 0.612610 0.989720 0.249150 1.078358
Cr10  Cr    Cr6+3 0.887390 0.489720 0.750850 1.090648
Cr11  Cr    Cr6+3 0.112610 0.489720 0.249150 1.028897
Cr12  Cr    Cr6+3 0.385770 0.677220 0.749340 1.027989
H1    H     H_    0.362948 0.918409 0.991910 0.137805
H2    H     H_    0.879999 0.184283 0.547597 0.152637
H3    H     H_    0.491307 0.577575 0.420038 0.205060
H4    H     H_    0.395686 0.581848 0.547415 0.175051
H5    H     H_    0.394627 0.601634 0.419319 0.129630
H6    H     H_    0.493851 0.573301 0.547834 0.169888
H7    H     H_    0.892361 0.189146 0.421178 0.130376
H8    H     H_    0.938871 0.048093 0.552466 0.183704
H9    H     H_    0.288524 0.391513 0.448698 0.163866
H10   H     H_    0.647599 0.564333 0.577811 0.139217
H11   H     H_    0.804636 0.908222 0.445485 0.160534
H12   H     H_    0.597812 0.743773 0.014167 0.120297
H13   H     H_    0.147264 0.066430 0.577886 0.142258
H14   H     H_    0.113310 0.692901 0.424598 0.154454
H15   H     H_    0.931489 0.581809 0.548334 0.148335
H16   H     H_    0.609061 0.183787 0.425772 0.154722
H17   H     H_    0.431800 0.085949 0.548658 0.149972
H18   H     H_    0.167851 0.833309 0.419174 0.133481
H19   H     H_    0.881548 0.724829 0.553999 0.207069
H20   H     H_    0.658496 0.329497 0.420718 0.135522
H21   H     H_    0.380897 0.228423 0.554250 0.202666
H22   H     H_    0.160125 0.847767 0.547505 0.167444
H23   H     H_    0.899650 0.255685 0.982105 0.131571
H24   H     H_    0.874116 0.732566 0.428040 0.163427
H25   H     H_    0.652525 0.342005 0.548686 0.164059
H26   H     H_    0.373389 0.235683 0.428442 0.164595
H27   H     H_    0.113124 0.699707 0.550788 0.132992
H28   H     H_    0.921560 0.585490 0.420718 0.144831
H29   H     H_    0.609315 0.190064 0.552172 0.132962
H30   H     H_    0.421478 0.089175 0.421180 0.145102
H31   H     H_    0.469727 0.616351 0.967052 0.140036
H32   H     H_    0.394753 0.725798 0.082289 0.143266
H33   H     H_    0.106449 0.239962 0.918081 0.127282
H34   H     H_    0.136267 0.429082 0.010306 0.133990
H35   H     H_    0.014533 0.123270 0.028689 0.129771
H36   H     H_    0.165287 0.726086 0.943164 0.205624
H37   H     H_    0.804224 0.791567 0.044135 0.139057
H38   H     H_    0.699167 0.293637 0.956519 0.139935
H39   H     H_    0.351624 0.183628 0.067223 0.217274
H40   H     H_    0.162802 0.714141 0.071036 0.184127
H41   H     H_    0.815227 0.749901 0.917026 0.162576
H42   H     H_    0.689704 0.253783 0.084332 0.164632
H43   H     H_    0.349558 0.180821 0.939989 0.204141
H44   H     H_    0.891703 0.912970 0.063907 0.160648
H45   H     H_    0.553634 0.987194 0.576860 0.121284
H46   H     H_    0.113234 0.890822 0.946596 0.164561
H47   H     H_    0.289897 0.357767 0.052655 0.157588
H48   H     H_    0.609091 0.407946 0.936984 0.165792
H49   H     H_    0.384921 0.407392 0.064265 0.153926
H50   H     H_    0.593224 0.572686 0.931601 0.163409
H51   H     H_    0.905451 0.078515 0.069885 0.161444
H52   H     H_    0.108037 0.053190 0.940212 0.139367
H53   H     H_    0.393985 0.434764 0.937385 0.148347
H54   H     H_    0.584814 0.569882 0.062821 0.163182
H55   H     H_    0.915284 0.076982 0.938526 0.160312
H56   H     H_    0.572465 0.992219 0.447698 0.136477
H57   H     H_    0.110903 0.066665 0.070927 0.170547
H58   H     H_    0.300731 0.379251 0.925915 0.137331
H59   H     H_    0.617363 0.414578 0.064364 0.159641
H60   H     H_    0.883962 0.919881 0.936366 0.161441
H61   H     H_    0.116318 0.899692 0.074691 0.144275
H62   H     H_    0.282716 0.408794 0.636447 0.333731
H63   H     H_    0.613561 0.513130 0.404783 0.327613
H64   H     H_    0.793673 0.912766 0.632250 0.342573
H65   H     H_    0.114794 0.009413 0.403337 0.332287
H66   H     H_    0.485344 0.273152 0.006179 0.347328
H67   H     H_    0.043922 0.506899 0.577463 0.119408
H68   H     H_    0.662245 0.941680 0.001958 0.329865
H69   H     H_    0.967657 0.608264 0.133334 0.356905
H70   H     H_    0.014589 0.771677 0.005047 0.354368
H71   H     H_    0.059310 0.512313 0.446616 0.132828
H72   H     H_    0.953399 0.056000 0.425838 0.162725
O1    O     O_R   0.214300 0.709080 0.827500 -0.495024
O2    O     O_R   0.543340 0.717710 0.330180 -0.501660
O3    O     O_R   0.956660 0.217710 0.669820 -0.517081
O4    O     O_R   0.043340 0.217710 0.330180 -0.486070
O5    O     O_R   0.320590 0.625770 0.672930 -0.504734
O6    O     O_R   0.679410 0.625770 0.327070 -0.489365
O7    O     O_R   0.820590 0.125770 0.672930 -0.498099
O8    O     O_R   0.179410 0.125770 0.327070 -0.498960
O9    O     O_3   0.334270 0.834280 0.749190 -0.294428
O10   O     O_3   0.665730 0.834280 0.250810 -0.291297
O11   O     O_3   0.834270 0.334280 0.749190 -0.294500
O12   O     O_R   0.785700 0.709080 0.172500 -0.453061
O13   O     O_3   0.165730 0.334280 0.250810 -0.279647
O14   O     O_R   0.236190 0.958390 0.823150 -0.502174
O15   O     O_R   0.763810 0.958390 0.176850 -0.526856
O16   O     O_R   0.736190 0.458390 0.823150 -0.527257
O17   O     O_R   0.263810 0.458390 0.176850 -0.504352
O18   O     O_R   0.332090 0.075280 0.831290 -0.520824
O19   O     O_R   0.667910 0.075280 0.168710 -0.464236
O20   O     O_R   0.832090 0.575280 0.831290 -0.466356
O21   O     O_R   0.167910 0.575280 0.168710 -0.526207
O22   O     O_R   0.446280 0.918040 0.826620 -0.435266
O23   O     O_R   0.714300 0.209080 0.827500 -0.455502
O24   O     O_R   0.553720 0.918040 0.173380 -0.439201
O25   O     O_R   0.946280 0.418040 0.826620 -0.445132
O26   O     O_R   0.053720 0.418040 0.173380 -0.471317
O27   O     O_R   0.457080 0.716270 0.831760 -0.501267
O28   O     O_R   0.542920 0.716270 0.168240 -0.544904
O29   O     O_R   0.957080 0.216270 0.831760 -0.541405
O30   O     O_R   0.042920 0.216270 0.168240 -0.510363
O31   O     O_R   0.320980 0.624440 0.823040 -0.522113
O32   O     O_R   0.679020 0.624440 0.176960 -0.502639
O33   O     O_R   0.820980 0.124440 0.823040 -0.497573
O34   O     O_R   0.285700 0.209080 0.172500 -0.512001
O35   O     O_R   0.179020 0.124440 0.176960 -0.528978
O36   O     O_R   0.213880 0.710510 0.665560 -0.514343
O37   O     O_R   0.786120 0.710510 0.334440 -0.525432
O38   O     O_R   0.713880 0.210510 0.665560 -0.510744
O39   O     O_R   0.286120 0.210510 0.334440 -0.526713
O40   O     O_R   0.235800 0.959720 0.673040 -0.514362
O41   O     O_R   0.764200 0.959720 0.326960 -0.519729
O42   O     O_R   0.735800 0.459720 0.673040 -0.517476
O43   O     O_R   0.264200 0.459720 0.326960 -0.517529
O44   O     O_R   0.331670 0.076720 0.669350 -0.509225
O45   O     O_R   0.445900 0.919370 0.676500 -0.495517
O46   O     O_R   0.668330 0.076720 0.330650 -0.524414
O47   O     O_R   0.831670 0.576720 0.669350 -0.509876
O48   O     O_R   0.168330 0.576720 0.330650 -0.527244
O49   O     O_3   0.295054 0.393918 0.585976 -0.730809
O50   O     O_3   0.616726 0.570622 0.445086 -0.710873
O51   O     O_3   0.810361 0.906517 0.582443 -0.731970
O52   O     O_3   0.116368 0.064441 0.444851 -0.696865
O53   O     O_2   0.462656 0.117889 0.122523 -0.311174
O54   O     O_2   0.576749 0.117846 0.062471 -0.284163
O55   O     O_3   0.469357 0.192069 0.990145 -0.548413
O56   O     O_R   0.554100 0.919370 0.323500 -0.515706
O57   O     O_2   0.595533 0.886303 0.838574 -0.237025
O58   O     O_2   0.582148 0.082047 0.898234 -0.202154
O59   O     O_3   0.671628 0.927173 0.950778 -0.543796
O60   O     O_2   0.838205 0.453100 0.045510 -0.296938
O61   O     O_2   0.898058 0.396240 0.156143 -0.269321
O62   O     O_3   0.924731 0.609195 0.102809 -0.465555
O63   O     O_2   0.058072 0.622112 0.880995 -0.298830
O64   O     O_2   0.937513 0.634509 0.926726 -0.261982
O65   O     O_3   0.040279 0.694840 0.012032 -0.578069
O66   O     O_R   0.945900 0.419370 0.676500 -0.505224
O67   O     O_R   0.054100 0.419370 0.323500 -0.507077
O68   O     O_R   0.456660 0.717710 0.669820 -0.511784
S1    S     S_3+6 0.499191 0.096304 0.052827 0.008189
S2    S     S_3+6 0.594056 0.949293 0.909547 0.071616
S3    S     S_3+6 0.906074 0.462954 0.086719 0.056344
S4    S     S_3+6 0.012452 0.604289 0.945462 0.014843

loop_
_geom_bond_atom_site_label_1
_geom_bond_atom_site_label_2
_ccdc_geom_bond_type
C38   C56   A    
C4    O68   A    
Cr1   O40   S    
C83   C87   A    
C41   H42   S    
C80   C120  S    
C34   C56   A    
C20   C25   S    
Cr3   O11   S    
C21   C66   S    
C6    O66   A    
C19   H23   S    
Cr1   O14   S    
C14   C18   S    
C4    O45   A    
Cr2   O32   S    
Cr6   O23   S    
C10   O38   A    
C120  O47   A    
Cr1   O1    S    
C71   H56   S    
Cr9   O19   S    
Cr9   O56   S    
C86   C104  S    
C13   C41   A    
C38   H39   S    
C94   C98   A    
Cr10  O47   S    
C95   C117  A    
C15   C19   S    
C89   C115  A    
C73   H71   S    
H64   O51   S    
C43   H47   S    
C34   C51   S    
C55   O21   A    
C3    O43   A    
C29   C47   S    
C60   C69   A    
C14   C21   S    
C30   C48   S    
H70   O65   S    
C76   C78   S    
C90   C107  S    
C38   C42   A    
C47   H46   S    
C86   C91   A    
Cr7   O17   S    
C40   H41   S    
C98   H11   S    
Cr5   O12   S    
C106  H28   S    
C15   C25   S    
Cr6   O42   S    
C81   C98   A    
C60   C72   A    
C104  C108  S    
C15   C16   S    
C12   C22   S    
C101  H18   S    
C92   C96   A    
C24   C42   A    
Cr7   O43   S    
C6    O3    A    
C93   C115  A    
C32   C54   A    
Cr9   O10   S    
Cr11  O21   S    
C24   C29   A    
C87   C114  A    
C36   C53   A    
C45   H48   S    
C61   O27   A    
C5    O2    A    
Cr3   O29   S    
Cr5   O41   S    
O61   S3    D    
C39   C110  A    
C2    C44   S    
C49   H54   S    
C107  H29   S    
H65   O52   S    
Cr6   O16   S    
C68   C69   A    
C65   C67   A    
C44   O16   A    
C12   C17   S    
C45   H50   S    
C56   C113  S    
C91   C117  A    
C13   C28   A    
C102  C106  S    
C2    C27   A    
C44   O20   A    
C90   C116  A    
C104  H21   S    
C50   H60   S    
C43   C48   S    
C59   C73   A    
C48   H58   S    
C85   C103  S    
C8    C114  S    
C84   C102  S    
C63   O25   A    
C102  H19   S    
Cr4   O30   S    
C92   O49   S    
C53   C111  S    
C77   H32   S    
C23   C63   S    
C105  H22   S    
C96   H9    S    
C9    O37   A    
C112  O23   A    
Cr10  O11   S    
Cr4   O4    S    
O54   S1    D    
C69   C78   S    
C120  O42   A    
C31   C49   S    
C50   H55   S    
C7    C59   S    
H66   O55   S    
C107  H25   S    
C25   C99   S    
C103  H16   S    
C111  O32   A    
C99   H35   S    
C33   O15   A    
C11   O8    A    
C101  C105  S    
O58   S2    D    
C74   H5    S    
O63   S4    D    
O60   S3    D    
C74   C75   S    
C46   H51   S    
C27   C31   A    
C80   C84   A    
C9    C115  S    
C6    C60   S    
C28   C32   A    
C26   C110  A    
Cr7   O39   S    
C3    O48   A    
C72   C73   A    
C100  H13   S    
C51   H61   S    
C119  O46   A    
Cr8   O18   S    
C37   H38   S    
Cr4   O35   S    
C94   C116  A    
C75   H4    S    
C58   C70   A    
H68   O59   S    
C47   C51   S    
O57   S2    D    
Cr4   O8    S    
Cr10  O25   S    
C82   C86   A    
C113  O35   A    
C108  H30   S    
C29   C34   A    
C80   C97   A    
C5    O56   A    
C17   C21   S    
C65   C74   S    
Cr2   O10   S    
Cr3   O7    S    
C1    O18   A    
C25   C64   S    
Cr1   O9    S    
C104  H17   S    
C89   C106  S    
C19   C23   S    
Cr6   O38   S    
C39   H40   S    
C102  H15   S    
C22   C62   S    
Cr5   O10   S    
C14   S2    S    
C87   C105  S    
Cr10  O66   S    
C45   C49   S    
O62   S3    S    
C16   C20   S    
O59   S2    S    
C28   C46   S    
C74   H3    S    
O64   S4    D    
Cr2   O6    S    
C35   H36   S    
C36   H37   S    
Cr3   O3    S    
C101  H14   S    
Cr2   O2    S    
C57   C71   A    
C109  O1    A    
C78   H2    S    
C32   C50   S    
C3    C79   S    
C1    O14   A    
C8    O36   A    
C103  H20   S    
C1    C24   S    
C37   C54   A    
C109  O31   A    
Cr11  O26   S    
C26   C43   S    
C93   O50   S    
C12   C14   S    
C26   C30   A    
C16   C23   S    
C62   O28   A    
C23   C88   S    
C55   C110  S    
C17   H1    S    
C46   H44   S    
C36   C40   A    
C31   C53   A    
Cr5   O37   S    
C67   C75   S    
C84   C89   A    
C82   C118  S    
C16   S4    S    
C11   C117  S    
Cr12  O27   S    
C93   C97   A    
C15   S3    S    
C70   C71   A    
C10   C116  S    
Cr11  O48   S    
Cr7   O13   S    
C111  O12   A    
C76   H7    S    
C106  H24   S    
C66   C77   S    
C30   C52   A    
Cr9   O46   S    
C113  O34   A    
C19   C99   S    
Cr8   O44   S    
Cr5   O15   S    
O65   S4    S    
C64   O30   A    
C95   C100  A    
C18   H12   S    
C21   C61   S    
C91   C108  S    
C10   O7    A    
Cr12  O5    S    
Cr8   O45   S    
C22   C77   S    
C57   C65   A    
C7    O4    A    
C75   H6    S    
C51   H57   S    
C12   S1    S    
Cr12  O68   S    
C85   C90   A    
C76   H72   S    
C70   H45   S    
C13   C33   S    
C49   H59   S    
C5    C57   S    
C68   C76   S    
Cr1   O36   S    
C78   H8    S    
Cr8   O9    S    
O53   S1    D    
C61   O22   A    
H62   O49   S    
C55   O17   A    
C11   O39   A    
C42   H43   S    
C20   H34   S    
C33   O19   A    
C18   C22   S    
C119  O41   A    
C79   C96   A    
C88   H33   S    
C64   O26   A    
C81   C119  S    
C94   O51   S    
C72   H67   S    
C79   C83   A    
C17   C77   S    
C27   C45   S    
C105  H27   S    
C52   C109  S    
C62   O24   A    
C35   C39   A    
C47   H52   S    
Cr9   O24   S    
C82   C100  A    
C118  O40   A    
C43   H49   S    
C66   H31   S    
O55   S1    S    
C118  O44   A    
Cr10  O20   S    
C37   C41   A    
H69   O62   S    
C18   C66   S    
Cr12  O31   S    
C97   H10   S    
C88   C99   S    
Cr6   O11   S    
Cr4   O13   S    
C63   O29   A    
C7    O67   A    
C2    C40   A    
C58   C67   A    
C48   H53   S    
Cr11  O67   S    
C108  H26   S    
Cr7   O34   S    
Cr8   O22   S    
C112  O33   A    
C20   C88   S    
H63   O50   S    
C4    C58   S    
C35   C52   A    
C83   C101  S    
C54   C112  S    
C59   C68   A    
C103  C107  S    
Cr12  O9    S    
Cr11  O13   S    
C92   C114  A    
Cr2   O28   S    
C81   C85   A    
C8    O5    A    
C9    O6    A    
C95   O52   S    
Cr3   O33   S    
C46   C50   S    
