data_mof_unit_43581.cif
_audit_creation_date              2012-12-10T18:36:26-0500
_audit_creation_method            fapswitch 2.2
_symmetry_space_group_name_H-M    P1
_symmetry_Int_Tables_number       1
_space_group_crystal_system       triclinic
_cell_length_a                    13.894678
_cell_length_b                    15.13417
_cell_length_c                    15.804674
_cell_angle_alpha                 91.128219
_cell_angle_beta                  69.918638
_cell_angle_gamma                 90.395993
_cell_volume                      3120.82405022

loop_
_atom_site_label
_atom_site_type_symbol
_atom_type_description
_atom_site_fract_x
_atom_site_fract_y
_atom_site_fract_z
_atom_type_partial_charge
C1    C     C_R   0.499814 0.669892 0.501078 0.894910
C2    C     C_R   0.499592 0.329806 0.500801 0.886570
C3    C     C_R   0.374250 0.521388 0.096821 0.343662
C4    C     C_R   0.625701 0.527182 0.904236 0.357207
C5    C     C_R   0.306239 0.499909 0.052541 0.550202
C6    C     C_R   0.693163 0.545578 0.950186 0.534780
C7    C     C_R   0.411482 0.904933 0.553187 0.355737
C8    C     C_R   0.571206 0.095296 0.529884 0.344701
C9    C     C_R   0.410578 0.812863 0.550896 0.494243
C10   C     C_R   0.572612 0.187416 0.527632 0.498706
C11   C     C_R   0.499714 0.766066 0.502440 -0.295289
C12   C     C_R   0.499370 0.233049 0.502227 -0.284915
C13   C     C_R   0.589189 0.811383 0.454599 -0.402590
C14   C     C_R   0.425768 0.185612 0.477901 -0.371356
C15   C     C_R   0.589315 0.903174 0.450129 0.484081
C16   C     C_R   0.427013 0.093625 0.474843 0.438899
C17   C     C_R   0.500313 0.950775 0.501248 -0.141196
C18   C     C_R   0.499748 0.047870 0.501621 -0.133720
C19   C     C_R   0.917540 0.454206 0.432806 -0.250895
C20   C     C_R   0.093994 0.571854 0.538584 -0.272123
C21   C     C_R   0.815103 0.452775 0.435889 0.075294
C22   C     C_R   0.194751 0.568481 0.539925 0.025318
C23   C     C_R   0.437580 0.500804 0.672377 0.843452
C24   C     C_R   0.562478 0.502148 0.327594 0.809607
C25   C     C_R   0.766814 0.551373 0.561487 0.668253
C26   C     C_R   0.224838 0.433509 0.456884 0.663956
C27   C     C_R   0.867887 0.550018 0.563486 -0.367540
C28   C     C_R   0.122266 0.432698 0.458889 -0.333381
C29   C     C_R   0.945970 0.502510 0.497958 0.086056
C30   C     C_R   0.055149 0.502768 0.498282 0.095575
C31   C     C_R   0.399880 0.501097 0.771207 -0.202315
C32   C     C_R   0.600179 0.512694 0.229265 -0.200865
C33   C     C_R   0.269389 0.474298 0.915259 -0.176235
C34   C     C_R   0.731297 0.551050 0.088653 -0.178745
C35   C     C_R   0.300134 0.474579 0.821673 0.602476
C36   C     C_R   0.701153 0.538448 0.181235 0.589400
C37   C     C_R   0.467316 0.526304 0.815432 -0.264807
C38   C     C_R   0.530757 0.502073 0.183738 -0.264586
C39   C     C_R   0.443152 0.514183 0.908210 0.031861
C40   C     C_R   0.556197 0.523425 0.092688 0.036971
C41   C     C_R   0.339670 0.494614 0.958974 -0.138152
C42   C     C_R   0.660164 0.541919 0.043700 -0.137663
C43   C     C_R   0.517421 0.522397 0.952125 -0.169044
C44   C     C_R   0.482289 0.522308 0.048428 -0.171311
Cu1   Cu    Cu3+1 0.403570 0.500010 0.500000 1.018405
Cu2   Cu    Cu3+1 0.596430 0.499990 0.500000 1.021632
H1    H     H_    0.973708 0.417986 0.378784 0.161633
H2    H     H_    0.047674 0.628953 0.568683 0.160414
H3    H     H_    0.794901 0.414470 0.385933 0.165399
H4    H     H_    0.221812 0.621569 0.572647 0.212395
H5    H     H_    0.883932 0.585367 0.617186 0.161473
H6    H     H_    0.095335 0.376102 0.430954 0.143419
H7    H     H_    0.457813 0.473847 0.220292 0.213532
H8    H     H_    0.536965 0.558257 0.775975 0.249889
H9    H     H_    0.190727 0.457250 0.953348 0.220480
H10   H     H_    0.810662 0.567266 0.052183 0.223518
H11   H     H_    0.658384 0.775286 0.417388 0.212161
H12   H     H_    0.367983 0.219701 0.459508 0.239681
N1    N     N_R   0.741310 0.499980 0.500000 -0.214913
N2    N     N_R   0.258690 0.500020 0.500000 -0.216845
O1    O     O_R   0.418570 0.628550 0.499990 -0.564290
O2    O     O_R   0.581430 0.371450 0.500010 -0.542166
O3    O     O_R   0.581440 0.628540 0.499990 -0.582556
O4    O     O_R   0.418560 0.371460 0.500010 -0.537082
O5    O     O_R   0.372890 0.500010 0.629830 -0.518150
O6    O     O_R   0.627110 0.499990 0.370170 -0.537426
O7    O     O_R   0.535760 0.500000 0.629840 -0.559600
O8    O     O_R   0.464240 0.500000 0.370160 -0.607618
F1    F     F_    0.205281 0.489802 0.101841 -0.648059
F2    F     F_    0.793914 0.558724 0.901991 -0.660175
O9    O     O_3   0.690504 0.598382 0.626309 -0.585484
C45   C     C_3   0.714764 0.689340 0.627732 0.024419
H13   H     H_    0.653969 0.727217 0.613529 0.180283
H14   H     H_    0.788941 0.709039 0.575928 0.124913
C46   C     C_3   0.714135 0.715987 0.721768 -0.305127
H15   H     H_    0.638872 0.698699 0.772629 0.231743
H16   H     H_    0.774834 0.679303 0.737298 0.259295
C47   C     C_3   0.732068 0.814920 0.728638 -0.921949
H17   H     H_    0.807791 0.833796 0.679602 0.265785
H18   H     H_    0.730585 0.832388 0.797637 0.267988
H19   H     H_    0.670813 0.852461 0.714891 0.252869
O10   O     O_3   0.288670 0.362680 0.419192 -0.603360
C48   C     C_3   0.301018 0.348796 0.327138 0.014454
H20   H     H_    0.384455 0.349151 0.288725 0.166028
H21   H     H_    0.265643 0.400775 0.298049 0.182372
C49   C     C_3   0.260163 0.257564 0.313192 -0.372916
H22   H     H_    0.300510 0.206392 0.337651 0.228457
H23   H     H_    0.177081 0.252849 0.352334 0.222342
C50   C     C_3   0.277109 0.238964 0.213865 -0.880355
H24   H     H_    0.236628 0.288934 0.187842 0.284702
H25   H     H_    0.246647 0.172471 0.205959 0.258402
H26   H     H_    0.360219 0.240469 0.173650 0.248153
F3    F     F_    0.771033 0.550411 0.222949 -0.652564
F4    F     F_    0.232038 0.450257 0.781155 -0.640213
O11   O     O_3   0.331690 0.539409 0.188221 -0.612699
C51   C     C_3   0.332627 0.631492 0.203902 0.071115
H27   H     H_    0.282964 0.665644 0.172416 0.163666
H28   H     H_    0.411870 0.658633 0.176428 0.144352
C52   C     C_3   0.290928 0.649204 0.305607 -0.315472
H29   H     H_    0.210317 0.625794 0.333470 0.233622
H30   H     H_    0.337024 0.611894 0.337949 0.243927
C53   C     C_3   0.295064 0.747156 0.328506 -0.914384
H31   H     H_    0.375525 0.771140 0.303721 0.251056
H32   H     H_    0.263549 0.757348 0.402755 0.279221
H33   H     H_    0.248674 0.785987 0.297559 0.262607
O12   O     O_3   0.669506 0.513551 0.812172 -0.594864
C54   C     C_3   0.675801 0.421946 0.790697 0.076612
H34   H     H_    0.654254 0.412644 0.729581 0.198036
H35   H     H_    0.622129 0.380117 0.843975 0.116481
C55   C     C_3   0.785972 0.389796 0.769001 -0.293190
H36   H     H_    0.839241 0.433511 0.718276 0.251959
H37   H     H_    0.806281 0.392739 0.831127 0.247281
C56   C     C_3   0.799077 0.295118 0.731908 -0.910678
H38   H     H_    0.747598 0.249982 0.782121 0.257537
H39   H     H_    0.879525 0.273617 0.717146 0.269378
H40   H     H_    0.781251 0.290901 0.668581 0.288630
O13   O     O_3   0.323138 0.949756 0.602889 -0.528149
C57   C     C_3   0.326443 0.968483 0.689656 0.085927
H41   H     H_    0.394658 0.009417 0.685555 0.096896
H42   H     H_    0.328490 0.906108 0.725374 0.159656
C58   C     C_3   0.230680 0.020643 0.743762 -0.287088
H43   H     H_    0.227127 0.082241 0.707737 0.236117
H44   H     H_    0.161413 0.980450 0.749912 0.235881
C59   C     C_3   0.231266 0.044904 0.837767 -0.921137
H45   H     H_    0.233294 0.984233 0.875555 0.259496
H46   H     H_    0.160775 0.082637 0.875317 0.268719
H47   H     H_    0.298967 0.086604 0.833096 0.254407
O14   O     O_3   0.643343 0.051754 0.556031 -0.540767
C60   C     C_3   0.611098 0.050123 0.651199 0.092359
H48   H     H_    0.570901 0.986588 0.674252 0.111495
H49   H     H_    0.558353 0.105490 0.685464 0.131375
C61   C     C_3   0.705317 0.055725 0.679966 -0.273158
H50   H     H_    0.757012 0.999065 0.650008 0.225663
H51   H     H_    0.747710 0.117735 0.654386 0.252045
C62   C     C_3   0.675433 0.054914 0.782349 -0.958626
H52   H     H_    0.626929 0.113139 0.813178 0.257219
H53   H     H_    0.745610 0.057600 0.800853 0.268136
H54   H     H_    0.632508 0.993690 0.809772 0.260324
F5    F     F_    0.323674 0.769535 0.599072 -0.660793
F6    F     F_    0.644146 0.231561 0.552917 -0.657820
O15   O     O_3   0.679948 0.944606 0.400637 -0.555332
C63   C     C_3   0.674461 0.976077 0.318592 0.081434
H55   H     H_    0.743331 0.017702 0.287719 0.180634
H56   H     H_    0.607874 0.020311 0.329456 0.102594
C64   C     C_3   0.675226 0.900675 0.251671 -0.394502
H57   H     H_    0.743569 0.858252 0.240732 0.246636
H58   H     H_    0.605387 0.859339 0.279029 0.206944
C65   C     C_3   0.677442 0.936753 0.161560 -0.900130
H59   H     H_    0.608664 0.978199 0.171112 0.249067
H60   H     H_    0.677547 0.880965 0.114826 0.264868
H61   H     H_    0.747555 0.976971 0.130865 0.262345
O16   O     O_3   0.352009 0.049539 0.451369 -0.552000
C66   C     C_3   0.391176 0.026101 0.358937 0.037540
H62   H     H_    0.444657 0.969354 0.348190 0.141640
H63   H     H_    0.431450 0.082672 0.316968 0.124114
C67   C     C_3   0.302651 0.997243 0.328307 -0.294909
H64   H     H_    0.263576 0.939420 0.367923 0.239110
H65   H     H_    0.245970 0.051708 0.341001 0.224359
C68   C     C_3   0.340565 0.972478 0.228169 -0.951960
H66   H     H_    0.376910 0.030480 0.187356 0.261623
H67   H     H_    0.274848 0.950474 0.208262 0.263437
H68   H     H_    0.397158 0.917788 0.213869 0.259536

loop_
_geom_bond_atom_site_label_1
_geom_bond_atom_site_label_2
_ccdc_geom_bond_type
C33   H9    S    
C62   H54   S    
Cu1   N2    S    
C34   H10   S    
Cu2   N1    S    
C27   C29   A    
C28   H6    S    
C7    O13   S    
O11   C51   S    
C1    C11   S    
C65   H61   S    
C43   C44   A    
C2    C12   S    
O14   C60   S    
C21   H3    S    
C64   H57   S    
C62   H52   S    
C39   C41   A    
C20   C30   A    
Cu1   Cu2   S    
Cu2   O2    S    
C32   C36   A    
C67   H64   S    
C19   C21   A    
C65   H60   S    
Cu2   O6    S    
C22   N2    A    
C47   H18   S    
C13   H11   S    
O12   C54   S    
C51   C52   S    
C53   H33   S    
C15   C17   A    
C23   O7    A    
C55   H36   S    
C58   C59   S    
C5    F1    S    
C9    F5    S    
C33   C35   A    
C57   H41   S    
C36   F3    S    
C8    O14   S    
C68   H66   S    
C2    O4    A    
C61   H50   S    
C7    C17   A    
C51   H28   S    
C54   H34   S    
C68   H67   S    
C25   O9    S    
C32   C38   A    
C50   H25   S    
C24   O6    A    
C22   H4    S    
C60   C61   S    
Cu1   O1    S    
C40   C42   A    
C26   O10   S    
C15   O15   S    
C54   H35   S    
C63   C64   S    
C10   F6    S    
C45   C46   S    
C1    O3    A    
C64   H58   S    
C27   H5    S    
C55   H37   S    
C14   H12   S    
C3    C44   A    
C34   C42   A    
C49   H23   S    
C65   H59   S    
C4    C6    A    
C50   H24   S    
C49   H22   S    
C39   C43   A    
C4    O12   S    
C8    C18   A    
C31   C37   A    
C66   C67   S    
C57   C58   S    
C23   C31   S    
C46   H15   S    
C24   C32   S    
C29   C30   S    
C9    C11   A    
C48   H20   S    
C51   H27   S    
C48   C49   S    
Cu1   O8    S    
C17   C18   S    
C68   H68   S    
C16   O16   S    
C16   C18   A    
C50   H26   S    
C53   H32   S    
C46   H16   S    
C55   C56   S    
C58   H43   S    
C20   H2    S    
C10   C12   A    
C59   H47   S    
C37   H8    S    
C45   H14   S    
C48   H21   S    
C12   C14   A    
C13   C15   A    
Cu1   O5    S    
C62   H53   S    
C14   C16   A    
C66   H63   S    
C19   C29   A    
C64   C65   S    
C59   H46   S    
C56   H38   S    
C35   F4    S    
C6    F2    S    
C5    C41   A    
C52   H30   S    
C47   H17   S    
C67   C68   S    
C20   C22   A    
C45   H13   S    
C3    C5    A    
C49   C50   S    
C1    O1    A    
C21   N1    A    
C4    C43   A    
C25   C27   A    
Cu1   O4    S    
C26   C28   A    
C52   H29   S    
Cu2   O3    S    
C33   C41   A    
C56   H40   S    
C67   H65   S    
C60   H48   S    
Cu2   O7    S    
C37   C39   A    
O13   C57   S    
C38   C40   A    
C11   C13   A    
C47   H19   S    
C23   O5    A    
C38   H7    S    
C61   C62   S    
C61   H51   S    
C31   C35   A    
C28   C30   A    
C54   C55   S    
C34   C36   A    
C53   H31   S    
C46   C47   S    
C57   H42   S    
C58   H44   S    
C24   O8    A    
C7    C9    A    
C40   C44   A    
C52   C53   S    
O9    C45   S    
O16   C66   S    
C8    C10   A    
O10   C48   S    
C6    C42   A    
C19   H1    S    
C63   H55   S    
C3    O11   S    
C25   N1    A    
C56   H39   S    
C66   H62   S    
O15   C63   S    
C26   N2    A    
C63   H56   S    
C2    O2    A    
C59   H45   S    
C60   H49   S    
