data_mof_unit_31867.cif
_audit_creation_date              2012-12-11T14:42:11-0500
_audit_creation_method            fapswitch 2.2
_symmetry_space_group_name_H-M    P1
_symmetry_Int_Tables_number       1
_space_group_crystal_system       triclinic
_cell_length_a                    18.849969
_cell_length_b                    10.979813
_cell_length_c                    18.816718
_cell_angle_alpha                 89.973143
_cell_angle_beta                  90.314016
_cell_angle_gamma                 90.009401
_cell_volume                      3894.42087393

loop_
_atom_site_label
_atom_site_type_symbol
_atom_type_description
_atom_site_fract_x
_atom_site_fract_y
_atom_site_fract_z
_atom_type_partial_charge
C1    C     C_R   0.727642 0.955553 0.853380 0.539972
C2    C     C_R   0.272359 0.955605 0.146615 0.540098
C3    C     C_R   0.227615 0.455582 0.853407 0.545517
C4    C     C_R   0.772374 0.455606 0.146602 0.540021
C5    C     C_R   0.699721 0.478134 0.037113 -0.134564
C6    C     C_R   0.300465 0.477657 0.962790 -0.135244
C7    C     C_R   0.199941 0.978740 0.037051 -0.134381
C8    C     C_R   0.800250 0.978270 0.962845 -0.134360
C9    C     C_R   0.752778 0.416301 0.075706 0.026099
C10   C     C_R   0.247130 0.416310 0.924341 0.026710
C11   C     C_R   0.252631 0.916212 0.075780 0.026054
C12   C     C_R   0.747311 0.916163 0.924246 0.026051
C13   C     C_R   0.798347 0.336031 0.041241 -0.133236
C14   C     C_R   0.201232 0.336733 0.958975 -0.132475
C15   C     C_R   0.297746 0.834981 0.041495 -0.133075
C16   C     C_R   0.701907 0.835534 0.958687 -0.133298
C17   C     C_R   0.796225 0.326883 0.968671 -0.123470
C18   C     C_R   0.203320 0.327878 0.031546 -0.124208
C19   C     C_R   0.295582 0.825483 0.968929 -0.123520
C20   C     C_R   0.704022 0.826334 0.031259 -0.123319
C21   C     C_R   0.745090 0.391241 0.928980 0.029292
C22   C     C_R   0.254810 0.391627 0.071091 0.029210
C23   C     C_R   0.244926 0.890711 0.929096 0.029427
C24   C     C_R   0.754986 0.891053 0.070963 0.029338
C25   C     C_R   0.500163 0.279352 0.535832 -0.137766
C26   C     C_R   0.500782 0.279251 0.463826 -0.138732
C27   C     C_R   0.001137 0.780023 0.535759 -0.136972
C28   C     C_R   0.001604 0.778991 0.463749 -0.140269
C29   C     C_R   0.496269 0.169240 0.426828 0.029586
C30   C     C_R   0.504139 0.169381 0.572997 0.031607
C31   C     C_R   0.995339 0.668822 0.427244 0.031607
C32   C     C_R   0.003097 0.670283 0.573427 0.034414
C33   C     C_R   0.497607 0.057788 0.463230 -0.128153
C34   C     C_R   0.502490 0.057856 0.536740 -0.127017
C35   C     C_R   0.994067 0.557837 0.464243 -0.133435
C36   C     C_R   0.998553 0.558649 0.537782 -0.133900
C37   C     C_R   0.781400 0.278086 0.522477 -0.124905
C38   C     C_R   0.218626 0.277179 0.477112 -0.118657
C39   C     C_R   0.281336 0.778577 0.522438 -0.124485
C40   C     C_R   0.718581 0.778223 0.477606 -0.123303
C41   C     C_R   0.788410 0.300508 0.450029 0.124173
C42   C     C_R   0.209639 0.303337 0.548841 0.123574
C43   C     C_R   0.288212 0.800557 0.449948 0.124523
C44   C     C_R   0.711659 0.800498 0.550070 0.124644
C45   C     C_R   0.529541 0.176898 0.850711 0.552235
C46   C     C_R   0.470445 0.176932 0.149279 0.550855
C47   C     C_R   0.029511 0.676904 0.850695 0.549266
C48   C     C_R   0.970461 0.676937 0.149285 0.550933
C49   C     C_R   0.744914 0.390299 0.417195 0.030403
C50   C     C_R   0.254193 0.390930 0.582256 0.029777
C51   C     C_R   0.244921 0.890553 0.417133 0.030874
C52   C     C_R   0.755181 0.890249 0.582858 0.030031
C53   C     C_R   0.684438 0.432040 0.454231 -0.057863
C54   C     C_R   0.315277 0.431310 0.545614 -0.059055
C55   C     C_R   0.184804 0.933309 0.454246 -0.057814
C56   C     C_R   0.815757 0.931743 0.545827 -0.056173
C57   C     C_R   0.676570 0.403568 0.526318 -0.160205
C58   C     C_R   0.323508 0.402523 0.473637 -0.160037
C59   C     C_R   0.177488 0.906608 0.526642 -0.155107
C60   C     C_R   0.823645 0.903152 0.473751 -0.160004
C61   C     C_R   0.728133 0.333768 0.561868 -0.024367
C62   C     C_R   0.272153 0.332510 0.437992 -0.027901
C63   C     C_R   0.228637 0.835586 0.561982 -0.017878
C64   C     C_R   0.771921 0.833709 0.438182 -0.024976
C65   C     C_R   0.737499 0.359910 0.854419 0.552694
C66   C     C_R   0.262467 0.360069 0.145621 0.552868
C67   C     C_R   0.237448 0.859722 0.854482 0.556242
C68   C     C_R   0.762517 0.859889 0.145560 0.552816
C69   C     C_R   0.729559 0.950893 0.648618 0.535745
C70   C     C_R   0.270445 0.950827 0.351300 0.536332
C71   C     C_R   0.229472 0.450687 0.648627 0.547794
C72   C     C_R   0.770467 0.450888 0.351387 0.535532
C73   C     C_R   0.529622 0.176251 0.644804 0.543529
C74   C     C_R   0.470468 0.176212 0.355133 0.541462
C75   C     C_R   0.029302 0.676396 0.645011 0.539516
C76   C     C_R   0.970205 0.676144 0.355317 0.541731
C77   C     C_R   0.724904 0.310818 0.638885 0.559254
C78   C     C_R   0.275260 0.310210 0.360996 0.559245
C79   C     C_R   0.225085 0.811514 0.638805 0.561750
C80   C     C_R   0.775095 0.810802 0.361140 0.559149
C81   C     C_2   0.498216 0.164727 0.921692 -0.131067
C82   C     C_2   0.501751 0.164776 0.078289 -0.132237
C83   C     C_2   0.998164 0.664797 0.921674 -0.132257
C84   C     C_2   0.001752 0.664833 0.078280 -0.132303
C85   C     C_2   0.496151 0.060781 0.039322 -0.055788
C86   C     C_2   0.503799 0.060760 0.960716 -0.055848
C87   C     C_2   0.996225 0.560816 0.039326 -0.055634
C88   C     C_2   0.003623 0.560795 0.960675 -0.055688
C89   C     C_R   0.695520 0.464781 0.963662 -0.142264
C90   C     C_R   0.304665 0.464476 0.036258 -0.142334
C91   C     C_R   0.195733 0.965180 0.963622 -0.141506
C92   C     C_R   0.804442 0.964897 0.036295 -0.142256
Cr1   Cr    Cr6+3 0.769270 0.163730 0.750710 1.043313
Cr2   Cr    Cr6+3 0.230730 0.163730 0.249290 1.044895
Cr3   Cr    Cr6+3 0.269270 0.663730 0.750710 1.047969
Cr4   Cr    Cr6+3 0.730730 0.663730 0.249290 1.045226
Cr5   Cr    Cr6+3 0.612620 0.009790 0.748780 1.056109
Cr6   Cr    Cr6+3 0.387380 0.009790 0.251220 1.055309
Cr7   Cr    Cr6+3 0.112620 0.509790 0.748780 1.053032
Cr8   Cr    Cr6+3 0.887380 0.509790 0.251220 1.054121
Cr9   Cr    Cr6+3 0.614160 0.322500 0.747710 1.016928
Cr10  Cr    Cr6+3 0.385840 0.322500 0.252290 1.016248
Cr11  Cr    Cr6+3 0.114160 0.822500 0.747710 1.031734
Cr12  Cr    Cr6+3 0.885840 0.822500 0.252290 1.016438
H1    H     H_    0.631446 0.439180 0.555056 0.137927
H2    H     H_    0.368839 0.437853 0.445068 0.138854
H3    H     H_    0.132741 0.943148 0.555538 0.134273
H4    H     H_    0.868921 0.938372 0.445042 0.138451
H5    H     H_    0.519264 0.248963 0.053920 0.097858
H6    H     H_    0.480720 0.248914 0.946015 0.098126
H7    H     H_    0.019117 0.749089 0.053894 0.097933
H8    H     H_    0.980838 0.749065 0.946017 0.098134
H9    H     H_    0.654317 0.511928 0.934217 0.129844
H10   H     H_    0.346124 0.511142 0.065590 0.130036
H11   H     H_    0.154880 0.013003 0.934061 0.131097
H12   H     H_    0.845521 0.012312 0.065754 0.129786
H13   H     H_    0.663635 0.540244 0.063140 0.131799
H14   H     H_    0.336809 0.539211 0.936625 0.131664
H15   H     H_    0.164218 0.041647 0.062935 0.132261
H16   H     H_    0.836214 0.040668 0.936831 0.132117
H17   H     H_    0.838822 0.285571 0.069803 0.153778
H18   H     H_    0.160532 0.286628 0.930539 0.155438
H19   H     H_    0.337913 0.784016 0.070191 0.153436
H20   H     H_    0.661550 0.784857 0.930102 0.153590
H21   H     H_    0.834235 0.266393 0.944101 0.145879
H22   H     H_    0.165034 0.267967 0.056222 0.146025
H23   H     H_    0.333224 0.764207 0.944460 0.145527
H24   H     H_    0.666123 0.765579 0.055827 0.145661
H25   H     H_    0.501862 0.367170 0.561896 0.159715
H26   H     H_    0.499350 0.367001 0.437631 0.159920
H27   H     H_    0.004504 0.868112 0.561386 0.157612
H28   H     H_    0.001589 0.866358 0.437128 0.159445
H29   H     H_    0.492975 0.971863 0.435310 0.149362
H30   H     H_    0.506766 0.971956 0.564786 0.149528
H31   H     H_    0.987542 0.471820 0.436792 0.144003
H32   H     H_    0.000077 0.473275 0.566508 0.129404
H33   H     H_    0.818049 0.216846 0.548280 0.149032
H34   H     H_    0.182473 0.215106 0.451391 0.160443
H35   H     H_    0.317574 0.716492 0.548145 0.149325
H36   H     H_    0.681828 0.717203 0.451823 0.150781
O1    O     O_R   0.784320 0.290430 0.830510 -0.516343
O2    O     O_R   0.215680 0.290430 0.169490 -0.516066
O3    O     O_R   0.284320 0.790430 0.830510 -0.516390
O4    O     O_R   0.715680 0.790430 0.169490 -0.516076
O5    O     O_R   0.554640 0.080370 0.673500 -0.501204
O6    O     O_R   0.445360 0.080370 0.326500 -0.501393
O7    O     O_R   0.054640 0.580370 0.673500 -0.505287
O8    O     O_R   0.945360 0.580370 0.326500 -0.501902
O9    O     O_R   0.543920 0.282180 0.666790 -0.528178
O10   O     O_R   0.456080 0.282180 0.333210 -0.528688
O11   O     O_R   0.043920 0.782180 0.666790 -0.528252
O12   O     O_R   0.956080 0.782180 0.333210 -0.528208
O13   O     O_R   0.679040 0.374160 0.674430 -0.522910
O14   O     O_R   0.320960 0.374160 0.325570 -0.522605
O15   O     O_R   0.179040 0.874160 0.674430 -0.503861
O16   O     O_R   0.820960 0.874160 0.325570 -0.522834
O17   O     O_3   0.665350 0.165340 0.749070 -0.274769
O18   O     O_3   0.334650 0.165340 0.250930 -0.274831
O19   O     O_3   0.165350 0.665340 0.749070 -0.279037
O20   O     O_3   0.834650 0.665340 0.250930 -0.274558
O21   O     O_R   0.762640 0.040960 0.825200 -0.508036
O22   O     O_R   0.237360 0.040960 0.174800 -0.508005
O23   O     O_R   0.262640 0.540960 0.825200 -0.508581
O24   O     O_R   0.737360 0.540960 0.174800 -0.508120
O25   O     O_R   0.667400 0.923970 0.829950 -0.508559
O26   O     O_R   0.332600 0.923970 0.170050 -0.508299
O27   O     O_R   0.167400 0.423970 0.829950 -0.504470
O28   O     O_R   0.832600 0.423970 0.170050 -0.508570
O29   O     O_R   0.553960 0.081340 0.821780 -0.476498
O30   O     O_R   0.446040 0.081340 0.178220 -0.476728
O31   O     O_R   0.053960 0.581340 0.821780 -0.478078
O32   O     O_R   0.946040 0.581340 0.178220 -0.476594
O33   O     O_R   0.543180 0.283240 0.826740 -0.508562
O34   O     O_R   0.456820 0.283240 0.173260 -0.509024
O35   O     O_R   0.043180 0.783240 0.826740 -0.509121
O36   O     O_R   0.956820 0.783240 0.173260 -0.508820
O37   O     O_R   0.678360 0.375140 0.822710 -0.499883
O38   O     O_R   0.321640 0.375140 0.177290 -0.499829
O39   O     O_R   0.178360 0.875140 0.822710 -0.495728
O40   O     O_R   0.821640 0.875140 0.177290 -0.499754
O41   O     O_R   0.785050 0.289380 0.670560 -0.500259
O42   O     O_R   0.214950 0.289380 0.329440 -0.499859
O43   O     O_R   0.285050 0.789380 0.670560 -0.496305
O44   O     O_R   0.714950 0.789380 0.329440 -0.497921
O45   O     O_R   0.763320 0.039990 0.676930 -0.509946
O46   O     O_R   0.236680 0.039990 0.323070 -0.510280
O47   O     O_R   0.263320 0.539990 0.676930 -0.511705
O48   O     O_R   0.736680 0.539990 0.323070 -0.510232
O49   O     O_R   0.668130 0.922920 0.670000 -0.479128
O50   O     O_R   0.331870 0.922920 0.330000 -0.479032
O51   O     O_R   0.168130 0.422920 0.670000 -0.475921
O52   O     O_R   0.831870 0.422920 0.330000 -0.479827
C93   C     C_1   0.486144 0.942757 0.073276 0.252654
N1    N     N_1   0.478798 0.848614 0.099960 -0.302009
C94   C     C_1   0.513723 0.942737 0.926807 0.252856
N2    N     N_1   0.520991 0.848599 0.900153 -0.301806
C95   C     C_1   0.986589 0.442773 0.073365 0.251938
N3    N     N_1   0.979541 0.348627 0.100126 -0.302653
C96   C     C_1   0.013126 0.442754 0.926670 0.251092
N4    N     N_1   0.020060 0.348614 0.899928 -0.302373
N5    N     N_2   0.840447 0.234021 0.411253 -0.494407
H37   H     H_    0.878651 0.191829 0.442093 0.244164
C97   C     C_3   0.811605 0.154192 0.357137 -0.253217
H38   H     H_    0.855658 0.106507 0.329862 0.164945
H39   H     H_    0.781292 0.206183 0.316545 0.158355
H40   H     H_    0.775536 0.086398 0.381580 0.154214
N6    N     N_2   0.156800 0.239293 0.587837 -0.490256
H41   H     H_    0.173628 0.158015 0.609605 0.258430
C98   C     C_3   0.085211 0.238131 0.559410 -0.271531
H42   H     H_    0.074352 0.149908 0.532803 0.141119
H43   H     H_    0.076644 0.313392 0.520792 0.148381
H44   H     H_    0.047115 0.249352 0.603670 0.172787
N7    N     N_2   0.339826 0.733301 0.411057 -0.492737
H45   H     H_    0.377890 0.690559 0.441810 0.247551
C99   C     C_3   0.310513 0.653918 0.356970 -0.254375
H46   H     H_    0.354323 0.606205 0.329337 0.166072
H47   H     H_    0.280065 0.706270 0.316646 0.157551
H48   H     H_    0.274500 0.586141 0.381517 0.153696
N8    N     N_2   0.659715 0.733853 0.588932 -0.492648
H49   H     H_    0.621559 0.691451 0.558147 0.247359
C100  C     C_3   0.688669 0.654210 0.643124 -0.253862
H50   H     H_    0.724764 0.586463 0.618733 0.153760
H51   H     H_    0.644682 0.606465 0.670503 0.165349
H52   H     H_    0.718974 0.706353 0.683627 0.158019
C101  C     C_1   0.629344 0.502105 0.419745 0.177295
N9    N     N_1   0.585077 0.558098 0.392097 -0.312333
C102  C     C_1   0.370490 0.500843 0.580274 0.179074
N10   N     N_1   0.414842 0.556440 0.608047 -0.311270
C103  C     C_1   0.129368 0.001672 0.419133 0.173814
N11   N     N_1   0.084927 0.056273 0.390808 -0.319513
C104  C     C_1   0.870999 0.001454 0.580310 0.179507
N12   N     N_1   0.915406 0.057146 0.607927 -0.327953

loop_
_geom_bond_atom_site_label_1
_geom_bond_atom_site_label_2
_ccdc_geom_bond_type
C58   C62   A    
C57   H1    S    
C97   H38   S    
C79   O43   A    
Cr3   O3    S    
C48   C84   S    
C14   H18   S    
Cr7   O19   S    
Cr8   O32   S    
C27   H27   S    
N5    H37   S    
C14   C18   A    
Cr9   O33   S    
C35   C36   A    
C84   C87   D    
Cr6   O50   S    
C25   H25   S    
Cr10  O18   S    
C32   C75   S    
C3    O27   A    
Cr12  O36   S    
C21   C89   A    
N7    H45   S    
C15   C19   A    
C97   H39   S    
C8    H16   S    
C50   C54   A    
C15   H19   S    
Cr3   O19   S    
C32   C36   A    
C88   C96   S    
Cr12  O20   S    
C33   H29   S    
C38   C42   A    
C100  H52   S    
C45   O33   A    
C39   C63   A    
C99   H47   S    
Cr5   O25   S    
C37   H33   S    
Cr7   O31   S    
C4    O24   A    
C76   O12   A    
C29   C33   A    
C98   H44   S    
C13   H17   S    
C23   C67   S    
C9    C13   A    
C72   O48   A    
C52   C69   S    
C53   C101  S    
C46   C82   S    
C11   C15   A    
C22   C66   S    
C12   C16   A    
C75   O11   A    
C49   C72   S    
C77   O41   A    
C46   O34   A    
C26   C29   A    
C8    C92   A    
C51   C70   S    
C47   C83   S    
C8    C12   A    
Cr2   O22   S    
Cr11  O39   S    
C81   C86   D    
C60   H4    S    
Cr11  O11   S    
C77   O13   A    
C44   C52   A    
Cr5   O49   S    
C83   C88   D    
C67   O3    A    
C96   N4    T    
Cr2   O18   S    
C48   O32   A    
N5    C97   S    
Cr10  O38   S    
C2    O22   A    
Cr8   O52   S    
C44   N8    S    
Cr1   O41   S    
Cr4   O44   S    
C64   C80   S    
C2    C11   S    
C36   H32   S    
C41   C49   A    
C62   C78   S    
C80   O16   A    
Cr7   O27   S    
N7    C99   S    
C38   H34   S    
C97   H40   S    
C89   H9    S    
C84   H7    S    
C30   C34   A    
Cr3   O47   S    
N6    H41   S    
Cr2   O2    S    
C82   H5    S    
C7    H15   S    
C33   C34   A    
C98   H42   S    
C10   C14   A    
C99   H48   S    
C61   C77   S    
N8    H49   S    
C30   C73   S    
C53   C57   A    
C19   C23   A    
C78   O14   A    
C63   C79   S    
C29   C74   S    
Cr6   O6    S    
C75   O7    A    
C25   C26   A    
C85   C86   S    
C24   C68   S    
C79   O15   A    
C68   O40   A    
C58   H2    S    
C59   H3    S    
Cr4   O24   S    
C56   C104  S    
C73   O5    A    
C78   O42   A    
Cr5   O17   S    
C1    C12   S    
C7    C11   A    
C50   C71   S    
C17   H21   S    
C5    C9    A    
C103  N11   T    
Cr3   O23   S    
C86   C94   S    
N8    C100  S    
C100  H50   S    
C65   O1    A    
Cr8   O20   S    
C47   O31   A    
C102  N10   T    
Cr3   O43   S    
C1    O25   A    
C16   C20   A    
C7    C91   A    
Cr11  O35   S    
C101  N9    T    
C22   C90   A    
C42   N6    S    
C38   C62   A    
Cr12  O16   S    
Cr1   O17   S    
C92   H12   S    
Cr8   O28   S    
Cr6   O26   S    
C46   O30   A    
C73   O9    A    
Cr10  O10   S    
Cr11  O15   S    
Cr4   O20   S    
C42   C50   A    
Cr1   O21   S    
C24   C92   A    
C23   C91   A    
C85   C93   S    
C87   C95   S    
Cr9   O13   S    
C35   H31   S    
C43   N7    S    
C69   O45   A    
C27   C28   A    
Cr1   O1    S    
C55   C59   A    
C70   O50   A    
Cr11  O19   S    
C54   C58   A    
C25   C30   A    
Cr7   O7    S    
C21   C65   S    
C27   C32   A    
C18   C22   A    
C4    O28   A    
Cr5   O5    S    
C74   O6    A    
C28   C31   A    
C45   C81   S    
Cr2   O46   S    
C80   O44   A    
C71   O47   A    
C69   O49   A    
C26   H26   S    
C6    C10   A    
C37   C61   A    
C57   C61   A    
C66   O2    A    
C3    O23   A    
Cr10  O34   S    
C82   C85   D    
C2    O26   A    
C19   H23   S    
C59   C63   A    
C40   C64   A    
C13   C17   A    
C20   H24   S    
C60   C64   A    
C71   O51   A    
Cr12  O12   S    
C16   H20   S    
Cr5   O29   S    
Cr9   O17   S    
C100  H51   S    
C3    C10   S    
C6    C90   A    
Cr10  O14   S    
C18   H22   S    
C72   O52   A    
Cr7   O51   S    
C43   C51   A    
C31   C76   S    
Cr12  O40   S    
C65   O37   A    
C55   C103  S    
Cr8   O8    S    
C49   C53   A    
C40   H36   S    
C31   C35   A    
Cr9   O9    S    
C98   H43   S    
C91   H11   S    
C68   O4    A    
C51   C55   A    
C90   H10   S    
C99   H46   S    
C37   C41   A    
C95   N3    T    
C17   C21   A    
C54   C102  S    
Cr9   O37   S    
C70   O46   A    
C47   O35   A    
C1    O21   A    
C94   N2    T    
Cr6   O30   S    
Cr6   O18   S    
C40   C44   A    
C56   C60   A    
C81   H6    S    
C76   O8    A    
C87   C88   S    
C93   N1    T    
C39   C43   A    
C5    H13   S    
C104  N12   T    
N6    C98   S    
C34   H30   S    
C83   H8    S    
C74   O10   A    
C67   O39   A    
Cr2   O42   S    
C28   H28   S    
C4    C9    S    
C41   N5    S    
Cr4   O48   S    
C20   C24   A    
C39   H35   S    
C5    C89   A    
C45   O29   A    
C52   C56   A    
C6    H14   S    
C48   O36   A    
C66   O38   A    
Cr4   O4    S    
Cr1   O45   S    
