data_mof_unit_31508.cif
_audit_creation_date              2012-12-11T14:38:28-0500
_audit_creation_method            fapswitch 2.2
_symmetry_space_group_name_H-M    P1
_symmetry_Int_Tables_number       1
_space_group_crystal_system       triclinic
_cell_length_a                    19.458354
_cell_length_b                    11.125967
_cell_length_c                    19.585084
_cell_angle_alpha                 89.914513
_cell_angle_beta                  97.011237
_cell_angle_gamma                 89.572935
_cell_volume                      4208.19846248

loop_
_atom_site_label
_atom_site_type_symbol
_atom_type_description
_atom_site_fract_x
_atom_site_fract_y
_atom_site_fract_z
_atom_type_partial_charge
C1    C     C_R   0.725442 0.952865 0.360046 0.539577
C2    C     C_3   0.174176 0.479017 0.465545 -0.184664
C3    C     C_3   0.617007 0.907693 0.567062 -0.401465
C4    C     C_3   0.306468 0.982420 0.528613 -0.197792
C5    C     C_3   0.674176 0.979018 0.465545 -0.184664
C6    C     C_3   0.773624 0.279868 0.561617 -0.258592
C7    C     C_3   0.237117 0.291264 0.446105 -0.264738
C8    C     C_3   0.273623 0.779868 0.561617 -0.258592
C9    C     C_3   0.737116 0.791264 0.446105 -0.264738
C10   C     C_3   0.756782 0.412269 0.570421 0.053009
C11   C     C_3   0.237927 0.425974 0.432905 0.060462
C12   C     C_3   0.256782 0.912269 0.570421 0.053009
C13   C     C_R   0.273043 0.948750 0.641798 0.552275
C14   C     C_3   0.737927 0.925974 0.432905 0.060462
C15   C     C_3   0.736411 0.359892 0.440085 0.069624
C16   C     C_3   0.251880 0.393371 0.565023 0.074857
C17   C     C_3   0.236411 0.859893 0.440085 0.069624
C18   C     C_3   0.751880 0.893371 0.565023 0.074857
C19   C     C_3   0.780211 0.477282 0.451458 -0.115441
C20   C     C_3   0.182892 0.463717 0.543813 -0.125143
C21   C     C_3   0.280212 0.977282 0.451458 -0.115442
C22   C     C_3   0.682892 0.963717 0.543813 -0.125142
C23   C     C_3   0.773224 0.257112 0.484474 -0.248242
C24   C     C_R   0.225442 0.452865 0.360046 0.539576
C25   C     C_3   0.253925 0.273579 0.523882 -0.222823
C26   C     C_3   0.273224 0.757112 0.484474 -0.248241
C27   C     C_3   0.753926 0.773579 0.523882 -0.222823
C28   C     C_3   0.554614 0.272890 0.948285 -0.233338
C29   C     C_3   0.577167 0.275873 0.026145 -0.239862
C30   C     C_3   0.054685 0.772770 0.948269 -0.233323
C31   C     C_3   0.077244 0.775746 0.026130 -0.239875
C32   C     C_3   0.437802 0.195125 0.972022 -0.230222
C33   C     C_3   0.559977 0.052554 0.030915 -0.232024
C34   C     C_3   0.937800 0.695294 0.972018 -0.230206
C35   C     C_R   0.773044 0.448750 0.641798 0.552276
C36   C     C_3   0.059861 0.552458 0.030935 -0.231985
C37   C     C_3   0.533960 0.050176 0.952952 -0.238239
C38   C     C_3   0.461148 0.192312 0.049225 -0.220777
C39   C     C_3   0.033858 0.550094 0.952971 -0.238234
C40   C     C_3   0.961143 0.692509 0.049220 -0.220772
C41   C     C_R   0.535776 0.180473 0.338296 0.537153
C42   C     C_R   0.463771 0.180263 0.661385 0.538012
C43   C     C_R   0.035776 0.680473 0.338296 0.537152
C44   C     C_R   0.963771 0.680262 0.661385 0.538014
C45   C     C_3   0.499925 0.172914 0.930775 0.056722
C46   C     C_3   0.665771 0.384201 0.467511 -0.254437
C47   C     C_3   0.540649 0.174978 0.062595 0.044936
C48   C     C_3   0.999915 0.672906 0.930776 0.056746
C49   C     C_3   0.040636 0.674971 0.062595 0.044958
C50   C     C_1   0.781079 0.474859 0.914795 -0.022455
C51   C     C_1   0.243204 0.411620 0.099919 -0.016487
C52   C     C_1   0.281074 0.974850 0.914794 -0.022454
C53   C     C_1   0.743205 0.911618 0.099919 -0.016488
C54   C     C_1   0.758645 0.437279 0.042032 -0.048298
C55   C     C_1   0.265394 0.361261 0.973947 -0.051951
C56   C     C_1   0.258640 0.937272 0.042030 -0.048295
C57   C     C_3   0.313668 0.468248 0.545055 -0.262130
C58   C     C_1   0.765396 0.861257 0.973948 -0.051952
C59   C     C_1   0.770431 0.459024 0.973458 -0.050194
C60   C     C_1   0.255415 0.385871 0.042806 -0.047771
C61   C     C_1   0.270425 0.959014 0.973456 -0.050195
C62   C     C_1   0.755416 0.885867 0.042806 -0.047771
C63   C     C_1   0.748747 0.410053 0.099566 -0.018582
C64   C     C_1   0.271627 0.340593 0.914561 -0.022680
C65   C     C_1   0.248744 0.910048 0.099565 -0.018577
C66   C     C_1   0.771629 0.840590 0.914561 -0.022689
C67   C     C_R   0.726425 0.318076 0.368167 0.555335
C68   C     C_3   0.165771 0.884203 0.467510 -0.254437
C69   C     C_R   0.260699 0.361039 0.638146 0.553110
C70   C     C_R   0.226425 0.818076 0.368167 0.555335
C71   C     C_R   0.760699 0.861039 0.638146 0.553110
C72   C     C_R   0.722918 0.952213 0.164106 0.535920
C73   C     C_R   0.294898 0.996869 0.845630 0.539675
C74   C     C_R   0.222918 0.452214 0.164106 0.535922
C75   C     C_R   0.794899 0.496872 0.845630 0.539679
C76   C     C_R   0.562369 0.182081 0.137296 0.551989
C77   C     C_R   0.471144 0.178720 0.857678 0.524758
C78   C     C_R   0.062360 0.682078 0.137295 0.551994
C79   C     C_3   0.813667 0.968249 0.545055 -0.262131
C80   C     C_R   0.971139 0.678718 0.857680 0.524765
C81   C     C_R   0.736933 0.361787 0.164962 0.543711
C82   C     C_R   0.277619 0.311554 0.844102 0.538983
C83   C     C_R   0.236933 0.861786 0.164962 0.543714
C84   C     C_R   0.777619 0.811553 0.844102 0.538978
C85   C     C_1   0.484560 0.173117 0.594017 -0.029979
C86   C     C_1   0.513815 0.173218 0.405163 -0.037571
C87   C     C_1   0.984560 0.673117 0.594017 -0.029980
C88   C     C_1   0.013815 0.673218 0.405163 -0.037571
C89   C     C_1   0.503284 0.170475 0.464381 -0.080929
C90   C     C_3   0.806468 0.482421 0.528613 -0.197792
C91   C     C_1   0.494502 0.170548 0.534634 -0.075765
C92   C     C_1   0.003284 0.670475 0.464381 -0.080928
C93   C     C_1   0.994502 0.670548 0.534634 -0.075765
C94   C     C_3   0.679141 0.432420 0.541839 -0.246473
C95   C     C_3   0.310514 0.471091 0.466374 -0.248863
C96   C     C_3   0.179141 0.932422 0.541839 -0.246473
C97   C     C_3   0.810514 0.971091 0.466374 -0.248863
C98   C     C_3   0.840947 0.492925 0.408798 -0.398209
C99   C     C_3   0.117007 0.407694 0.567062 -0.401466
C100  C     C_3   0.340948 0.992922 0.408798 -0.398210
Cr1   Cr    Cr6+3 0.765780 0.160710 0.267420 1.005184
Cr2   Cr    Cr6+3 0.383970 0.323720 0.751490 1.009479
Cr3   Cr    Cr6+3 0.116030 0.823720 0.248510 1.006676
Cr4   Cr    Cr6+3 0.883970 0.823720 0.751490 1.009478
Cr5   Cr    Cr6+3 0.234220 0.160710 0.732580 1.005194
Cr6   Cr    Cr6+3 0.265780 0.660710 0.267420 1.005188
Cr7   Cr    Cr6+3 0.734220 0.660710 0.732580 1.005194
Cr8   Cr    Cr6+3 0.612200 0.009560 0.248850 1.006156
Cr9   Cr    Cr6+3 0.387800 0.009560 0.751150 1.005275
Cr10  Cr    Cr6+3 0.112200 0.509560 0.248850 1.006155
Cr11  Cr    Cr6+3 0.887800 0.509560 0.751150 1.005269
Cr12  Cr    Cr6+3 0.616030 0.323720 0.248510 1.006675
H1    H     H_    0.665278 0.529183 0.542171 0.122102
H2    H     H_    0.126792 0.430160 0.443443 0.152732
H3    H     H_    0.359434 0.941840 0.537900 0.141324
H4    H     H_    0.626792 0.930162 0.443442 0.152732
H5    H     H_    0.533369 0.362981 0.931987 0.151536
H6    H     H_    0.634312 0.263758 0.036212 0.112543
H7    H     H_    0.033509 0.862912 0.931955 0.151502
H8    H     H_    0.134384 0.763473 0.036195 0.112515
H9    H     H_    0.600362 0.255990 0.920542 0.125281
H10   H     H_    0.564421 0.365761 0.046332 0.148624
H11   H     H_    0.100426 0.755730 0.920525 0.125256
H12   H     H_    0.326881 0.558141 0.447745 0.134191
H13   H     H_    0.064581 0.865689 0.046310 0.148582
H14   H     H_    0.413689 0.284324 0.958306 0.134776
H15   H     H_    0.617080 0.039193 0.038817 0.122462
H16   H     H_    0.913745 0.784534 0.958282 0.134842
H17   H     H_    0.116956 0.538930 0.038852 0.122520
H18   H     H_    0.444754 0.277748 0.072192 0.148762
H19   H     H_    0.578009 0.031323 0.923189 0.126975
H20   H     H_    0.944821 0.778028 0.072160 0.148784
H21   H     H_    0.077905 0.531120 0.923219 0.126981
H22   H     H_    0.495860 0.976390 0.942345 0.143654
H23   H     H_    0.165278 0.029185 0.542171 0.122102
H24   H     H_    0.434822 0.117610 0.073321 0.134546
H25   H     H_    0.995702 0.476383 0.942365 0.143658
H26   H     H_    0.934746 0.617908 0.073340 0.134517
H27   H     H_    0.536368 0.976510 0.056460 0.149829
H28   H     H_    0.397342 0.125926 0.959153 0.105057
H29   H     H_    0.036167 0.476499 0.056484 0.149805
H30   H     H_    0.897291 0.626165 0.959164 0.104999
H31   H     H_    0.645011 0.385159 0.574648 0.125751
H32   H     H_    0.351228 0.409174 0.451070 0.120999
H33   H     H_    0.145011 0.885161 0.574648 0.125751
H34   H     H_    0.826881 0.058141 0.447745 0.134191
H35   H     H_    0.851227 0.909174 0.451071 0.120998
H36   H     H_    0.635644 0.299643 0.466895 0.121490
H37   H     H_    0.364407 0.427937 0.566188 0.150683
H38   H     H_    0.135643 0.799647 0.466895 0.121491
H39   H     H_    0.864407 0.927937 0.566188 0.150683
H40   H     H_    0.634059 0.450962 0.434812 0.138413
H41   H     H_    0.312593 0.558774 0.566920 0.112312
H42   H     H_    0.134061 0.950965 0.434811 0.138412
H43   H     H_    0.812593 0.058775 0.566920 0.112312
H44   H     H_    0.314977 0.071880 0.548211 0.101139
H45   H     H_    0.827667 0.248411 0.473152 0.132444
H46   H     H_    0.660298 0.072571 0.450169 0.087777
H47   H     H_    0.814976 0.571881 0.548210 0.101139
H48   H     H_    0.160298 0.572570 0.450169 0.087779
H49   H     H_    0.244753 0.054171 0.438231 0.134918
H50   H     H_    0.687028 0.053635 0.567585 0.118753
H51   H     H_    0.744752 0.554171 0.438231 0.134917
H52   H     H_    0.187029 0.553636 0.567585 0.118753
H53   H     H_    0.825594 0.255326 0.588425 0.137634
H54   H     H_    0.185788 0.251519 0.427862 0.128251
H55   H     H_    0.325593 0.755325 0.588425 0.137633
H56   H     H_    0.219906 0.203555 0.541233 0.138063
H57   H     H_    0.685787 0.751519 0.427862 0.128252
H58   H     H_    0.734793 0.225059 0.584025 0.107189
H59   H     H_    0.276505 0.245562 0.418326 0.105383
H60   H     H_    0.234791 0.725060 0.584025 0.107189
H61   H     H_    0.776504 0.745562 0.418325 0.105382
H62   H     H_    0.746199 0.174360 0.472190 0.114818
H63   H     H_    0.308870 0.245832 0.532528 0.112750
H64   H     H_    0.246198 0.674361 0.472190 0.114817
H65   H     H_    0.808871 0.745833 0.532527 0.112750
H66   H     H_    0.877784 0.415983 0.416232 0.158264
H67   H     H_    0.327666 0.748410 0.473152 0.132444
H68   H     H_    0.821615 0.503393 0.353378 0.172143
H69   H     H_    0.869306 0.576312 0.424921 0.122108
H70   H     H_    0.112850 0.311094 0.553155 0.148852
H71   H     H_    0.116414 0.418784 0.623301 0.165279
H72   H     H_    0.070043 0.454520 0.541979 0.128274
H73   H     H_    0.377784 0.915980 0.416232 0.158265
H74   H     H_    0.321616 0.003391 0.353378 0.172143
H75   H     H_    0.369308 0.076309 0.424922 0.122109
H76   H     H_    0.612850 0.811092 0.553154 0.148852
H77   H     H_    0.616414 0.918781 0.623301 0.165279
H78   H     H_    0.719907 0.703554 0.541233 0.138063
H79   H     H_    0.570042 0.954517 0.541978 0.128273
H80   H     H_    0.859433 0.441841 0.537899 0.141324
O1    O     O_R   0.783100 0.287550 0.345460 -0.529175
O2    O     O_R   0.454350 0.284910 0.836260 -0.527932
O3    O     O_R   0.045650 0.784910 0.163740 -0.519987
O4    O     O_R   0.954350 0.784910 0.836260 -0.527929
O5    O     O_R   0.677950 0.374280 0.185410 -0.507228
O6    O     O_R   0.322050 0.374280 0.814590 -0.483295
O7    O     O_R   0.177950 0.874280 0.185410 -0.507225
O8    O     O_R   0.822050 0.874280 0.814590 -0.483301
O9    O     O_3   0.664670 0.164660 0.254930 -0.286048
O10   O     O_3   0.335330 0.164660 0.745070 -0.289380
O11   O     O_3   0.164670 0.664660 0.254930 -0.286041
O12   O     O_R   0.216900 0.287550 0.654540 -0.528530
O13   O     O_3   0.835330 0.664660 0.745070 -0.289383
O14   O     O_R   0.760020 0.037400 0.337700 -0.523218
O15   O     O_R   0.239980 0.037400 0.662300 -0.508178
O16   O     O_R   0.260020 0.537400 0.337700 -0.523218
O17   O     O_R   0.739980 0.537400 0.662300 -0.508178
O18   O     O_R   0.666600 0.921990 0.332020 -0.526323
O19   O     O_R   0.333400 0.921990 0.667980 -0.521468
O20   O     O_R   0.166600 0.421990 0.332020 -0.526324
O21   O     O_R   0.833400 0.421990 0.667980 -0.521467
O22   O     O_R   0.557260 0.082670 0.312540 -0.496329
O23   O     O_R   0.283100 0.787550 0.345460 -0.529175
O24   O     O_R   0.442740 0.082670 0.687460 -0.497311
O25   O     O_R   0.057260 0.582670 0.312540 -0.496329
O26   O     O_R   0.942740 0.582670 0.687460 -0.497310
O27   O     O_R   0.548410 0.285740 0.316480 -0.513666
O28   O     O_R   0.451590 0.285740 0.683520 -0.512065
O29   O     O_R   0.048410 0.785740 0.316480 -0.513667
O30   O     O_R   0.951590 0.785740 0.683520 -0.512064
O31   O     O_R   0.680500 0.375040 0.327000 -0.505070
O32   O     O_R   0.319500 0.375040 0.673000 -0.502221
O33   O     O_R   0.180500 0.875040 0.327000 -0.505070
O34   O     O_R   0.716900 0.787550 0.654540 -0.528530
O35   O     O_R   0.819500 0.875040 0.673000 -0.502220
O36   O     O_R   0.780350 0.286720 0.192720 -0.502668
O37   O     O_R   0.219650 0.286720 0.807280 -0.507004
O38   O     O_R   0.280350 0.786720 0.192720 -0.502668
O39   O     O_R   0.719650 0.786720 0.807280 -0.506999
O40   O     O_R   0.757470 0.036630 0.196110 -0.493929
O41   O     O_R   0.242530 0.036630 0.803890 -0.501782
O42   O     O_R   0.257470 0.536630 0.196110 -0.493926
O43   O     O_R   0.742530 0.536630 0.803890 -0.501781
O44   O     O_R   0.663840 0.921160 0.179280 -0.516137
O45   O     O_R   0.554710 0.081900 0.170950 -0.502279
O46   O     O_R   0.336160 0.921160 0.820720 -0.497160
O47   O     O_R   0.163840 0.421160 0.179280 -0.516137
O48   O     O_R   0.836160 0.421160 0.820720 -0.497166
O49   O     O_R   0.445290 0.081900 0.829050 -0.521650
O50   O     O_R   0.054710 0.581900 0.170950 -0.502283
O51   O     O_R   0.945290 0.581900 0.829050 -0.521662
O52   O     O_R   0.545650 0.284910 0.163740 -0.519983

loop_
_geom_bond_atom_site_label_1
_geom_bond_atom_site_label_2
_ccdc_geom_bond_type
C95   H12   S    
C58   C62   S    
C46   H40   S    
C39   H25   S    
C17   C26   S    
C41   O22   A    
C81   O36   A    
Cr7   O39   S    
C8    C26   S    
C32   C45   S    
C13   O19   A    
C4    H3    S    
C9    H57   S    
C51   C74   S    
C9    C14   S    
Cr9   O24   S    
C3    H76   S    
Cr8   O44   S    
C85   C91   T    
Cr2   O32   S    
C23   H62   S    
C90   H80   S    
C26   H67   S    
C84   O8    A    
C15   C19   S    
C41   C86   S    
Cr9   O19   S    
C58   C66   T    
C78   O50   A    
C29   C47   S    
Cr1   O36   S    
C34   C40   S    
C94   H31   S    
C38   H18   S    
C30   C48   S    
C28   C29   S    
C76   O52   A    
C47   C76   S    
C82   O6    A    
C68   H42   S    
C52   C61   T    
Cr2   O6    S    
C81   O5    A    
C30   C31   S    
C22   H50   S    
C65   C83   S    
C54   C63   T    
C10   C94   S    
C40   C49   S    
C20   H52   S    
Cr7   O34   S    
C87   C93   T    
C11   C24   S    
C33   H15   S    
C49   C78   S    
C97   H34   S    
C32   H14   S    
C90   H47   S    
C84   O39   A    
Cr10  O25   S    
C25   H63   S    
C99   H70   S    
Cr6   O11   S    
C19   C98   S    
C46   H36   S    
C5    C22   S    
C88   C92   T    
C18   C79   S    
C57   H37   S    
C13   O15   A    
C75   O43   A    
C10   C35   S    
C27   H78   S    
C32   C38   S    
C8    C12   S    
C74   O42   A    
C44   C87   S    
C72   O40   A    
C4    C12   S    
Cr11  O13   S    
C73   O41   A    
Cr2   O28   S    
C78   O3    A    
Cr12  O52   S    
C1    O14   A    
C15   C23   S    
Cr9   O49   S    
C40   H20   S    
C6    H53   S    
C95   H32   S    
C18   C22   S    
C55   C60   S    
C55   C64   T    
C97   H35   S    
C75   O48   A    
C43   O25   A    
Cr3   O3    S    
Cr12  O9    S    
C31   C49   S    
C2    C11   S    
Cr2   O2    S    
C83   O7    A    
Cr4   O30   S    
C41   O27   A    
C94   H1    S    
Cr1   O1    S    
Cr5   O15   S    
C96   H23   S    
C12   C96   S    
C54   C59   S    
C25   H56   S    
C24   O20   A    
C80   O4    A    
C28   C45   S    
C21   H49   S    
C16   C69   S    
C2    C20   S    
C99   H71   S    
Cr11  O21   S    
C100  H75   S    
C44   O26   A    
C52   C73   S    
Cr4   O8    S    
C44   O30   A    
C36   H17   S    
C21   C100  S    
C68   H38   S    
Cr10  O47   S    
Cr5   O12   S    
Cr3   O7    S    
C19   H51   S    
C14   C97   S    
C57   H41   S    
C24   O16   A    
C33   C37   S    
C72   O44   A    
C40   H26   S    
Cr10  O11   S    
C66   C84   S    
Cr5   O37   S    
C100  H74   S    
C77   O2    A    
Cr8   O9    S    
C96   H33   S    
C8    H55   S    
C37   H19   S    
Cr4   O4    S    
C34   H30   S    
C53   C62   T    
Cr10  O50   S    
C7    C11   S    
C46   C94   S    
C26   H64   S    
C16   C20   S    
C15   C67   S    
C29   H10   S    
Cr6   O23   S    
C38   C47   S    
C56   C61   S    
C42   C85   S    
C68   C96   S    
Cr4   O13   S    
C12   C13   S    
C67   O31   A    
C9    H61   S    
C35   O21   A    
C64   C82   S    
C5    C14   S    
Cr5   O41   S    
C69   O12   A    
C70   O23   A    
C2    H48   S    
Cr11  O26   S    
C82   O37   A    
C63   C81   S    
C43   O29   A    
C5    H46   S    
C38   H24   S    
C5    H4    S    
C57   C95   S    
C18   C71   S    
C33   C47   S    
Cr12  O31   S    
C77   O49   A    
C51   C60   T    
C98   H66   S    
C43   C88   S    
C56   C65   T    
C98   H68   S    
Cr9   O46   S    
Cr12  O5    S    
C9    C27   S    
Cr4   O35   S    
C99   H72   S    
C6    H58   S    
C79   H39   S    
C11   C95   S    
C16   C25   S    
C36   H29   S    
Cr7   O43   S    
Cr9   O10   S    
C17   C68   S    
Cr11  O51   S    
Cr6   O42   S    
C4    H44   S    
C1    O18   A    
C28   H9    S    
C71   O35   A    
C7    H54   S    
C36   C39   S    
Cr10  O20   S    
C18   C27   S    
C27   H65   S    
C86   C89   T    
C6    C10   S    
Cr8   O18   S    
C79   C97   S    
Cr7   O17   S    
C83   O38   A    
Cr3   O33   S    
C39   H21   S    
C29   H6    S    
C42   O28   A    
Cr11  O48   S    
C7    C25   S    
C80   O51   A    
C28   H5    S    
C69   O32   A    
C48   C80   S    
C98   H69   S    
C3    H77   S    
C100  H73   S    
C35   O17   A    
C73   O46   A    
C19   C90   S    
C67   O1    A    
C50   C75   S    
Cr3   O29   S    
Cr6   O16   S    
C4    C21   S    
C2    H2    S    
Cr5   O10   S    
C20   C99   S    
C33   H27   S    
C6    C23   S    
C23   H45   S    
C92   C93   S    
C71   O34   A    
Cr12  O27   S    
Cr1   O40   S    
C16   C57   S    
C32   H28   S    
Cr2   O10   S    
C3    H79   S    
C70   O33   A    
Cr3   O11   S    
C31   H8    S    
Cr7   O13   S    
C42   O24   A    
Cr1   O14   S    
C79   H43   S    
Cr6   O38   S    
C17   C70   S    
C34   C48   S    
Cr8   O45   S    
C10   C90   S    
C50   C59   T    
C34   H16   S    
C89   C91   S    
C30   H7    S    
C30   H11   S    
C31   H13   S    
C37   H22   S    
C76   O45   A    
C3    C22   S    
Cr1   O9    S    
C1    C14   S    
C15   C46   S    
C45   C77   S    
C7    H59   S    
C74   O47   A    
C53   C72   S    
C37   C45   S    
Cr8   O22   S    
C36   C49   S    
C8    H60   S    
C39   C48   S    
C17   C21   S    
