data_mof_unit_9918.cif
_audit_creation_date              2012-12-11T14:19:23-0500
_audit_creation_method            fapswitch 2.2
_symmetry_space_group_name_H-M    P1
_symmetry_Int_Tables_number       1
_space_group_crystal_system       triclinic
_cell_length_a                    19.46878
_cell_length_b                    7.227164
_cell_length_c                    17.77437
_cell_angle_alpha                 90.060862
_cell_angle_beta                  107.811681
_cell_angle_gamma                 89.931279
_cell_volume                      2381.04701439

loop_
_atom_site_label
_atom_site_type_symbol
_atom_type_description
_atom_site_fract_x
_atom_site_fract_y
_atom_site_fract_z
_atom_type_partial_charge
O1    O     O_R   0.414820 0.494320 0.416790 -0.543822
O2    O     O_R   0.585180 0.994320 0.583210 -0.544098
O3    O     O_R   0.560270 0.819500 0.430140 -0.545619
O4    O     O_R   0.439730 0.319500 0.569860 -0.545906
C1    C     C_R   0.582854 0.655525 0.416733 0.763486
C2    C     C_R   0.417213 0.155786 0.583427 0.763314
O5    O     O_R   0.413840 0.823740 0.407440 -0.538067
O6    O     O_R   0.586160 0.323740 0.592560 -0.538112
O7    O     O_R   0.437710 0.998590 0.560350 -0.511380
O8    O     O_R   0.562290 0.498590 0.439650 -0.511529
C3    C     C_R   0.387509 0.655604 0.385185 0.759931
C4    C     C_R   0.612502 0.155585 0.614812 0.759950
O9    O     O_3   0.508000 0.662290 0.550200 -0.373730
O10   O     O_3   0.492000 0.162290 0.449800 -0.373331
V1    V     V_3+5 0.498520 0.935380 0.490690 1.450868
V2    V     V_3+5 0.501480 0.435380 0.509310 1.450447
C5    C     C_2   0.786412 0.273288 0.785837 0.373224
C6    C     C_2   0.213797 0.773300 0.213873 0.375382
C7    C     C_2   0.816130 0.115444 0.822820 -0.344821
C8    C     C_2   0.183907 0.615316 0.177150 -0.343016
H1    H     H_    0.785328 0.987712 0.810353 0.091929
H2    H     H_    0.214588 0.487284 0.189821 0.091793
C9    C     C_2   0.709651 0.278737 0.733221 0.066908
C10   C     C_2   0.290550 0.778325 0.266531 0.066124
C11   C     C_2   0.683282 0.146150 0.677683 -0.327974
C12   C     C_2   0.316749 0.646256 0.322291 -0.326385
H3    H     H_    0.717076 0.027894 0.675353 0.101927
H4    H     H_    0.282844 0.528571 0.324769 0.102657
C13   C     C_R   0.311069 0.288467 0.620420 0.045933
C14   C     C_R   0.689881 0.785981 0.381324 0.048249
C15   C     C_R   0.364607 0.148700 0.629419 -0.125547
C16   C     C_R   0.635769 0.647741 0.371243 -0.125093
C17   C     C_R   0.369454 0.003603 0.684164 0.255092
C18   C     C_R   0.630892 0.503101 0.316192 0.254901
C19   C     C_R   0.319191 0.992975 0.727430 -0.001738
C20   C     C_R   0.681250 0.492555 0.273070 -0.002467
C21   C     C_R   0.269996 0.140006 0.722995 -0.004365
C22   C     C_R   0.730031 0.640158 0.277375 -0.006103
C23   C     C_R   0.268031 0.291291 0.672018 0.083299
C24   C     C_R   0.732835 0.789612 0.329651 0.082305
C25   C     C_R   0.316448 0.837924 0.774554 -0.182084
C26   C     C_R   0.684725 0.336710 0.226527 -0.175281
C27   C     C_R   0.268764 0.832353 0.819189 -0.166377
C28   C     C_R   0.732905 0.330661 0.182486 -0.174085
C29   C     C_R   0.221929 0.980208 0.817604 0.093966
C30   C     C_R   0.778734 0.480003 0.183206 0.097482
C31   C     C_R   0.221872 0.134667 0.769169 0.048447
C32   C     C_R   0.777344 0.636318 0.230270 0.049725
C33   C     C_R   0.173812 0.283353 0.766854 0.000014
C34   C     C_R   0.823935 0.787117 0.231218 -0.000170
C35   C     C_R   0.176979 0.438941 0.720669 -0.200068
C36   C     C_R   0.824846 0.936022 0.282443 -0.190352
C37   C     C_R   0.222453 0.441926 0.673586 -0.157919
C38   C     C_R   0.780182 0.937438 0.330399 -0.158575
C39   C     C_R   0.175409 0.975225 0.864061 -0.289439
C40   C     C_R   0.826494 0.473385 0.138226 -0.305296
C41   C     C_R   0.127827 0.122010 0.863053 -0.110173
C42   C     C_R   0.871990 0.623259 0.136974 -0.104586
C43   C     C_R   0.125208 0.274519 0.812442 0.297075
C44   C     C_R   0.869783 0.782962 0.182451 0.298828
H5    H     H_    0.349977 0.717509 0.776463 0.140082
H6    H     H_    0.651730 0.215645 0.225066 0.139252
H7    H     H_    0.268461 0.711260 0.855022 0.132537
H8    H     H_    0.734306 0.208213 0.147705 0.123080
H9    H     H_    0.176864 0.856945 0.902025 0.153438
H10   H     H_    0.827054 0.351993 0.102504 0.141646
H11   H     H_    0.145145 0.561585 0.720812 0.143495
H12   H     H_    0.860937 0.052180 0.287570 0.146018
H13   H     H_    0.222459 0.566206 0.639717 0.145044
H14   H     H_    0.782823 0.057779 0.367403 0.143713
O11   O     O_R   0.937810 0.773680 0.060480 -0.513089
O12   O     O_R   0.062190 0.273680 0.939520 -0.510349
O13   O     O_R   0.086190 0.439740 0.092580 -0.551207
O14   O     O_R   0.913810 0.939740 0.907420 -0.551997
C45   C     C_R   0.112922 0.608481 0.114353 0.767208
C46   C     C_R   0.887093 0.108511 0.885631 0.762307
O15   O     O_R   0.939760 0.444210 0.069890 -0.554960
O16   O     O_R   0.060240 0.944210 0.930110 -0.552685
O17   O     O_R   0.914790 0.269640 0.916760 -0.501210
O18   O     O_R   0.085210 0.769640 0.083240 -0.500674
C47   C     C_R   0.919915 0.613122 0.085843 0.733207
C48   C     C_R   0.080067 0.112761 0.914218 0.735445
O19   O     O_3   0.992050 0.601530 0.949880 -0.363688
O20   O     O_3   0.007950 0.101530 0.050120 -0.365413
V3    V     V_3+5 0.001480 0.328340 0.009300 1.531008
V4    V     V_3+5 0.998520 0.828340 0.990700 1.533862
O21   O     O_3   0.826703 0.434485 0.799609 -0.625767
H15   H     H_    0.800032 0.530941 0.762441 0.287036
O22   O     O_3   0.173696 0.934991 0.199806 -0.623896
H16   H     H_    0.200458 0.031620 0.236825 0.288521
O23   O     O_3   0.073764 0.409593 0.807581 -0.634047
H17   H     H_    0.054933 0.451403 0.752040 0.283002
O24   O     O_3   0.914658 0.929393 0.180466 -0.628991
H18   H     H_    0.887139 0.045514 0.178514 0.277240
C49   C     C_3   0.663718 0.439345 0.744251 -0.716075
H19   H     H_    0.689571 0.511721 0.801024 0.194939
H20   H     H_    0.656623 0.541440 0.695843 0.214445
H21   H     H_    0.610368 0.389124 0.746149 0.206971
C50   C     C_3   0.336679 0.937954 0.255316 -0.716355
H22   H     H_    0.310963 0.009780 0.198405 0.195129
H23   H     H_    0.343816 0.040757 0.303547 0.214878
H24   H     H_    0.390009 0.886793 0.253598 0.206957
C51   C     C_3   0.296031 0.426717 0.552922 -0.732326
H25   H     H_    0.313135 0.375088 0.502684 0.195780
H26   H     H_    0.237133 0.450057 0.526961 0.192510
H27   H     H_    0.323242 0.560103 0.574518 0.227346
C52   C     C_3   0.705547 0.921725 0.449886 -0.736434
H28   H     H_    0.686070 0.872493 0.498754 0.196588
H29   H     H_    0.764633 0.937453 0.477606 0.191465
H30   H     H_    0.681173 0.058453 0.428750 0.225469
O25   O     O_3   0.424370 0.875608 0.694535 -0.638973
H31   H     H_    0.441662 0.839821 0.750955 0.280597
O26   O     O_3   0.575871 0.375528 0.305402 -0.638554
H32   H     H_    0.559179 0.338601 0.249077 0.280728

loop_
_geom_bond_atom_site_label_1
_geom_bond_atom_site_label_2
_ccdc_geom_bond_type
C14   C16   A    
O21   H15   S    
O24   H18   S    
C14   C52   S    
C10   C50   S    
O13   C45   A    
C20   C26   A    
C49   H19   S    
O1    C3    A    
C46   O17   A    
C25   H5    S    
C37   H13   S    
C2    O7    A    
O12   V3    S    
C49   H21   S    
C27   H7    S    
C31   C33   A    
C23   C37   A    
C28   H8    S    
C18   O26   S    
O5    C3    A    
C5    C9    S    
O14   C46   A    
C6    C10   S    
C7    C46   S    
C7    H1    S    
C10   C12   D    
C41   C43   A    
C42   C44   A    
C41   C48   S    
C13   C51   S    
O18   V4    S    
C5    C7    D    
O25   H31   S    
C28   C30   A    
C33   C35   A    
C50   H24   S    
C34   C36   A    
C52   H28   S    
C15   C17   A    
C17   O25   S    
C40   C42   A    
C21   C31   A    
C45   O18   A    
C26   H6    S    
C22   C32   A    
C36   H12   S    
C1    C16   S    
C44   O24   S    
O16   V4    S    
O5    V1    S    
C2    C15   S    
O2    C4    A    
O6    V2    S    
C25   C27   A    
C26   C28   A    
C39   H9    S    
C36   C38   A    
C29   C31   A    
C30   C32   A    
O20   V3    S    
O4    C2    A    
C42   C47   S    
O23   H17   S    
C35   H11   S    
C3    C12   S    
C8    C45   S    
C35   C37   A    
C16   C18   A    
O4    V2    S    
O11   V4    S    
O16   C48   A    
C50   H22   S    
C38   H14   S    
O15   C47   A    
O6    C4    A    
C13   C23   A    
C14   C24   A    
C51   H26   S    
O1    V2    S    
C43   O23   S    
O14   V4    S    
O2    V1    S    
C27   C29   A    
O13   V3    S    
C50   H23   S    
C8    H2    S    
C24   C38   A    
C39   C41   A    
C52   H30   S    
O17   V3    S    
O3    V1    S    
O26   H32   S    
C19   C21   A    
C5    O21   S    
C6    O22   S    
O3    C1    A    
C49   H20   S    
C11   H3    S    
C12   H4    S    
C33   C43   A    
C4    C11   S    
C34   C44   A    
C20   C22   A    
O7    V1    S    
C1    O8    A    
C21   C23   A    
O8    V2    S    
C22   C24   A    
C52   H29   S    
C40   H10   S    
C32   C34   A    
C17   C19   A    
C18   C20   A    
C9    C49   S    
C51   H27   S    
C6    C8    D    
C9    C11   D    
C19   C25   A    
O15   V3    S    
O19   V4    S    
C29   C39   A    
C13   C15   A    
O9    V2    S    
C30   C40   A    
C51   H25   S    
O10   V1    S    
O22   H16   S    
O12   C48   A    
O11   C47   A    
