data_mof_unit_55273.cif
_audit_creation_date              2012-12-10T19:10:25-0500
_audit_creation_method            fapswitch 2.2
_symmetry_space_group_name_H-M    P1
_symmetry_Int_Tables_number       1
_space_group_crystal_system       triclinic
_cell_length_a                    10.653475
_cell_length_b                    9.822533
_cell_length_c                    15.671718
_cell_angle_alpha                 88.940614
_cell_angle_beta                  90.029827
_cell_angle_gamma                 90.228498
_cell_volume                      1639.65945679

loop_
_atom_site_label
_atom_site_type_symbol
_atom_type_description
_atom_site_fract_x
_atom_site_fract_y
_atom_site_fract_z
_atom_type_partial_charge
C1    C     C_R   0.258262 0.499607 0.498478 0.873505
C2    C     C_3   0.634938 0.519024 0.950256 -0.354412
C3    C     C_3   0.635012 0.520738 0.048716 -0.380589
C4    C     C_1   0.498870 0.497966 0.825789 -0.041636
C5    C     C_1   0.499105 0.503760 0.173988 -0.110971
C6    C     C_1   0.498860 0.503347 0.249460 -0.128504
C7    C     C_3   0.073855 0.580811 0.419519 -0.475868
C8    C     C_3   0.074730 0.564739 0.580866 -0.419961
C9    C     C_3   0.930420 0.596265 0.426247 0.286592
C10   C     C_3   0.930653 0.551612 0.586742 0.246165
C11   C     C_3   0.071615 0.350641 0.491794 -0.360967
C12   C     C_3   0.122183 0.498828 0.497868 0.024521
C13   C     C_3   0.879199 0.498495 0.499335 -0.136758
C14   C     C_R   0.499113 0.501073 0.338456 0.964574
C15   C     C_3   0.929287 0.351347 0.486267 -0.353478
C16   C     C_3   0.437375 0.083613 0.419990 -0.349158
C17   C     C_3   0.419354 0.921577 0.428315 -0.401887
C18   C     C_3   0.628743 0.081373 0.494735 -0.300926
C19   C     C_3   0.626961 0.921893 0.480482 -0.222402
C20   C     C_3   0.423780 0.067908 0.570920 0.352075
C21   C     C_3   0.459732 0.914265 0.582554 0.312164
C22   C     C_R   0.742321 0.499847 0.499748 1.011999
C23   C     C_R   0.498307 0.499161 0.661453 0.999674
C24   C     C_3   0.416883 0.619822 0.046852 -0.392233
C25   C     C_3   0.446097 0.365024 0.051505 -0.409669
C26   C     C_3   0.446102 0.363184 0.953107 -0.359816
C27   C     C_3   0.416792 0.617992 0.948454 -0.374620
C28   C     C_1   0.498395 0.497759 0.750383 0.011718
C29   C     C_3   0.499315 0.502482 0.082502 0.329126
C30   C     C_3   0.499215 0.499436 0.917184 0.275677
H1    H     H_    0.318810 0.606088 0.924894 0.190689
H2    H     H_    0.348656 0.346928 0.929554 0.187774
H3    H     H_    0.110029 0.300426 0.434278 0.165121
H4    H     H_    0.101319 0.288925 0.548357 0.266302
H5    H     H_    0.899997 0.311399 0.423687 0.230110
H6    H     H_    0.891069 0.278941 0.535170 0.235992
H7    H     H_    0.493140 0.109259 0.361735 0.195278
H8    H     H_    0.442760 0.874679 0.366358 0.213620
H9    H     H_    0.344701 0.133269 0.410057 0.168590
H10   H     H_    0.319068 0.896361 0.440830 0.155612
H11   H     H_    0.681770 0.131262 0.441522 0.171613
H12   H     H_    0.655074 0.901421 0.413490 0.184048
H13   H     H_    0.324229 0.062706 0.548617 0.045225
H14   H     H_    0.373854 0.856810 0.602000 0.102860
H15   H     H_    0.681374 0.108114 0.552809 0.229104
H16   H     H_    0.701759 0.873025 0.518573 0.224402
H17   H     H_    0.318943 0.608797 0.070841 0.186373
H18   H     H_    0.348613 0.349715 0.075508 0.181282
H19   H     H_    0.503903 0.279205 0.076910 0.178377
H20   H     H_    0.453487 0.719600 0.068760 0.182297
H21   H     H_    0.503991 0.276583 0.930936 0.205781
H22   H     H_    0.453292 0.716937 0.922825 0.212737
H23   H     H_    0.675229 0.618819 0.070745 0.202292
H24   H     H_    0.695924 0.437454 0.074031 0.178506
H25   H     H_    0.674964 0.616370 0.924645 0.201038
H26   H     H_    0.695926 0.435033 0.927972 0.205965
H27   H     H_    0.100924 0.526361 0.360718 0.220448
H28   H     H_    0.122310 0.517776 0.637297 0.245571
H29   H     H_    0.117759 0.683825 0.415683 0.169450
H30   H     H_    0.100958 0.674648 0.580630 0.150751
H31   H     H_    0.912417 0.702757 0.446118 0.081647
H32   H     H_    0.892121 0.655025 0.597228 0.112420
N1    N     N_3   0.499750 0.138610 0.498180 -0.106109
N2    N     N_3   0.499750 0.861390 0.498180 -0.120155
O1    O     O_R   0.314910 0.616040 0.499980 -0.659409
O2    O     O_R   0.314910 0.383960 0.499980 -0.613189
O3    O     O_R   0.500120 0.616090 0.377110 -0.597711
O4    O     O_R   0.500120 0.383910 0.377110 -0.637490
O5    O     O_R   0.685320 0.616040 0.499960 -0.603589
O6    O     O_R   0.685320 0.383960 0.499960 -0.608839
O7    O     O_R   0.500110 0.615990 0.622830 -0.579145
O8    O     O_R   0.500110 0.384010 0.622830 -0.512157
Zn1   Zn    Zn3+2 0.500150 0.654960 0.499960 0.993298
Zn2   Zn    Zn3+2 0.500150 0.345040 0.499960 1.020623
S1    S     S_3+6 0.855959 0.583340 0.322585 -0.018779
O9    O     O_2   0.747541 0.680488 0.318621 -0.321991
O10   O     O_2   0.947648 0.623437 0.253558 -0.307434
O11   O     O_3   0.802962 0.425110 0.304417 -0.603095
H33   H     H_    0.773609 0.427522 0.244437 0.374393
S2    S     S_3+6 0.888717 0.449700 0.680313 -0.003272
O12   O     O_2   0.898450 0.537814 0.757445 -0.315818
O13   O     O_2   0.757378 0.395555 0.674125 -0.311049
O14   O     O_3   0.987320 0.317426 0.692598 -0.542809
H34   H     H_    0.959808 0.270303 0.745830 0.397587
S3    S     S_3+6 0.379004 0.144482 0.671336 0.062263
O15   O     O_2   0.487314 0.187195 0.726181 -0.229139
O16   O     O_2   0.291968 0.262370 0.656004 -0.331500
O17   O     O_3   0.296549 0.026240 0.726770 -0.549350
H35   H     H_    0.271253 0.071587 0.779983 0.384761
S4    S     S_3+6 0.574752 0.886276 0.670527 0.060858
O18   O     O_2   0.649142 0.012122 0.689325 -0.257849
O19   O     O_2   0.502750 0.845423 0.749467 -0.282823
O20   O     O_3   0.681926 0.765047 0.652221 -0.568778
H36   H     H_    0.720736 0.745109 0.708503 0.392486

loop_
_geom_bond_atom_site_label_1
_geom_bond_atom_site_label_2
_ccdc_geom_bond_type
C26   H2    S    
O20   H36   S    
C24   C27   S    
C19   H16   S    
S3    O15   D    
C9    H31   S    
C2    H25   S    
C17   N2    S    
C5    C6    T    
C3    H24   S    
C18   N1    S    
C14   O3    A    
O4    Zn2   S    
O2    Zn2   S    
O1    Zn1   S    
C18   C19   S    
C15   H5    S    
C3    C29   S    
C9    C13   S    
C24   C29   S    
C21   N2    S    
C8    H28   S    
C11   C15   S    
C16   C17   S    
O6    Zn2   S    
C1    O1    A    
N2    Zn1   S    
O5    Zn1   S    
O3    Zn1   S    
C16   N1    S    
C22   O5    A    
C19   H12   S    
C16   H7    S    
C27   C30   S    
C25   C29   S    
C10   H32   S    
C1    C12   S    
S2    O14   S    
C7    H29   S    
C4    C28   T    
C5    C29   S    
C21   S4    S    
S3    O16   D    
C24   H20   S    
C7    C12   S    
C27   H1    S    
C23   O7    A    
C11   H3    S    
S2    O13   D    
C18   H11   S    
O7    Zn1   S    
C10   S2    S    
O11   H33   S    
C25   C26   S    
C17   H10   S    
S1    O9    D    
C6    C14   S    
C21   H14   S    
S4    O19   D    
O14   H34   S    
C19   N2    S    
C8    C12   S    
C20   S3    S    
C1    O2    A    
C23   C28   S    
C20   C21   S    
S1    O10   D    
C25   H18   S    
O8    Zn2   S    
C26   C30   S    
C13   C15   S    
C18   H15   S    
C15   H6    S    
C20   H13   S    
C27   H22   S    
S4    O20   S    
S3    O17   S    
C7    C9    S    
C24   H17   S    
C23   O8    A    
C11   H4    S    
S2    O12   D    
C10   C13   S    
C11   C12   S    
N1    Zn2   S    
C2    C30   S    
C20   N1    S    
C2    C3    S    
C2    H26   S    
C26   H21   S    
C8    H30   S    
C3    H23   S    
S4    O18   D    
C22   O6    A    
C13   C22   S    
C17   H8    S    
S1    O11   S    
C25   H19   S    
C16   H9    S    
O17   H35   S    
C8    C10   S    
C14   O4    A    
C9    S1    S    
C7    H27   S    
C4    C30   S    
