data_mof_unit_64555.cif
_audit_creation_date              2012-10-26T20:18:35-0400
_audit_creation_method            fapswitch 2.2
_symmetry_space_group_name_H-M    P1
_symmetry_Int_Tables_number       1
_space_group_crystal_system       triclinic
_cell_length_a                    10.848576
_cell_length_b                    11.08556
_cell_length_c                    9.873374
_cell_angle_alpha                 110.672889
_cell_angle_beta                  98.7439
_cell_angle_gamma                 92.520656
_cell_volume                      1091.89149673

loop_
_atom_site_label
_atom_site_type_symbol
_atom_type_description
_atom_site_fract_x
_atom_site_fract_y
_atom_site_fract_z
_atom_type_partial_charge
Br1   Br    Br    0.151383 0.728572 0.412715 -0.317167
Br2   Br    Br    0.832723 0.206214 0.361376 -0.281570
Br3   Br    Br    0.419829 0.160593 0.699076 -0.403716
Br4   Br    Br    0.641417 0.643787 0.202361 -0.385387
Br5   Br    Br    0.138143 0.302658 0.647587 -0.269956
Br6   Br    Br    0.867585 0.356424 0.717753 -0.213241
Br7   Br    Br    0.925730 0.648010 0.825627 -0.294135
Br8   Br    Br    0.864347 0.783131 0.578531 -0.283244
Br9   Br    Br    0.049322 0.430362 0.180015 -0.309477
Br10  Br    Br    0.116457 0.220972 0.297350 -0.230019
C1    C     C_R   0.487704 0.253941 0.441240 0.589353
C2    C     C_2   0.483725 0.495150 0.918480 0.054351
C3    C     C_R   0.259828 0.499140 0.500980 0.599060
C4    C     C_R   0.508868 0.745084 0.558773 0.587131
C5    C     C_R   0.739444 0.497199 0.500061 0.614124
C6    C     C_3   0.090326 0.471449 0.647626 0.068140
C7    C     C_3   0.947291 0.489266 0.657593 0.269216
C8    C     C_3   0.076230 0.633270 0.518885 -0.011996
C9    C     C_3   0.044265 0.387878 0.357095 0.273900
C10   C     C_3   0.121649 0.496626 0.504554 -0.071187
C11   C     C_1   0.169097 0.560896 0.787194 0.304889
C12   C     C_3   0.877124 0.495104 0.505211 -0.078278
C13   C     C_1   0.504233 0.032987 0.264657 0.247098
C14   C     C_1   0.346578 0.352647 0.049378 0.406559
C15   C     C_3   0.931516 0.619271 0.481778 0.002429
C16   C     C_3   0.902993 0.376149 0.372046 0.014132
C17   C     C_2   0.482678 0.114196 0.409032 0.015944
C18   C     C_2   0.464604 0.063238 0.511572 0.155713
C19   C     C_2   0.508908 0.882592 0.590293 -0.031089
C20   C     C_2   0.471380 0.925253 0.481601 -0.069111
C21   C     C_2   0.508317 0.511992 0.079113 0.254306
Cu1   Cu    Cu3+1 0.522160 0.521810 0.644910 1.126876
Cu2   Cu    Cu3+1 0.477840 0.478190 0.355090 1.134739
H1    H     H_    0.845807 0.380838 0.270927 0.184270
H2    H     H_    0.903585 0.605407 0.363816 0.220243
H3    H     H_    0.445244 0.857652 0.368619 0.178540
H4    H     H_    0.537852 0.948398 0.703541 0.179373
H5    H     H_    0.402429 0.432977 0.846380 0.175796
H6    H     H_    0.635959 0.610499 0.926608 0.287644
H7    H     H_    0.105155 0.700902 0.634620 0.191078
N1    N     N_2   0.444530 0.445420 0.137360 -0.273001
N2    N     N_2   0.555520 0.554510 0.862630 -0.329248
N3    N     N_1   0.230046 0.630654 0.896004 -0.199504
N4    N     N_1   0.521407 0.968355 0.149614 -0.177708
N5    N     N_1   0.264870 0.275267 0.977212 -0.121455
O1    O     O_R   0.511820 0.332340 0.577400 -0.454724
O2    O     O_R   0.474400 0.295500 0.332650 -0.499641
O3    O     O_R   0.336400 0.518400 0.622370 -0.519313
O4    O     O_R   0.298980 0.481560 0.377620 -0.442805
O5    O     O_R   0.525600 0.704500 0.667350 -0.477150
O6    O     O_R   0.488180 0.667660 0.422600 -0.469243
O7    O     O_R   0.701020 0.518440 0.622380 -0.436400
O8    O     O_R   0.663600 0.481600 0.377630 -0.485143

loop_
_geom_bond_atom_site_label_1
_geom_bond_atom_site_label_2
_ccdc_geom_bond_type
C3    O3    A    
C2    N2    D    
C6    C11   S    
Br8   C15   S    
C7    C12   S    
C13   C17   S    
Cu2   O6    S    
C1    O2    A    
C9    C10   S    
C20   H3    S    
Br10  C9    S    
C6    C10   S    
Cu2   N1    S    
Cu1   Cu2   S    
C18   C20   S    
Br2   C16   S    
C4    O5    A    
C5    O7    A    
C2    H5    S    
C14   N1    S    
Cu1   O3    S    
Cu1   O5    S    
Br1   C8    S    
C19   C20   D    
C8    C15   S    
C15   H2    S    
C3    O4    A    
C14   N5    T    
C5    O8    A    
Br3   C18   S    
C16   H1    S    
C1    C17   S    
H6    N2    S    
C8    C10   S    
C2    C21   S    
Cu2   O8    S    
Cu2   O2    S    
Br4   C21   S    
C4    C19   S    
Cu2   O4    S    
C12   C16   S    
C19   H4    S    
C17   C18   D    
C9    C16   S    
Br6   C7    S    
Cu1   N2    S    
Cu1   O7    S    
Br5   C6    S    
C8    H7    S    
C21   N1    D    
C3    C10   S    
Br7   C7    S    
C11   N3    T    
Cu1   O1    S    
Br9   C9    S    
C5    C12   S    
C13   N4    T    
C4    O6    A    
C6    C7    S    
C1    O1    A    
C12   C15   S    
