data_mof_unit_7870.cif
_audit_creation_date              2013-03-05T15:53:03-0500
_audit_creation_method            fapswitch 2.2
_symmetry_space_group_name_H-M    P1
_symmetry_Int_Tables_number       1
_space_group_crystal_system       triclinic
_cell_length_a                    19.858158
_cell_length_b                    17.118868
_cell_length_c                    15.32955
_cell_angle_alpha                 90.000043
_cell_angle_beta                  52.621296
_cell_angle_gamma                 90.000032
_cell_volume                      4141.08369184

loop_
_atom_site_label
_atom_site_type_symbol
_atom_site_description
_atom_site_fract_x
_atom_site_fract_y
_atom_site_fract_z
_atom_type_partial_charge
C1    C     C_R   0.838602 0.670431 0.051735 -0.140521
C2    C     C_R   0.161386 0.670454 0.948318 -0.140286
C3    C     C_R   0.338613 0.170453 0.051682 -0.140275
C4    C     C_R   0.661399 0.170428 0.948259 -0.140549
H1    H     H_    0.826201 0.717374 0.106569 0.110140
H2    H     H_    0.173778 0.717388 0.893482 0.110038
H3    H     H_    0.326220 0.217385 0.106521 0.110039
H4    H     H_    0.673801 0.217372 0.893426 0.110153
N1    N     N_R   0.908660 0.628630 0.995840 -0.041140
N2    N     N_R   0.091340 0.628630 0.004160 -0.041115
N3    N     N_R   0.408660 0.128630 0.995840 -0.041116
N4    N     N_R   0.591340 0.128630 0.004160 -0.041143
C5    C     C_R   0.859463 0.319855 0.224214 0.252342
C6    C     C_R   0.140541 0.319858 0.775787 0.252341
C7    C     C_R   0.359450 0.819865 0.224215 0.252362
C8    C     C_R   0.640539 0.819858 0.775786 0.252349
N5    N     N_R   0.922310 0.368460 0.151950 -0.071538
N6    N     N_R   0.077690 0.368460 0.848050 -0.071531
N7    N     N_R   0.422310 0.868460 0.151950 -0.071531
N8    N     N_R   0.577690 0.868460 0.848050 -0.071538
C9    C     C_R   0.861295 0.390957 0.901980 -0.124094
C10   C     C_R   0.138578 0.390914 0.098180 -0.124631
C11   C     C_R   0.361420 0.890914 0.901823 -0.124638
C12   C     C_R   0.638696 0.890954 0.098030 -0.124075
H5    H     H_    0.854985 0.417841 0.843431 0.111115
H6    H     H_    0.144831 0.417799 0.156780 0.111237
H7    H     H_    0.355166 0.917798 0.843223 0.111239
H8    H     H_    0.645003 0.917839 0.156581 0.111097
N9    N     N_R   0.903470 0.421430 0.936420 -0.059116
N10   N     N_R   0.096530 0.421430 0.063580 -0.059089
N11   N     N_R   0.403470 0.921430 0.936420 -0.059089
N12   N     N_R   0.596530 0.921430 0.063580 -0.059108
C13   C     C_R   0.908247 0.609480 0.302842 -0.131420
C14   C     C_R   0.091757 0.609481 0.697156 -0.131449
C15   C     C_R   0.408250 0.109482 0.302839 -0.131477
C16   C     C_R   0.591749 0.109481 0.697160 -0.131420
H9    H     H_    0.920071 0.582718 0.356057 0.095853
H10   H     H_    0.079937 0.582721 0.643936 0.095849
H11   H     H_    0.420079 0.082720 0.356050 0.095852
H12   H     H_    0.579924 0.082719 0.643947 0.095850
N13   N     N_R   0.927500 0.575670 0.211370 -0.043462
N14   N     N_R   0.072500 0.575670 0.788630 -0.043482
N15   N     N_R   0.427500 0.075670 0.211370 -0.043479
N16   N     N_R   0.572500 0.075670 0.788630 -0.043460
C17   C     C_R   0.868287 0.301767 0.001791 -0.046210
C18   C     C_R   0.131603 0.301729 0.998365 -0.046331
C19   C     C_R   0.368396 0.801729 0.001637 -0.046344
C20   C     C_R   0.631705 0.801765 0.998220 -0.046220
H13   H     H_    0.865306 0.247740 0.039618 0.174603
H14   H     H_    0.134566 0.247714 0.960536 0.175171
H15   H     H_    0.365435 0.747714 0.039463 0.175162
H16   H     H_    0.634684 0.747738 0.960394 0.174645
N17   N     N_R   0.908660 0.365680 0.995820 -0.064000
N18   N     N_R   0.091340 0.365680 0.004180 -0.064089
N19   N     N_R   0.408660 0.865680 0.995820 -0.064089
N20   N     N_R   0.591340 0.865680 0.004180 -0.064007
C21   C     C_R   0.899021 0.698529 0.206037 -0.131537
C22   C     C_R   0.100985 0.698528 0.793962 -0.131602
C23   C     C_R   0.399018 0.198529 0.206038 -0.131588
C24   C     C_R   0.600976 0.198529 0.793964 -0.131526
N21   N     N_R   0.922310 0.631420 0.151980 -0.040895
N22   N     N_R   0.077690 0.631420 0.848020 -0.040915
N23   N     N_R   0.422310 0.131420 0.151980 -0.040916
N24   N     N_R   0.577690 0.131420 0.848020 -0.040893
C25   C     C_R   0.859238 0.423446 0.314807 -0.156941
C26   C     C_R   0.140765 0.423449 0.685195 -0.156881
C27   C     C_R   0.359229 0.923458 0.314801 -0.156916
C28   C     C_R   0.640764 0.923448 0.685195 -0.156944
H17   H     H_    0.844187 0.465846 0.376190 0.120292
H18   H     H_    0.155817 0.465848 0.623811 0.120294
H19   H     H_    0.344176 0.965861 0.376182 0.120307
H20   H     H_    0.655816 0.965850 0.623812 0.120292
N25   N     N_R   0.927500 0.426330 0.211360 -0.058607
N26   N     N_R   0.072500 0.426330 0.788640 -0.058607
N27   N     N_R   0.427500 0.926330 0.211360 -0.058607
N28   N     N_R   0.572500 0.926330 0.788640 -0.058605
C29   C     C_R   0.829310 0.580498 0.952955 -0.084514
C30   C     C_R   0.170682 0.580484 0.047059 -0.084612
C31   C     C_R   0.329319 0.080485 0.952938 -0.084625
C32   C     C_R   0.670692 0.080497 0.047042 -0.084497
H21   H     H_    0.809042 0.547234 0.912865 0.144454
H22   H     H_    0.190936 0.547173 0.087127 0.144904
H23   H     H_    0.309068 0.047174 0.912866 0.144914
H24   H     H_    0.690962 0.047236 0.087131 0.144417
N29   N     N_R   0.903470 0.570760 0.936440 -0.054305
N30   N     N_R   0.096530 0.570760 0.063560 -0.054298
N31   N     N_R   0.403470 0.070760 0.936440 -0.054297
N32   N     N_R   0.596530 0.070760 0.063560 -0.054305
C33   C     C_R   0.787279 0.642972 0.026108 0.018021
C34   C     C_R   0.212714 0.642982 0.973948 0.017296
C35   C     C_R   0.287286 0.142982 0.026051 0.017283
C36   C     C_R   0.712722 0.142971 0.973885 0.018084
C37   C     C_R   0.812634 0.358916 0.325712 -0.033569
C38   C     C_R   0.187371 0.358920 0.674290 -0.033642
C39   C     C_R   0.312618 0.858933 0.325708 -0.033670
C40   C     C_R   0.687369 0.858919 0.674289 -0.033575
C41   C     C_R   0.839632 0.315507 0.941416 0.173621
C42   C     C_R   0.160170 0.315435 0.058856 0.173128
C43   C     C_R   0.339828 0.815435 0.941148 0.173148
C44   C     C_R   0.660354 0.815503 0.058602 0.173578
C45   C     C_R   0.889749 0.687035 0.301492 0.092623
C46   C     C_R   0.110260 0.687035 0.698506 0.092618
C47   C     C_R   0.389751 0.187036 0.301491 0.092630
C48   C     C_R   0.610245 0.187037 0.698511 0.092624
Ni1   Ni    Ni4+2 0.000000 0.630300 0.000000 0.214555
Ni2   Ni    Ni4+2 0.500000 0.130300 0.000000 0.214554
Ni3   Ni    Ni4+2 0.000000 0.369700 0.000000 0.334896
Ni4   Ni    Ni4+2 0.500000 0.869700 0.000000 0.334892
Ni5   Ni    Ni4+2 0.988090 0.497570 0.863760 0.213259
Ni6   Ni    Ni4+2 0.011910 0.497570 0.136240 0.213226
Ni7   Ni    Ni4+2 0.488090 0.997570 0.863760 0.213227
Ni8   Ni    Ni4+2 0.511910 0.997570 0.136240 0.213251
C49   C     C_R   0.874716 0.739751 0.465786 0.167060
C50   C     C_R   0.125278 0.739767 0.534228 0.167036
C51   C     C_R   0.374719 0.239749 0.465786 0.167035
C52   C     C_R   0.625280 0.239751 0.534215 0.167071
C53   C     C_R   0.870619 0.748813 0.378494 0.023883
C54   C     C_R   0.129394 0.748815 0.621505 0.023898
C55   C     C_R   0.370626 0.248814 0.378492 0.023882
C56   C     C_R   0.629373 0.248815 0.621510 0.023870
C57   C     C_R   0.333103 0.317787 0.376527 -0.170693
C58   C     C_R   0.666900 0.317785 0.623475 -0.170809
C59   C     C_R   0.833092 0.817784 0.376529 -0.170821
C60   C     C_R   0.166935 0.817777 0.623463 -0.170678
H25   H     H_    0.332470 0.332680 0.308560 0.137140
H26   H     H_    0.667535 0.332676 0.691442 0.137125
H27   H     H_    0.832454 0.832673 0.308564 0.137120
H28   H     H_    0.167593 0.832654 0.691416 0.137130
C61   C     C_R   0.280192 0.360652 0.472155 -0.150166
C62   C     C_R   0.719815 0.360648 0.527847 -0.150279
C63   C     C_R   0.780183 0.860649 0.472155 -0.150285
C64   C     C_R   0.219834 0.860648 0.527840 -0.150170
H29   H     H_    0.242210 0.405112 0.470979 0.132521
H30   H     H_    0.757801 0.405103 0.529022 0.132507
H31   H     H_    0.742197 0.905105 0.470981 0.132503
H32   H     H_    0.257833 0.905095 0.529005 0.132512
C65   C     C_R   0.266267 0.336008 0.569678 0.081377
C66   C     C_R   0.733738 0.336006 0.430323 0.081390
C67   C     C_R   0.766265 0.836010 0.569676 0.081407
C68   C     C_R   0.233729 0.836023 0.430328 0.081410
C69   C     C_R   0.826886 0.785462 0.558175 0.163378
C70   C     C_R   0.173099 0.785483 0.441843 0.163196
C71   C     C_R   0.326881 0.285453 0.558181 0.163172
C72   C     C_R   0.673119 0.285457 0.441821 0.163387
C73   C     C_3   0.833954 0.727208 0.625391 -0.468389
C74   C     C_3   0.166010 0.727240 0.374633 -0.468071
C75   C     C_3   0.333936 0.227190 0.625401 -0.468092
C76   C     C_3   0.666058 0.227199 0.374601 -0.468428
C77   C     C_3   0.881198 0.674485 0.524452 -0.504477
C78   C     C_3   0.118773 0.674512 0.475567 -0.504419
C79   C     C_3   0.381193 0.174477 0.524453 -0.504446
C80   C     C_3   0.618801 0.174483 0.475547 -0.504481
H33   H     H_    0.875701 0.749091 0.645653 0.183222
H34   H     H_    0.124255 0.749135 0.354391 0.183187
H35   H     H_    0.375670 0.249067 0.645687 0.183191
H36   H     H_    0.624322 0.249082 0.354321 0.183224
H37   H     H_    0.774752 0.700993 0.696202 0.237128
H38   H     H_    0.225206 0.701025 0.303810 0.237254
H39   H     H_    0.274730 0.200967 0.696194 0.237284
H40   H     H_    0.725263 0.200976 0.303802 0.237120
H41   H     H_    0.947643 0.662245 0.490891 0.182230
H42   H     H_    0.052321 0.662284 0.509147 0.182201
H43   H     H_    0.447636 0.162238 0.490908 0.182206
H44   H     H_    0.552356 0.162249 0.509096 0.182231
H45   H     H_    0.842821 0.622762 0.535643 0.218192
H46   H     H_    0.157146 0.622781 0.464359 0.218226
H47   H     H_    0.342822 0.122753 0.535627 0.218212
H48   H     H_    0.657171 0.122756 0.464368 0.218173
C81   C     C_2   0.788898 0.184233 0.942613 0.300369
C82   C     C_2   0.211051 0.184178 0.057379 0.300451
C83   C     C_2   0.288948 0.684177 0.942620 0.300480
C84   C     C_2   0.711100 0.684231 0.057383 0.300381
C85   C     C_2   0.290982 0.762178 0.927273 -0.357619
C86   C     C_2   0.709315 0.762274 0.072282 -0.358521
C87   C     C_2   0.790663 0.262280 0.927751 -0.358593
C88   C     C_2   0.209014 0.262178 0.072734 -0.357577
N33   N     N_R   0.858676 0.142689 0.927089 0.246235
O1    O     O_R   0.846411 0.076286 0.975960 -0.389891
O2    O     O_R   0.936127 0.165026 0.850995 -0.303051
N34   N     N_R   0.141509 0.142638 0.072285 0.245909
O3    O     O_R   0.154228 0.076986 0.021567 -0.390160
O4    O     O_R   0.063921 0.164377 0.148872 -0.302966
N35   N     N_R   0.358494 0.642637 0.927698 0.245934
O5    O     O_R   0.345789 0.576974 0.978354 -0.390166
O6    O     O_R   0.436077 0.664388 0.851130 -0.302967
N36   N     N_R   0.641339 0.642687 0.072861 0.246209
O7    O     O_R   0.653640 0.576344 0.023839 -0.389912
O8    O     O_R   0.563878 0.664976 0.148998 -0.303076
H49   H     H_    0.243577 0.791815 0.925659 0.139233
H50   H     H_    0.756951 0.791905 0.073425 0.139487
H51   H     H_    0.743009 0.291910 0.926645 0.139503
H52   H     H_    0.256415 0.291816 0.074358 0.139228
N37   N     N_R   0.873514 0.236942 0.214208 0.223883
O9    O     O_R   0.848293 0.196170 0.300883 -0.371369
O10   O     O_R   0.932520 0.207431 0.118663 -0.316609
N38   N     N_R   0.126493 0.236944 0.785782 0.224056
O11   O     O_R   0.151698 0.196183 0.699106 -0.371151
O12   O     O_R   0.067497 0.207425 0.881325 -0.316232
N39   N     N_R   0.373479 0.736948 0.214221 0.224050
O13   O     O_R   0.348221 0.696175 0.300906 -0.371227
O14   O     O_R   0.432500 0.707429 0.118690 -0.316220
N40   N     N_R   0.626494 0.736943 0.785792 0.223894
O15   O     O_R   0.651731 0.696169 0.699116 -0.371383
O16   O     O_R   0.567477 0.707433 0.881331 -0.316574
H53   H     H_    0.904329 0.753891 0.168498 0.097859
H54   H     H_    0.095679 0.753889 0.831501 0.097899
H55   H     H_    0.404323 0.253890 0.168501 0.097889
H56   H     H_    0.595667 0.253891 0.831504 0.097857

loop_
_geom_bond_atom_site_label_1
_geom_bond_atom_site_label_2
_geom_bond_distance
_ccdc_geom_bond_type
C22   N22   1.324780 A    
C11   C43   1.379485 A    
C58   H26   1.080115 S    
C41   C87   1.437744 S    
C70   C74   1.500506 S    
C75   C79   1.525278 S    
C14   N14   1.340341 A    
C3    N3    1.317010 A    
N13   N21   1.365376 A    
C32   H24   1.079023 S    
C83   N35   1.442835 S    
C75   H39   1.101088 S    
N26   Ni5   1.810928 S    
C31   N31   1.344541 A    
N15   N23   1.365376 A    
N25   Ni6   1.810929 S    
N22   Ni1   1.855888 S    
C2    H2    1.077764 S    
C30   C34   1.400581 A    
C71   C75   1.500506 S    
N10   N18   1.365486 A    
N8    N28   1.391202 A    
N27   Ni8   1.810929 S    
C14   C46   1.381042 A    
N40   O16   1.299867 A    
N18   Ni3   1.854719 S    
N10   Ni6   1.868359 S    
C10   C42   1.379483 A    
C50   C70   1.373696 A    
N9    Ni5   1.868360 S    
N30   Ni6   1.833501 S    
N14   Ni5   1.892017 S    
C68   C70   1.404036 A    
C7    N7    1.341068 A    
C15   C47   1.381034 A    
N12   Ni8   1.868359 S    
N5    Ni3   1.855564 S    
C7    C39   1.405718 A    
C25   H17   1.077095 S    
C64   H32   1.079351 S    
C88   H52   1.082844 S    
N31   Ni7   1.833502 S    
C22   H54   1.080189 S    
C48   C56   1.453164 S    
N1    Ni1   1.853473 S    
C26   N26   1.320877 A    
C21   H53   1.080187 S    
C19   C43   1.369468 A    
C60   C64   1.386080 A    
C3    C35   1.378657 A    
C76   H40   1.101096 S    
C85   H49   1.082825 S    
C2    C34   1.378651 A    
C6    N6    1.341061 A    
N6    Ni3   1.855565 S    
N20   Ni4   1.854719 S    
C9    H5    1.081489 S    
C37   C66   1.459311 S    
N1    N29   1.391092 A    
C52   C72   1.373702 A    
C84   C86   1.352226 D    
N37   O10   1.299884 A    
C74   H34   1.112080 S    
C34   C83   1.461873 S    
C22   C46   1.373556 A    
C11   H7    1.081495 S    
C4    N4    1.316955 A    
C75   H35   1.112084 S    
N14   N22   1.365375 A    
C31   C35   1.400583 A    
C46   C54   1.453153 S    
C4    H4    1.077811 S    
C26   C38   1.384530 A    
C73   H33   1.112075 S    
N7    Ni4   1.855564 S    
C30   N30   1.344542 A    
C25   C37   1.384527 A    
C18   C42   1.369472 A    
C29   N29   1.344621 A    
N39   O13   1.302049 A    
N6    N26   1.391202 A    
C14   H10   1.078445 S    
C27   C39   1.384518 A    
C62   H30   1.079354 S    
C40   C67   1.459314 S    
C8    N40   1.436690 S    
C81   N33   1.442953 S    
C80   H48   1.111539 S    
C61   C65   1.409792 A    
C56   C58   1.406261 A    
N29   Ni5   1.833502 S    
C55   C57   1.406252 A    
C20   C44   1.369362 A    
C51   C71   1.373705 A    
N21   Ni1   1.855888 S    
C8    C40   1.405710 A    
C78   H46   1.111531 S    
N40   O15   1.302048 A    
N4    N32   1.391094 A    
C49   C77   1.488037 S    
C16   H12   1.078442 S    
C77   H45   1.111531 S    
N38   O12   1.299873 A    
C25   N25   1.320873 A    
C84   N36   1.442944 S    
N5    N25   1.391201 A    
C24   H56   1.080187 S    
C19   H15   1.073932 S    
N33   O2    1.301580 A    
C9    N9    1.337586 A    
N16   N24   1.365375 A    
N4    Ni2   1.853471 S    
C52   C56   1.397675 A    
C78   H42   1.106979 S    
C5    C37   1.405706 A    
C28   H20   1.077096 S    
C11   N11   1.337596 A    
C32   C36   1.400566 A    
C51   C79   1.488042 S    
C15   H11   1.078441 S    
N35   O5    1.300898 A    
C12   N12   1.337583 A    
C57   H25   1.080103 S    
C83   C85   1.352191 D    
C30   H22   1.078971 S    
C63   H31   1.079351 S    
C59   H27   1.080108 S    
C43   C85   1.437982 S    
C29   H21   1.079014 S    
C36   C81   1.461702 S    
C8    N8    1.341053 A    
C29   C33   1.400565 A    
C18   N18   1.326356 A    
N3    Ni2   1.853473 S    
C17   H13   1.074009 S    
C81   C87   1.352232 D    
C1    N1    1.316959 A    
C28   C40   1.384526 A    
C28   N28   1.320872 A    
N23   Ni2   1.855888 S    
N24   Ni2   1.855888 S    
N17   Ni3   1.854723 S    
C50   C54   1.397665 A    
C86   H50   1.082864 S    
C49   C53   1.397666 A    
C1    H1    1.077806 S    
C6    C38   1.405708 A    
N33   O1    1.300478 A    
C79   H43   1.106984 S    
N13   Ni6   1.892019 S    
C44   C86   1.437759 S    
C61   H29   1.079346 S    
C16   N16   1.340334 A    
C77   H41   1.106979 S    
N15   Ni8   1.892019 S    
C50   C78   1.488033 S    
N36   O8    1.301596 A    
C62   C66   1.409803 A    
C54   C60   1.406258 A    
C52   C80   1.488050 S    
C15   N15   1.340331 A    
N34   O3    1.301153 A    
C12   H8    1.081491 S    
C19   N19   1.326352 A    
N7    N27   1.391201 A    
C23   H55   1.080185 S    
C20   N20   1.326324 A    
C74   C78   1.525294 S    
C6    N38   1.436692 S    
N2    N30   1.391094 A    
C1    C33   1.378463 A    
N34   O4    1.301718 A    
C35   C82   1.461882 S    
C59   C63   1.386087 A    
C42   C88   1.437987 S    
C12   C44   1.379501 A    
C23   N23   1.324797 A    
C47   C55   1.453169 S    
C76   C80   1.525283 S    
C33   C84   1.461713 S    
C57   C61   1.386095 A    
N38   O11   1.302077 A    
C80   H44   1.106989 S    
N3    N31   1.391092 A    
C21   N21   1.324791 A    
C74   H38   1.101092 S    
C69   C73   1.500506 S    
C64   C68   1.409801 A    
C21   C45   1.373562 A    
C73   H37   1.101081 S    
C18   H14   1.073932 S    
C3    H3    1.077763 S    
C60   H28   1.080110 S    
N19   Ni4   1.854723 S    
C24   N24   1.324794 A    
C13   N13   1.340333 A    
C45   C53   1.453160 S    
C13   C45   1.381035 A    
N35   O6    1.301668 A    
C53   C59   1.406260 A    
C23   C47   1.373572 A    
C32   N32   1.344626 A    
C10   N10   1.337597 A    
C31   H23   1.078967 S    
C67   C69   1.404045 A    
C16   C48   1.381033 A    
C26   H18   1.077095 S    
N9    N17   1.365487 A    
C66   C72   1.404047 A    
N28   Ni7   1.810928 S    
C79   H47   1.111531 S    
C51   C55   1.397669 A    
N12   N20   1.365486 A    
C7    N39   1.436697 S    
C27   H19   1.077096 S    
C49   C69   1.373696 A    
C65   C71   1.404044 A    
C87   H51   1.082864 S    
C13   H9    1.078443 S    
C63   C67   1.409801 A    
C9    C41   1.379501 A    
C17   N17   1.326324 A    
C5    N5    1.341054 A    
N32   Ni8   1.833501 S    
N16   Ni7   1.892017 S    
C39   C68   1.459308 S    
C20   H16   1.074008 S    
C82   C88   1.352203 D    
C27   N27   1.320869 A    
N37   O9    1.302081 A    
C10   H6    1.081497 S    
C82   N34   1.442853 S    
N39   O14   1.299868 A    
C38   C65   1.459320 S    
N11   Ni7   1.868360 S    
N2    Ni1   1.853471 S    
C5    N37   1.436692 S    
C76   H36   1.112092 S    
N11   N19   1.365487 A    
N36   O7    1.300537 A    
C24   C48   1.373563 A    
C58   C62   1.386089 A    
C73   C77   1.525281 S    
C17   C41   1.369354 A    
N8    Ni4   1.855565 S    
C4    C36   1.378447 A    
C72   C76   1.500512 S    
C2    N2    1.317008 A    
