data_mof_unit_26783.cif
_audit_creation_date              2012-12-10T21:07:01-0500
_audit_creation_method            fapswitch 2.2
_symmetry_space_group_name_H-M    P1
_symmetry_Int_Tables_number       1
_space_group_crystal_system       triclinic
_cell_length_a                    10.809678
_cell_length_b                    15.846469
_cell_length_c                    15.040988
_cell_angle_alpha                 89.454396
_cell_angle_beta                  91.310123
_cell_angle_gamma                 89.806718
_cell_volume                      2575.64253435

loop_
_atom_site_label
_atom_site_type_symbol
_atom_type_description
_atom_site_fract_x
_atom_site_fract_y
_atom_site_fract_z
_atom_type_partial_charge
C1    C     C_R   0.500439 0.338875 0.500414 0.908930
C2    C     C_R   0.500042 0.086769 0.499458 0.086702
C3    C     C_R   0.453170 0.956265 0.426877 -0.219788
C4    C     C_R   0.548620 0.043571 0.573768 -0.220002
C5    C     C_1   0.500355 0.824096 0.499235 -0.083696
C6    C     C_1   0.500984 0.175805 0.501241 -0.083122
C7    C     C_1   0.500976 0.250590 0.501355 -0.196595
C8    C     C_1   0.499783 0.749343 0.498835 -0.196007
C9    C     C_R   0.523900 0.425524 0.954164 -0.182804
C10   C     C_R   0.475690 0.574406 0.045692 -0.185112
C11   C     C_R   0.497854 0.499688 0.904985 0.086050
C12   C     C_R   0.499657 0.661103 0.499611 0.911290
C13   C     C_R   0.501311 0.500186 0.094907 0.082383
C14   C     C_R   0.472740 0.573986 0.951852 -0.205392
C15   C     C_R   0.525532 0.425754 0.048008 -0.201430
C16   C     C_R   0.259294 0.501333 0.498812 0.874256
C17   C     C_R   0.740702 0.498392 0.501244 0.872286
C18   C     C_1   0.498954 0.499864 0.807204 0.040613
C19   C     C_1   0.500757 0.500100 0.192766 0.039338
C20   C     C_R   0.193204 0.626336 0.222123 -0.183318
C21   C     C_R   0.797673 0.394041 0.787834 -0.191577
C22   C     C_R   0.149865 0.609101 0.307086 -0.115232
C23   C     C_R   0.872923 0.496761 0.503081 -0.089561
C24   C     C_R   0.835518 0.404197 0.700145 -0.097402
C25   C     C_R   0.110119 0.527596 0.329180 0.125891
C26   C     C_R   0.890821 0.479884 0.673100 0.123930
C27   C     C_R   0.114468 0.463385 0.265660 -0.179982
C28   C     C_R   0.908312 0.544959 0.734801 -0.193265
C29   C     C_R   0.158863 0.480236 0.180228 0.165482
C30   C     C_R   0.871428 0.534872 0.823142 0.171972
C31   C     C_R   0.197166 0.562465 0.158869 -0.147696
C32   C     C_R   0.816473 0.458659 0.849305 -0.153797
C33   C     C_R   0.930678 0.506782 0.421379 -0.248889
C34   C     C_R   0.127056 0.501525 0.497123 -0.089481
C35   C     C_R   0.069502 0.490634 0.578630 -0.251957
C36   C     C_3   0.169738 0.410236 0.113438 -0.439604
C37   C     C_3   0.088379 0.426669 0.030147 -0.344646
C38   C     C_3   0.098488 0.354285 0.964487 -0.870089
C39   C     C_3   0.894782 0.604060 0.889662 -0.461985
C40   C     C_3   0.773316 0.639931 0.923994 -0.322106
C41   C     C_3   0.796161 0.716047 0.983403 -0.889896
C42   C     C_3   0.602047 0.904740 0.655321 -0.400665
C43   C     C_3   0.652951 0.956327 0.733946 -0.368188
C44   C     C_3   0.701751 0.898495 0.808751 -0.884988
C45   C     C_R   0.942825 0.488677 0.583140 -0.000640
C46   C     C_3   0.399468 0.094878 0.345258 -0.400786
C47   C     C_3   0.348421 0.042981 0.266891 -0.368129
C48   C     C_3   0.299318 0.100442 0.191926 -0.884285
C49   C     C_R   0.057207 0.510611 0.417359 -0.002491
C50   C     C_R   0.550286 0.955436 0.575954 0.104529
C51   C     C_R   0.451437 0.044366 0.424675 0.104812
C52   C     C_R   0.501690 0.913090 0.501143 0.086586
H1    H     H_    0.230618 0.577109 0.093350 0.135210
H2    H     H_    0.952856 0.602851 0.714097 0.124439
H3    H     H_    0.877306 0.514308 0.359808 0.174359
H4    H     H_    0.123197 0.483293 0.640089 0.174585
H5    H     H_    0.584637 0.079739 0.629197 0.141511
H6    H     H_    0.417142 0.920046 0.371491 0.141477
H7    H     H_    0.545418 0.367583 0.084007 0.132371
H8    H     H_    0.452707 0.632140 0.915859 0.133153
H9    H     H_    0.196054 0.346049 0.944434 0.265340
H10   H     H_    0.065182 0.294634 0.994886 0.256595
H11   H     H_    0.041055 0.368482 0.904066 0.257878
H12   H     H_    0.789461 0.448934 0.917489 0.139978
H13   H     H_    0.990152 0.433959 0.049200 0.220420
H14   H     H_    0.118181 0.485569 0.996393 0.217281
H15   H     H_    0.267967 0.404625 0.094246 0.216034
H16   H     H_    0.142981 0.348861 0.143795 0.196438
H17   H     H_    0.856361 0.698032 0.041414 0.265177
H18   H     H_    0.840890 0.767565 0.945368 0.262361
H19   H     H_    0.706509 0.739631 0.008084 0.249533
H20   H     H_    0.711805 0.659256 0.867044 0.227685
H21   H     H_    0.726168 0.590627 0.963488 0.237915
H22   H     H_    0.951206 0.578428 0.946384 0.193567
H23   H     H_    0.543608 0.367345 0.919940 0.129156
H24   H     H_    0.948618 0.655982 0.858934 0.202139
H25   H     H_    0.626436 0.857692 0.833688 0.262994
H26   H     H_    0.777960 0.858030 0.784763 0.262002
H27   H     H_    0.737959 0.937210 0.864652 0.248380
H28   H     H_    0.730077 0.997015 0.711610 0.222836
H29   H     H_    0.578333 0.996681 0.760560 0.222538
H30   H     H_    0.527254 0.863236 0.680054 0.208044
H31   H     H_    0.677709 0.863570 0.631491 0.207229
H32   H     H_    0.223090 0.140920 0.215860 0.259190
H33   H     H_    0.374542 0.141163 0.166723 0.260018
H34   H     H_    0.457015 0.632767 0.079890 0.131497
H35   H     H_    0.263051 0.061427 0.136277 0.248579
H36   H     H_    0.423029 0.002597 0.240306 0.222494
H37   H     H_    0.271416 0.002316 0.289488 0.222581
H38   H     H_    0.323815 0.136069 0.369061 0.206556
H39   H     H_    0.474168 0.136338 0.320309 0.208360
H40   H     H_    0.223474 0.689373 0.205129 0.133007
H41   H     H_    0.755434 0.335474 0.808605 0.134296
H42   H     H_    0.146126 0.659250 0.355397 0.118570
H43   H     H_    0.823300 0.352936 0.653674 0.118409
H44   H     H_    0.083624 0.400492 0.283081 0.120928
N1    N     N_1   0.499960 0.500020 0.270550 -0.085317
N2    N     N_1   0.500040 0.499980 0.729450 -0.086310
O1    O     O_R   0.500000 0.378020 0.573650 -0.612798
O2    O     O_R   0.500000 0.621980 0.426350 -0.610113
O3    O     O_R   0.500060 0.378020 0.426320 -0.613520
O4    O     O_R   0.499940 0.621980 0.573680 -0.613699
O5    O     O_R   0.316730 0.500010 0.573660 -0.626043
O6    O     O_R   0.683270 0.499990 0.426340 -0.625185
O7    O     O_R   0.316790 0.500010 0.426330 -0.608055
O8    O     O_R   0.683210 0.499990 0.573670 -0.609884
Zn1   Zn    Zn3+2 0.499960 0.500000 0.598370 0.972349
Zn2   Zn    Zn3+2 0.500040 0.500000 0.401630 0.975017

loop_
_geom_bond_atom_site_label_1
_geom_bond_atom_site_label_2
_ccdc_geom_bond_type
C33   H3    S    
C11   C18   S    
C23   C45   A    
C27   C29   A    
C22   H42   S    
C42   H30   S    
C1    O1    A    
C19   N1    T    
C36   H15   S    
C20   H40   S    
C29   C36   S    
C17   C23   S    
C44   H25   S    
C17   O6    A    
C24   C26   A    
C11   C14   A    
O8    Zn1   S    
C33   C49   A    
C40   H21   S    
C34   C35   A    
C39   H22   S    
C26   C45   S    
C16   C34   S    
N1    Zn2   S    
C10   H34   S    
C23   C33   A    
C22   C25   A    
C37   H13   S    
C4    H5    S    
C50   C52   A    
C5    C52   S    
C9    H23   S    
C41   H19   S    
C38   H9    S    
O3    Zn2   S    
C47   H37   S    
C27   H44   S    
C2    C6    S    
C21   C32   A    
O7    Zn2   S    
O2    Zn2   S    
C13   C19   S    
C32   H12   S    
C10   C14   A    
C24   H43   S    
C39   C40   S    
C3    C51   A    
C46   H39   S    
C43   H28   S    
C46   C51   S    
N2    Zn1   S    
C48   H32   S    
C4    C50   A    
C2    C4    A    
C43   C44   S    
C12   O4    A    
C37   C38   S    
C16   O5    A    
C47   C48   S    
C8    C12   S    
C37   H14   S    
C48   H35   S    
O4    Zn1   S    
C39   H24   S    
C31   H1    S    
C9    C11   A    
C16   O7    A    
C42   C50   S    
C40   C41   S    
C20   C22   A    
C13   C15   A    
C43   H29   S    
C42   C43   S    
C35   C45   A    
C1    O3    A    
O6    Zn2   S    
O1    Zn1   S    
C41   H17   S    
C38   H11   S    
C46   C47   S    
C36   C37   S    
C34   C49   A    
C28   H2    S    
C40   H20   S    
C35   H4    S    
C1    C7    S    
C15   H7    S    
C44   H27   S    
C42   H31   S    
C10   C13   A    
C5    C8    T    
C3    C52   A    
C36   H16   S    
C6    C7    T    
C46   H38   S    
C25   C27   A    
C14   H8    S    
C26   C28   A    
C47   H36   S    
C44   H26   S    
C9    C15   A    
C29   C31   A    
C17   O8    A    
C30   C32   A    
C21   H41   S    
C28   C30   A    
C30   C39   S    
C25   C49   S    
C12   O2    A    
C2    C51   A    
C3    H6    S    
C21   C24   A    
C48   H33   S    
O5    Zn1   S    
C18   N2    T    
C41   H18   S    
C38   H10   S    
C20   C31   A    
