data_mof_unit_62512.cif
_audit_creation_date              2013-03-05T15:58:39-0500
_audit_creation_method            fapswitch 2.2
_symmetry_space_group_name_H-M    P1
_symmetry_Int_Tables_number       1
_space_group_crystal_system       triclinic
_cell_length_a                    38.416581
_cell_length_b                    21.629203
_cell_length_c                    21.619968
_cell_angle_alpha                 90.000016
_cell_angle_beta                  55.983375
_cell_angle_gamma                 90.000123
_cell_volume                      14890.3005213

loop_
_atom_site_label
_atom_site_type_symbol
_atom_site_description
_atom_site_fract_x
_atom_site_fract_y
_atom_site_fract_z
_atom_type_partial_charge
O1    O     O_R   0.000010 0.448280 0.408380 -0.629547
O2    O     O_R   0.999990 0.448280 0.591620 -0.629634
O3    O     O_R   0.500010 0.948280 0.408380 -0.629604
O4    O     O_R   0.499990 0.948280 0.591620 -0.629552
O5    O     O_R   0.000010 0.551730 0.408430 -0.576702
O6    O     O_R   0.999990 0.551730 0.591570 -0.576705
O7    O     O_R   0.500010 0.051730 0.408430 -0.576726
O8    O     O_R   0.499990 0.051730 0.591570 -0.576716
C1    C     C_R   0.000284 0.500002 0.379600 0.923951
C2    C     C_R   0.999716 0.500002 0.620400 0.923863
C3    C     C_R   0.500284 0.000002 0.379600 0.923875
C4    C     C_R   0.499716 0.000002 0.620399 0.923925
O9    O     O_R   0.938390 0.448280 0.561610 -0.607863
O10   O     O_R   0.061610 0.448280 0.438390 -0.607832
O11   O     O_R   0.438390 0.948280 0.561610 -0.607835
O12   O     O_R   0.561610 0.948280 0.438390 -0.607844
O13   O     O_R   0.938400 0.551730 0.561660 -0.611416
O14   O     O_R   0.061600 0.551730 0.438340 -0.611467
O15   O     O_R   0.438400 0.051730 0.561660 -0.611459
O16   O     O_R   0.561600 0.051730 0.438340 -0.611417
C5    C     C_R   0.918748 0.500022 0.581392 0.883027
C6    C     C_R   0.081252 0.500022 0.418607 0.882995
C7    C     C_R   0.418748 0.000022 0.581393 0.882992
C8    C     C_R   0.581252 0.000022 0.418608 0.883012
Zn1   Zn    Zn3+2 0.000000 0.430930 0.500000 1.001895
Zn2   Zn    Zn3+2 0.500000 0.930930 0.500000 1.001959
Zn3   Zn    Zn3+2 0.000000 0.569080 0.500000 1.041000
Zn4   Zn    Zn3+2 0.500000 0.069080 0.500000 1.041014
C9    C     C_3   0.736398 0.457395 0.725664 0.263805
C10   C     C_3   0.263597 0.456297 0.273049 0.263752
C11   C     C_3   0.236402 0.956239 0.727019 0.263732
C12   C     C_3   0.763601 0.956839 0.273680 0.263751
C13   C     C_3   0.763982 0.512109 0.678051 -0.267229
C14   C     C_3   0.236021 0.510405 0.322245 -0.267092
C15   C     C_3   0.263979 0.010312 0.677736 -0.267147
C16   C     C_3   0.736020 0.011249 0.322104 -0.267227
H1    H     H_    0.775761 0.520913 0.618824 0.180019
H2    H     H_    0.224244 0.517822 0.381708 0.179838
H3    H     H_    0.275756 0.017652 0.618262 0.179811
H4    H     H_    0.724242 0.019347 0.381456 0.179901
H5    H     H_    0.723653 0.601788 0.741990 0.160306
H6    H     H_    0.276358 0.600732 0.260921 0.160636
H7    H     H_    0.223643 0.100673 0.738914 0.160534
H8    H     H_    0.776351 0.101270 0.259494 0.160378
C17   C     C_1   0.874270 0.500133 0.625966 -0.167546
C18   C     C_1   0.125729 0.500133 0.374030 -0.167577
C19   C     C_1   0.374271 0.000133 0.625969 -0.167578
C20   C     C_1   0.625729 0.000134 0.374032 -0.167546
C21   C     C_1   0.625717 0.501083 0.874709 -0.103931
C22   C     C_1   0.374283 0.501085 0.125292 -0.104174
C23   C     C_1   0.125717 0.001088 0.874707 -0.104352
C24   C     C_1   0.874283 0.001091 0.125291 -0.104227
C25   C     C_3   0.763812 0.446080 0.755127 0.513527
C26   C     C_3   0.236180 0.446647 0.243285 0.513731
C27   C     C_3   0.263820 0.946680 0.756799 0.513727
C28   C     C_3   0.736185 0.946370 0.244059 0.513624
C29   C     C_3   0.791311 0.500766 0.708616 0.080426
C30   C     C_3   0.208688 0.500757 0.291379 0.080405
C31   C     C_3   0.291312 0.000756 0.708617 0.080416
C32   C     C_3   0.708689 0.000766 0.291380 0.080428
C33   C     C_3   0.736196 0.489509 0.822153 -0.320870
C34   C     C_3   0.263800 0.491205 0.177537 -0.321455
C35   C     C_3   0.236201 0.991300 0.822474 -0.321433
C36   C     C_3   0.763802 0.990380 0.177681 -0.321148
C37   C     C_3   0.708658 0.500613 0.791633 0.026463
C38   C     C_3   0.291341 0.500609 0.208351 0.026436
C39   C     C_3   0.208659 0.000611 0.791646 0.026460
C40   C     C_3   0.791342 0.000621 0.208356 0.026468
C41   C     C_3   0.764147 0.545046 0.774588 -0.194224
C42   C     C_3   0.235855 0.546148 0.226710 -0.194297
C43   C     C_3   0.264145 0.046208 0.773213 -0.194220
C44   C     C_3   0.735853 0.045619 0.226068 -0.194177
C45   C     C_3   0.735916 0.556231 0.745075 -0.172514
C46   C     C_3   0.264090 0.555643 0.256519 -0.172198
C47   C     C_3   0.235911 0.055611 0.743389 -0.172261
C48   C     C_3   0.764086 0.055946 0.255738 -0.172402
C49   C     C_1   0.836758 0.500403 0.663433 0.022778
C50   C     C_1   0.163241 0.500401 0.336562 0.022755
C51   C     C_1   0.336759 0.000400 0.663436 0.022742
C52   C     C_1   0.663241 0.000404 0.336564 0.022764
C53   C     C_1   0.663218 0.501071 0.837252 0.033805
C54   C     C_1   0.336781 0.501071 0.162744 0.033589
C55   C     C_1   0.163219 0.001074 0.837253 0.033601
C56   C     C_1   0.836782 0.001081 0.162744 0.033700
H9    H     H_    0.776504 0.581531 0.793498 0.159016
H10   H     H_    0.223502 0.583529 0.208876 0.159282
H11   H     H_    0.276499 0.083636 0.790987 0.159295
H12   H     H_    0.723497 0.082563 0.207705 0.159154
H13   H     H_    0.724262 0.480682 0.881437 0.161652
H14   H     H_    0.275731 0.483762 0.118018 0.161556
H15   H     H_    0.224269 0.983933 0.882006 0.161553
H16   H     H_    0.775734 0.982258 0.118272 0.161589
C57   C     C_R   0.028470 0.538656 0.253307 0.554329
C58   C     C_R   0.971534 0.538664 0.746689 0.554439
C59   C     C_R   0.528477 0.038645 0.253301 0.554398
C60   C     C_R   0.471520 0.038641 0.746701 0.554333
C61   C     C_R   0.027881 0.537944 0.189867 -0.350007
C62   C     C_R   0.972124 0.537952 0.810129 -0.350110
C63   C     C_R   0.527888 0.037933 0.189861 -0.350112
C64   C     C_R   0.472109 0.037929 0.810141 -0.350012
H17   H     H_    0.048722 0.568388 0.143747 0.189006
H18   H     H_    0.951287 0.568401 0.856245 0.188985
H19   H     H_    0.548735 0.068368 0.143735 0.188970
H20   H     H_    0.451260 0.068361 0.856269 0.189018
C65   C     C_R   0.000184 0.498651 0.186352 -0.204615
C66   C     C_R   0.999815 0.498652 0.813649 -0.204655
C67   C     C_R   0.500184 0.998652 0.186353 -0.204690
C68   C     C_R   0.499816 0.998652 0.813647 -0.204695
C69   C     C_R   0.972443 0.459750 0.245980 0.540158
C70   C     C_R   0.027552 0.459744 0.754026 0.540304
C71   C     C_R   0.472435 0.959764 0.245989 0.540292
C72   C     C_R   0.527568 0.959768 0.754007 0.540221
C73   C     C_R   0.973853 0.459411 0.308786 -0.351665
C74   C     C_R   0.026142 0.459404 0.691220 -0.351841
C75   C     C_R   0.473845 0.959423 0.308795 -0.351870
C76   C     C_R   0.526158 0.959427 0.691202 -0.351764
H21   H     H_    0.953793 0.428149 0.354450 0.186061
H22   H     H_    0.046198 0.428137 0.645560 0.186003
H23   H     H_    0.453779 0.928170 0.354465 0.185984
H24   H     H_    0.546226 0.928177 0.645529 0.186026
C77   C     C_R   0.000797 0.499792 0.313011 -0.204026
C78   C     C_R   0.999203 0.499793 0.686989 -0.204058
C79   C     C_R   0.500797 0.999793 0.313012 -0.204006
C80   C     C_R   0.499203 0.999793 0.686988 -0.203995
O17   O     O_R   0.500010 0.408260 0.948350 -0.598844
O18   O     O_R   0.499990 0.408260 0.051650 -0.599055
O19   O     O_R   0.000010 0.908260 0.948350 -0.599025
O20   O     O_R   0.999990 0.908260 0.051650 -0.598904
C81   C     C_R   0.500003 0.379820 0.999997 1.019496
C82   C     C_R   0.999998 0.879820 0.000002 1.019524
O21   O     O_R   0.561620 0.499890 0.886700 -0.575312
O22   O     O_R   0.438380 0.499890 0.113300 -0.575808
O23   O     O_R   0.061620 0.999890 0.886700 -0.575958
O24   O     O_R   0.938380 0.999890 0.113300 -0.575689
O25   O     O_R   0.561610 0.499990 0.990150 -0.640349
O26   O     O_R   0.438390 0.499990 0.009850 -0.640231
O27   O     O_R   0.061610 0.999990 0.990150 -0.640043
O28   O     O_R   0.938390 0.999990 0.009850 -0.640120
C83   C     C_R   0.581255 0.500744 0.918909 0.944662
C84   C     C_R   0.418744 0.500745 0.081091 0.944644
C85   C     C_R   0.081256 0.000747 0.918908 0.944277
C86   C     C_R   0.918745 0.000747 0.081091 0.944295
Zn5   Zn    Zn3+2 0.500010 0.499860 0.930960 1.056088
Zn6   Zn    Zn3+2 0.499990 0.499860 0.069040 1.055541
Zn7   Zn    Zn3+2 0.000010 0.999860 0.930960 1.055668
Zn8   Zn    Zn3+2 0.999990 0.999860 0.069040 1.055984
O29   O     O_R   0.500010 0.591500 0.948260 -0.608081
O30   O     O_R   0.499990 0.591500 0.051740 -0.608107
O31   O     O_R   0.000010 0.091500 0.948260 -0.607612
O32   O     O_R   0.999990 0.091500 0.051740 -0.607592
C87   C     C_R   0.500000 0.619901 1.000000 0.939292
C88   C     C_R   1.000000 0.119906 0.000000 0.938492
O33   O     O_R   0.034760 0.408280 0.965230 -0.623843
O34   O     O_R   0.965240 0.408280 0.034770 -0.623839
O35   O     O_R   0.534760 0.908280 0.965230 -0.623923
O36   O     O_R   0.465240 0.908280 0.034770 -0.623914
C89   C     C_R   1.000000 0.379389 0.000000 0.966475
C90   C     C_R   0.500000 0.879383 1.000000 0.966581
O37   O     O_R   0.034780 0.499900 0.056880 -0.633709
O38   O     O_R   0.965220 0.499900 0.943120 -0.633735
O39   O     O_R   0.534780 0.999900 0.056880 -0.633774
O40   O     O_R   0.465220 0.999900 0.943120 -0.633720
O41   O     O_R   0.965220 0.499940 0.126430 -0.601010
O42   O     O_R   0.034780 0.499940 0.873570 -0.601012
O43   O     O_R   0.465220 0.999940 0.126430 -0.600960
O44   O     O_R   0.534780 0.999940 0.873570 -0.600988
C91   C     C_R   0.000062 0.499330 0.120345 0.960851
C92   C     C_R   0.999938 0.499330 0.879655 0.960843
C93   C     C_R   0.500062 0.999330 0.120346 0.960877
C94   C     C_R   0.499938 0.999330 0.879654 0.960897
Zn9   Zn    Zn3+2 0.046450 0.499890 0.953590 0.982113
Zn10  Zn    Zn3+2 0.953550 0.499890 0.046410 0.982058
Zn11  Zn    Zn3+2 0.546450 0.999890 0.953590 0.981838
Zn12  Zn    Zn3+2 0.453550 0.999890 0.046410 0.982089
O45   O     O_R   0.034810 0.591520 0.965270 -0.628555
O46   O     O_R   0.965190 0.591520 0.034730 -0.628611
O47   O     O_R   0.534810 0.091520 0.965270 -0.628677
O48   O     O_R   0.465190 0.091520 0.034730 -0.628547
C95   C     C_R   1.000000 0.620325 0.000000 0.913077
C96   C     C_R   0.500000 0.120325 0.999999 0.913095
C97   C     C_R   0.465932 0.281992 0.060826 0.269106
C98   C     C_R   0.534072 0.281991 0.939164 0.269494
C99   C     C_R   0.965920 0.781992 0.060818 0.269308
C100  C     C_R   0.034078 0.781993 0.939187 0.269112
C101  C     C_R   0.966523 0.718005 0.060282 -0.226814
C102  C     C_R   0.033476 0.718006 0.939721 -0.226656
C103  C     C_R   0.466533 0.218006 0.060292 -0.226693
C104  C     C_R   0.533469 0.218004 0.939702 -0.227010
H25   H     H_    0.940635 0.692752 0.106559 0.197582
H26   H     H_    0.059364 0.692754 0.893445 0.197637
H27   H     H_    0.440651 0.192753 0.106579 0.197615
H28   H     H_    0.559350 0.192750 0.893414 0.197487
C105  C     C_R   1.000000 0.686494 0.000001 -0.142681
C106  C     C_R   0.500001 0.186493 0.999998 -0.142621
C107  C     C_R   0.500003 0.313822 0.999996 -0.274919
C108  C     C_R   0.999998 0.813823 0.000002 -0.274949
C109  C     C_R   0.533274 0.717383 0.938489 0.476722
C110  C     C_R   0.466727 0.717383 0.061512 0.476722
C111  C     C_R   0.033097 0.217407 0.938217 0.476904
C112  C     C_R   0.966902 0.217406 0.061783 0.476899
C113  C     C_R   0.032713 0.281456 0.938295 -0.254086
C114  C     C_R   0.967286 0.281456 0.061704 -0.254068
C115  C     C_R   0.532889 0.781432 0.938551 -0.253780
C116  C     C_R   0.467111 0.781432 0.061449 -0.253796
H29   H     H_    0.057714 0.306261 0.890151 0.193851
H30   H     H_    0.942285 0.306260 0.109848 0.193879
H31   H     H_    0.558034 0.806225 0.890593 0.193828
H32   H     H_    0.441966 0.806225 0.109408 0.193806
C117  C     C_R   1.000000 0.313122 0.000000 -0.184798
C118  C     C_R   0.500000 0.813106 1.000000 -0.184966
C119  C     C_R   0.500000 0.685814 0.000000 -0.251846
C120  C     C_R   1.000000 0.185831 0.000000 -0.252201
N1    N     N_R   0.430233 0.313671 0.122027 0.222175
O49   O     O_R   0.413365 0.359930 0.109486 -0.394079
O50   O     O_R   0.410630 0.290561 0.189005 -0.337049
N2    N     N_R   0.569768 0.313668 0.877953 0.221894
O51   O     O_R   0.586642 0.359929 0.890478 -0.395363
O52   O     O_R   0.589362 0.290556 0.810977 -0.337616
N3    N     N_R   0.930215 0.813670 0.122008 0.222020
O53   O     O_R   0.913354 0.859931 0.109456 -0.394707
O54   O     O_R   0.910602 0.790558 0.188986 -0.337253
N4    N     N_R   0.069784 0.813672 0.878002 0.222171
O55   O     O_R   0.086642 0.859933 0.890563 -0.394012
O56   O     O_R   0.089403 0.790561 0.811023 -0.336994
O57   O     O_3   0.565094 0.685680 0.877023 -0.578533
C121  C     C_3   0.598980 0.678855 0.884754 -0.305459
H33   H     H_    0.589545 0.652505 0.936148 0.142140
H34   H     H_    0.612344 0.724534 0.884691 0.166241
H35   H     H_    0.624150 0.652139 0.836392 0.194630
O58   O     O_3   0.434907 0.685680 0.122978 -0.578669
C122  C     C_3   0.401021 0.678854 0.115249 -0.305553
H36   H     H_    0.410455 0.652501 0.063857 0.142223
H37   H     H_    0.387657 0.724532 0.115311 0.166301
H38   H     H_    0.375851 0.652139 0.163613 0.194491
O59   O     O_3   0.064730 0.185710 0.876501 -0.578350
C123  C     C_3   0.098886 0.178916 0.883481 -0.304771
H39   H     H_    0.089726 0.152608 0.934760 0.141641
H40   H     H_    0.112342 0.224605 0.883086 0.166143
H41   H     H_    0.123897 0.152169 0.834943 0.194686
O60   O     O_3   0.935269 0.185710 0.123499 -0.578270
C124  C     C_3   0.901113 0.178916 0.116518 -0.304675
H42   H     H_    0.910273 0.152610 0.065238 0.141573
H43   H     H_    0.887657 0.224606 0.116913 0.166129
H44   H     H_    0.876102 0.152169 0.165055 0.194770
N5    N     N_R   0.722053 0.408947 0.698104 0.208797
O61   O     O_R   0.749369 0.375450 0.641370 -0.347944
O62   O     O_R   0.682174 0.398745 0.729804 -0.319042
N6    N     N_R   0.277936 0.406648 0.299187 0.208654
O63   O     O_R   0.250614 0.372296 0.354917 -0.347660
O64   O     O_R   0.317813 0.396244 0.267232 -0.317926
N7    N     N_R   0.222063 0.906526 0.700961 0.208642
O65   O     O_R   0.249385 0.872127 0.645288 -0.347612
O66   O     O_R   0.182186 0.896111 0.732931 -0.317875
N8    N     N_R   0.777945 0.907774 0.300518 0.208730
O67   O     O_R   0.750626 0.873836 0.356741 -0.347707
O68   O     O_R   0.817823 0.897469 0.268685 -0.318470
O69   O     O_3   0.781328 0.388711 0.755040 -0.589710
C125  C     C_3   0.749864 0.351131 0.812436 -0.222482
H45   H     H_    0.722354 0.345965 0.808480 0.192973
H46   H     H_    0.739799 0.369470 0.868115 0.143058
H47   H     H_    0.763088 0.304333 0.807079 0.198658
O70   O     O_3   0.218657 0.389812 0.241714 -0.589657
C126  C     C_3   0.250114 0.353010 0.183223 -0.223566
H48   H     H_    0.277631 0.346932 0.186996 0.192514
H49   H     H_    0.260170 0.372674 0.128104 0.143082
H50   H     H_    0.236887 0.306460 0.187226 0.198660
O71   O     O_3   0.281341 0.889875 0.758462 -0.589657
C127  C     C_3   0.249885 0.853118 0.817014 -0.223613
H51   H     H_    0.222366 0.846992 0.813254 0.192504
H52   H     H_    0.239831 0.872855 0.872099 0.143075
H53   H     H_    0.263110 0.806582 0.813085 0.198658
O72   O     O_3   0.718668 0.889264 0.243299 -0.589674
C128  C     C_3   0.750128 0.852083 0.185333 -0.222980
H54   H     H_    0.777648 0.846459 0.189182 0.192747
H55   H     H_    0.760178 0.871100 0.129940 0.143037
H56   H     H_    0.736906 0.805403 0.190003 0.198676
O73   O     O_3   0.055098 0.578630 0.257715 -0.584139
C129  C     C_3   0.094097 0.548872 0.227201 -0.284143
H57   H     H_    0.109298 0.538669 0.166864 0.161939
H58   H     H_    0.090741 0.505727 0.258210 0.144206
H59   H     H_    0.115224 0.580290 0.232215 0.195764
O74   O     O_3   0.944913 0.578646 0.742276 -0.584008
C130  C     C_3   0.905909 0.548899 0.772795 -0.284712
H60   H     H_    0.890707 0.538701 0.833133 0.161895
H61   H     H_    0.909258 0.505753 0.741791 0.144029
H62   H     H_    0.884786 0.580323 0.767777 0.195728
O75   O     O_3   0.555111 0.078609 0.257703 -0.584083
C131  C     C_3   0.594107 0.048839 0.227190 -0.284504
H63   H     H_    0.609305 0.038636 0.166853 0.161886
H64   H     H_    0.590745 0.005692 0.258201 0.144140
H65   H     H_    0.615238 0.080248 0.232202 0.195753
O76   O     O_3   0.444883 0.078600 0.742302 -0.584146
C132  C     C_3   0.405890 0.048822 0.772810 -0.284137
H66   H     H_    0.390692 0.038614 0.833146 0.161938
H67   H     H_    0.409256 0.005678 0.741794 0.144223
H68   H     H_    0.384757 0.080229 0.767802 0.195769
O77   O     O_3   0.947490 0.418053 0.238872 -0.602304
C133  C     C_3   0.904822 0.432878 0.290749 -0.239385
H69   H     H_    0.885599 0.405030 0.277378 0.193118
H70   H     H_    0.898274 0.482513 0.287354 0.160403
H71   H     H_    0.894650 0.420828 0.348523 0.162764
O78   O     O_3   0.052499 0.418039 0.761139 -0.602177
C134  C     C_3   0.095169 0.432854 0.709262 -0.240150
H72   H     H_    0.114388 0.405000 0.722636 0.193055
H73   H     H_    0.101723 0.482487 0.712654 0.160429
H74   H     H_    0.105340 0.420805 0.651489 0.162467
O79   O     O_3   0.447471 0.918079 0.238893 -0.602060
C135  C     C_3   0.404807 0.932930 0.290765 -0.240004
H75   H     H_    0.385577 0.905091 0.277403 0.193114
H76   H     H_    0.398272 0.982568 0.287352 0.160366
H77   H     H_    0.394631 0.920892 0.348543 0.162407
O80   O     O_3   0.552535 0.918087 0.761100 -0.602105
C136  C     C_3   0.595198 0.932943 0.709228 -0.239606
H78   H     H_    0.614430 0.905107 0.722588 0.193149
H79   H     H_    0.601730 0.982582 0.712642 0.160299
H80   H     H_    0.605373 0.920904 0.651450 0.162588

loop_
_geom_bond_atom_site_label_1
_geom_bond_atom_site_label_2
_geom_bond_distance
_ccdc_geom_bond_type
O22   Zn6   1.995884 S    
C63   H19   1.084263 S    
C27   C31   1.528922 S    
C102  C105  1.393444 A    
O30   C87   1.275995 A    
O26   C84   1.281236 A    
C97   C103  1.384117 A    
C134  H73   1.114381 S    
O25   C83   1.281234 A    
O74   C130  1.410078 S    
C10   N6    1.457473 S    
C57   C77   1.402700 A    
C95   C105  1.431176 S    
C22   C84   1.415790 S    
C32   C44   1.541205 S    
O28   Zn7   1.998847 S    
C9    C13   1.537061 S    
C64   H20   1.084264 S    
C128  H56   1.109145 S    
C34   C42   1.554987 S    
C24   C56   1.194156 T    
N8    O68   1.300247 A    
Zn8   O32   2.017081 S    
O46   C95   1.271536 A    
C116  H32   1.084038 S    
O72   C128  1.408306 S    
C42   C46   1.554404 S    
C1    C77   1.428736 S    
C115  C118  1.397361 A    
O4    C4    1.277277 A    
C57   O73   1.382778 S    
C135  H77   1.111157 S    
C58   O74   1.382776 S    
C61   C65   1.396648 A    
N5    O61   1.300193 A    
O35   C90   1.271131 A    
C81   C107  1.427478 S    
N6    O64   1.300250 A    
N1    O50   1.301436 A    
O43   C93   1.269691 A    
O24   Zn8   1.995884 S    
C75   C79   1.395855 A    
C131  H65   1.109358 S    
O27   Zn8   1.998844 S    
C126  H48   1.112610 S    
C10   C14   1.537050 S    
C30   C42   1.541199 S    
O16   Zn4   1.997095 S    
O18   C81   1.274710 A    
C62   H18   1.084264 S    
O13   C5    1.281576 A    
O7    Zn4   2.014784 S    
O13   Zn3   1.997097 S    
C102  H26   1.084030 S    
O15   C7    1.281576 A    
C109  C119  1.402406 A    
C111  O59   1.383080 S    
C38   C54   1.446985 S    
O48   C96   1.271539 A    
C134  H72   1.109295 S    
C99   C108  1.410939 A    
O38   Zn10  2.016852 S    
O9    C5    1.282064 A    
O41   Zn10  2.015389 S    
O19   Zn7   2.016593 S    
C58   C78   1.402704 A    
C13   C45   1.557225 S    
C127  H52   1.111365 S    
Zn5   O29   2.017081 S    
C110  C116  1.385402 A    
O8    Zn4   2.014780 S    
O23   Zn7   1.995884 S    
C133  H69   1.109295 S    
C28   O72   1.411048 S    
C23   C55   1.194159 T    
O21   Zn5   1.995884 S    
C67   C93   1.429761 S    
C126  H49   1.111365 S    
C99   N3    1.439013 S    
O3    Zn2   2.015847 S    
C60   O76   1.382776 S    
C2    C78   1.428745 S    
C62   C66   1.396645 A    
O36   C90   1.271128 A    
C115  H31   1.084037 S    
O37   C91   1.270490 A    
C122  H38   1.109484 S    
C59   C63   1.384457 A    
O38   C92   1.270486 A    
O3    C3    1.277279 A    
C33   C37   1.547041 S    
C112  C114  1.385415 A    
C35   H15   1.109942 S    
C14   C30   1.541234 S    
C89   C117  1.433302 S    
C68   C94   1.429765 S    
C125  H46   1.111363 S    
C71   O79   1.385911 S    
C10   C26   1.524933 S    
C36   C40   1.547041 S    
N2    O52   1.301435 A    
O26   Zn5   1.998847 S    
C136  H79   1.114385 S    
C38   C46   1.541942 S    
O80   C136  1.410905 S    
O69   C125  1.408307 S    
H8    C48   1.110165 S    
O5    Zn3   2.014784 S    
C25   C33   1.545207 S    
C123  H40   1.113071 S    
C27   C35   1.545210 S    
C28   C36   1.545210 S    
C70   C74   1.388905 A    
O39   C93   1.270496 A    
O73   C129  1.410077 S    
C130  H62   1.109358 S    
C113  C117  1.397261 A    
C135  H76   1.114385 S    
C128  H54   1.112612 S    
C5    C17   1.416304 S    
C23   C85   1.415790 S    
C64   C68   1.396655 A    
C7    C19   1.416291 S    
C34   C38   1.547041 S    
C8    C20   1.416295 S    
C30   C50   1.447169 S    
O43   Zn12  2.015389 S    
C76   H24   1.083744 S    
C131  H64   1.113647 S    
O29   C87   1.275996 A    
O5    C1    1.277910 A    
C132  H66   1.113147 S    
O17   C81   1.274694 A    
O8    C4    1.277904 A    
C98   C104  1.384124 A    
N4    O56   1.301435 A    
O15   Zn4   1.997097 S    
C73   H21   1.083744 S    
O44   C94   1.269691 A    
C75   H23   1.083743 S    
C21   C83   1.415784 S    
C9    C37   1.530708 S    
C39   C47   1.541943 S    
C114  C117  1.397260 A    
C57   C61   1.384455 A    
C72   C76   1.388904 A    
C41   H9    1.110098 S    
C59   C79   1.402695 A    
C65   C69   1.403011 A    
C32   C52   1.447176 S    
O14   C6    1.281575 A    
C67   C71   1.403017 A    
C100  N4    1.439005 S    
O71   C127  1.408300 S    
C98   N2    1.439018 S    
C101  H25   1.084029 S    
O70   C126  1.408300 S    
C40   C48   1.541941 S    
C123  H41   1.109488 S    
C104  H28   1.084030 S    
C124  H44   1.109488 S    
O10   C6    1.282064 A    
C125  H45   1.112610 S    
O20   Zn8   2.016592 S    
O17   Zn5   2.016593 S    
C59   O75   1.382778 S    
C60   C64   1.384455 A    
O18   Zn6   2.016592 S    
O60   C124  1.409863 S    
C128  H55   1.111362 S    
O32   C88   1.276054 A    
O21   C83   1.281397 A    
H5    C45   1.110167 S    
C73   C77   1.395863 A    
C121  H33   1.113642 S    
C12   N8    1.457486 S    
C130  H60   1.113146 S    
C113  H29   1.084054 S    
C129  H57   1.113146 S    
C17   C49   1.194502 T    
C98   C107  1.410948 A    
Zn10  O46   2.016243 S    
O2    C2    1.277281 A    
N7    O65   1.300185 A    
N1    O49   1.300423 A    
C39   C55   1.446985 S    
O36   Zn12  2.016114 S    
O37   Zn9   2.016851 S    
C74   H22   1.083741 S    
C132  H68   1.109356 S    
C82   C108  1.427471 S    
C26   C30   1.528923 S    
C58   C62   1.384455 A    
C15   C31   1.541231 S    
C111  C120  1.402524 A    
C21   C53   1.194156 T    
C129  H59   1.109358 S    
O59   C123  1.409865 S    
C41   C45   1.554403 S    
Zn12  O48   2.016243 S    
Zn6   O30   2.017081 S    
C88   C120  1.425890 S    
H7    C47   1.110160 S    
C133  H70   1.114384 S    
C134  H74   1.111159 S    
O12   Zn2   1.997404 S    
H6    C46   1.110164 S    
C25   O69   1.411051 S    
O79   C135  1.410907 S    
C40   C56   1.446979 S    
C29   C49   1.447176 S    
O1    C1    1.277281 A    
O34   C89   1.271069 A    
O28   C86   1.281234 A    
C31   C51   1.447166 S    
N3    O53   1.300426 A    
C18   C50   1.194495 T    
C25   C29   1.528935 S    
C26   C34   1.545211 S    
C100  C108  1.410938 A    
C13   H1    1.110115 S    
C68   C72   1.403019 A    
C133  H71   1.111158 S    
C15   H3    1.110114 S    
C112  O60   1.383079 S    
N8    O67   1.300177 A    
O24   C86   1.281397 A    
O39   Zn11  2.016851 S    
C37   C53   1.446976 S    
O75   C131  1.410075 S    
O40   C94   1.270494 A    
O42   C92   1.269689 A    
C122  H37   1.113081 S    
C35   C43   1.554984 S    
C14   C46   1.557223 S    
C43   H11   1.110091 S    
C6    C18   1.416292 S    
N5    O62   1.300263 A    
C103  C106  1.393439 A    
C11   C15   1.537049 S    
C36   H16   1.109940 S    
C12   C16   1.537054 S    
N6    O63   1.300187 A    
C22   C54   1.194156 T    
O27   C85   1.281242 A    
O44   Zn11  2.015391 S    
C76   C80   1.395854 A    
C9    N5    1.457473 S    
C3    C79   1.428727 S    
O20   C82   1.274700 A    
O6    C2    1.277909 A    
O4    Zn2   2.015844 S    
O22   C84   1.281399 A    
C63   C67   1.396653 A    
O23   C85   1.281398 A    
C136  H78   1.109296 S    
C100  C102  1.384117 A    
O2    Zn1   2.015844 S    
O10   Zn1   1.997404 S    
O33   C89   1.271072 A    
O58   C122  1.409875 S    
C97   C107  1.410945 A    
C11   C39   1.530713 S    
C28   C32   1.528929 S    
C127  H51   1.112610 S    
C111  C113  1.385413 A    
C11   C27   1.524934 S    
C12   C28   1.524930 S    
Zn7   O31   2.017081 S    
C109  O57   1.383072 S    
C90   C118  1.433530 S    
C126  H50   1.109140 S    
C130  H61   1.113647 S    
O77   C133  1.410906 S    
C19   C51   1.194495 T    
C44   C48   1.554404 S    
C123  H39   1.113646 S    
O7    C3    1.277905 A    
C15   C47   1.557223 S    
C112  C120  1.402524 A    
C87   C119  1.425665 S    
O76   C132  1.410078 S    
C124  H42   1.113645 S    
C99   C101  1.384119 A    
N7    O66   1.300248 A    
C37   C45   1.541940 S    
C16   C48   1.557227 S    
O16   C8    1.281578 A    
C103  H27   1.084030 S    
C69   C73   1.388903 A    
C12   C40   1.530706 S    
O35   Zn11  2.016112 S    
O11   C7    1.282064 A    
C104  C106  1.393447 A    
O12   C8    1.282067 A    
O1    Zn1   2.015847 S    
O9    Zn1   1.997406 S    
C44   H12   1.110092 S    
C33   H13   1.109943 S    
C35   C39   1.547045 S    
C60   C80   1.402696 A    
C11   N7    1.457475 S    
C26   O70   1.411044 S    
C16   H4    1.110116 S    
C27   O71   1.411043 S    
N2    O51   1.300428 A    
O31   C88   1.276055 A    
O11   Zn2   1.997406 S    
O45   C95   1.271544 A    
Zn9   O45   2.016244 S    
C24   C86   1.415784 S    
C65   C91   1.429752 S    
C124  H43   1.113073 S    
C66   C92   1.429746 S    
O41   C91   1.269691 A    
N3    O54   1.301435 A    
O6    Zn3   2.014780 S    
C4    C80   1.428723 S    
C127  H53   1.109141 S    
Zn11  O47   2.016244 S    
O47   C96   1.271536 A    
O33   Zn9   2.016112 S    
O57   C121  1.409874 S    
O34   Zn10  2.016114 S    
C110  C119  1.402405 A    
C10   C38   1.530713 S    
O25   Zn6   1.998844 S    
C69   O77   1.385915 S    
C121  H34   1.113082 S    
C70   O78   1.385913 S    
C129  H58   1.113646 S    
C125  H47   1.109147 S    
C42   H10   1.110092 S    
C96   C106  1.431168 S    
C135  H75   1.109298 S    
C66   C70   1.403009 A    
C33   C41   1.554988 S    
O78   C134  1.410907 S    
C13   C29   1.541242 S    
C14   H2    1.110114 S    
O14   Zn3   1.997095 S    
C101  C105  1.393452 A    
C16   C32   1.541240 S    
C97   N1    1.439008 S    
C110  O58   1.383070 S    
O40   Zn12  2.016852 S    
C121  H35   1.109485 S    
C131  H63   1.113145 S    
C20   C52   1.194498 T    
O19   C82   1.274700 A    
C132  H67   1.113648 S    
C136  H80   1.111157 S    
C43   C47   1.554404 S    
C9    C25   1.524930 S    
C34   H14   1.109942 S    
C109  C115  1.385402 A    
C36   C44   1.554989 S    
N4    O55   1.300422 A    
C74   C78   1.395866 A    
C72   O80   1.385911 S    
C114  H30   1.084053 S    
C116  C118  1.397359 A    
C122  H36   1.113641 S    
O42   Zn9   2.015391 S    
C71   C75   1.388902 A    
C29   C41   1.541199 S    
C61   H17   1.084262 S    
C31   C43   1.541200 S    
