data_mof_unit_50322.cif
_audit_creation_date              2012-12-11T15:06:44-0500
_audit_creation_method            fapswitch 2.2
_symmetry_space_group_name_H-M    P1
_symmetry_Int_Tables_number       1
_space_group_crystal_system       triclinic
_cell_length_a                    7.225271
_cell_length_b                    15.563729
_cell_length_c                    22.313177
_cell_angle_alpha                 90.000027
_cell_angle_beta                  89.999791
_cell_angle_gamma                 90.0
_cell_volume                      2509.16494553

loop_
_atom_site_label
_atom_site_type_symbol
_atom_type_description
_atom_site_fract_x
_atom_site_fract_y
_atom_site_fract_z
_atom_type_partial_charge
O1    O     O_R   0.390810 0.844810 0.447340 -0.544437
O2    O     O_R   0.109190 0.155190 0.947340 -0.544437
O3    O     O_R   0.890810 0.655190 0.552660 -0.544437
O4    O     O_R   0.609190 0.344810 0.052660 -0.544438
O5    O     O_R   0.720550 0.655820 0.440420 -0.531414
O6    O     O_R   0.779450 0.344180 0.940420 -0.531413
O7    O     O_R   0.220550 0.844180 0.559580 -0.531414
O8    O     O_R   0.279450 0.155820 0.059580 -0.531415
C1    C     C_R   0.553812 0.624031 0.429282 0.765471
C2    C     C_R   0.946188 0.375969 0.929282 0.765472
C3    C     C_R   0.053811 0.875969 0.570718 0.765473
C4    C     C_R   0.446188 0.124031 0.070718 0.765472
O9    O     O_R   0.720530 0.844130 0.440420 -0.528418
O10   O     O_R   0.779470 0.155870 0.940420 -0.528417
O11   O     O_R   0.220530 0.655870 0.559580 -0.528417
O12   O     O_R   0.279470 0.344130 0.059580 -0.528418
O13   O     O_R   0.890830 0.844810 0.552660 -0.552083
O14   O     O_R   0.609170 0.155190 0.052660 -0.552083
O15   O     O_R   0.390830 0.655190 0.447340 -0.552082
O16   O     O_R   0.109170 0.344810 0.947340 -0.552083
C5    C     C_R   0.552437 0.871120 0.424709 0.722522
C6    C     C_R   0.947563 0.128880 0.924709 0.722521
C7    C     C_R   0.052436 0.628880 0.575291 0.722522
C8    C     C_R   0.447563 0.371120 0.075291 0.722521
O17   O     O_3   0.557310 0.749980 0.536820 -0.376937
O18   O     O_3   0.942690 0.250020 0.036820 -0.376937
O19   O     O_3   0.057310 0.750020 0.463180 -0.376936
O20   O     O_3   0.442690 0.249980 0.963180 -0.376936
V1    V     V_3+5 0.832160 0.749980 0.493170 1.494350
V2    V     V_3+5 0.667840 0.250020 0.993170 1.494351
V3    V     V_3+5 0.332160 0.750020 0.506830 1.494350
V4    V     V_3+5 0.167840 0.249980 0.006830 1.494350
C9    C     C_R   0.777860 0.579923 0.860489 -0.146586
C10   C     C_R   0.722140 0.420077 0.360488 -0.146587
C11   C     C_R   0.277857 0.920078 0.139512 -0.146587
C12   C     C_R   0.222137 0.079924 0.639510 -0.146586
H1    H     H_    0.755029 0.520527 0.946430 0.109595
H2    H     H_    0.744972 0.479474 0.446429 0.109596
H3    H     H_    0.255026 0.979474 0.053571 0.109596
H4    H     H_    0.244971 0.020526 0.553570 0.109596
H5    H     H_    0.716687 0.690424 0.775227 0.136285
H6    H     H_    0.783312 0.309577 0.275226 0.136285
H7    H     H_    0.216685 0.809578 0.224774 0.136286
H8    H     H_    0.283305 0.190427 0.724772 0.136283
H9    H     H_    0.685181 0.631683 0.873016 0.112544
H10   H     H_    0.814818 0.368318 0.373015 0.112544
H11   H     H_    0.185178 0.868319 0.126986 0.112544
H12   H     H_    0.314814 0.131685 0.626983 0.112543
C13   C     C_R   0.941441 0.450628 0.888537 -0.052799
C14   C     C_R   0.558559 0.549372 0.388536 -0.052798
C15   C     C_R   0.441440 0.049372 0.111464 -0.052798
C16   C     C_R   0.058558 0.950628 0.611463 -0.052798
C17   C     C_R   0.146859 0.484288 0.604185 -0.156374
C18   C     C_R   0.353139 0.515711 0.104186 -0.156375
C19   C     C_R   0.646864 0.015711 0.395814 -0.156374
C20   C     C_R   0.853142 0.984287 0.895815 -0.156374
C21   C     C_R   0.176558 0.417663 0.644250 -0.116301
C22   C     C_R   0.323441 0.582336 0.144251 -0.116302
C23   C     C_R   0.676564 0.082335 0.355749 -0.116302
C24   C     C_R   0.823445 0.917662 0.855750 -0.116300
C25   C     C_R   0.118158 0.424410 0.703303 -0.134565
C26   C     C_R   0.381841 0.575589 0.203303 -0.134566
C27   C     C_R   0.618163 0.075589 0.296696 -0.134565
C28   C     C_R   0.881844 0.924409 0.796697 -0.134564
C29   C     C_R   0.024737 0.498375 0.724127 0.069304
C30   C     C_R   0.475262 0.501625 0.224128 0.069304
C31   C     C_R   0.524738 0.001625 0.275872 0.069304
C32   C     C_R   0.975264 0.998375 0.775872 0.069304
C33   C     C_R   0.983962 0.565984 0.682115 0.007089
C34   C     C_R   0.516036 0.434016 0.182115 0.007089
C35   C     C_R   0.483963 0.934017 0.317885 0.007090
C36   C     C_R   0.016037 0.065984 0.817885 0.007087
C37   C     C_R   0.967282 0.505938 0.785515 0.059255
C38   C     C_R   0.532718 0.494061 0.285515 0.059256
C39   C     C_R   0.467282 0.994062 0.214485 0.059255
C40   C     C_R   0.032718 0.005939 0.714485 0.059255
C41   C     C_R   0.848055 0.573836 0.802100 0.119129
C42   C     C_R   0.651945 0.426165 0.302100 0.119129
C43   C     C_R   0.348053 0.926165 0.197901 0.119130
C44   C     C_R   0.151942 0.073837 0.697899 0.119130
C45   C     C_R   0.802027 0.636679 0.760930 -0.240553
C46   C     C_R   0.697972 0.363321 0.260929 -0.240553
C47   C     C_R   0.302026 0.863322 0.239071 -0.240553
C48   C     C_R   0.197968 0.136682 0.739070 -0.240551
C49   C     C_R   0.876092 0.636222 0.703364 -0.015682
C50   C     C_R   0.623907 0.363778 0.203363 -0.015683
C51   C     C_R   0.376092 0.863779 0.296637 -0.015683
C52   C     C_R   0.123904 0.136223 0.796636 -0.015681
C53   C     C_R   0.022501 0.448005 0.831204 -0.162314
C54   C     C_R   0.477499 0.551995 0.331204 -0.162316
C55   C     C_R   0.522500 0.051995 0.168796 -0.162315
C56   C     C_R   0.977499 0.948005 0.668796 -0.162316
C57   C     C_R   0.820337 0.517624 0.902740 -0.184147
C58   C     C_R   0.679664 0.482376 0.402739 -0.184148
C59   C     C_R   0.320335 0.982377 0.097261 -0.184148
C60   C     C_R   0.179662 0.017624 0.597260 -0.184147
C61   C     C_R   0.052320 0.558995 0.621301 -0.090525
C62   C     C_R   0.447679 0.441004 0.121301 -0.090525
C63   C     C_R   0.552322 0.941004 0.378699 -0.090526
C64   C     C_R   0.947680 0.058995 0.878699 -0.090526
H13   H     H_    0.125271 0.400203 0.822642 0.129235
H14   H     H_    0.374729 0.599797 0.322642 0.129236
H15   H     H_    0.625272 0.099796 0.177358 0.129236
H16   H     H_    0.874729 0.900203 0.677358 0.129237
H17   H     H_    0.199774 0.477614 0.558945 0.102917
H18   H     H_    0.300225 0.522385 0.058946 0.102917
H19   H     H_    0.699779 0.022385 0.441054 0.102918
H20   H     H_    0.800229 0.977613 0.941055 0.102917
H21   H     H_    0.143706 0.369295 0.731375 0.121801
H22   H     H_    0.356293 0.630705 0.231376 0.121802
H23   H     H_    0.643713 0.130704 0.268624 0.121801
H24   H     H_    0.856298 0.869294 0.768625 0.121802
H25   H     H_    0.247870 0.360236 0.629489 0.115256
H26   H     H_    0.252129 0.639763 0.129490 0.115257
H27   H     H_    0.747879 0.139762 0.370509 0.115257
H28   H     H_    0.752135 0.860235 0.870511 0.115255
C65   C     C_2   0.851873 0.716224 0.671194 0.712519
O21   O     O_2   0.988760 0.758487 0.659459 -0.588918
O22   O     O_R   0.673531 0.747314 0.660138 -0.649352
H29   H     H_    0.672221 0.805599 0.640156 0.294129
C66   C     C_2   0.648126 0.283776 0.171194 0.712520
O23   O     O_2   0.511239 0.241513 0.159459 -0.588918
O24   O     O_R   0.826468 0.252687 0.160138 -0.649352
H30   H     H_    0.827779 0.194400 0.140155 0.294128
C67   C     C_2   0.351873 0.783776 0.328806 0.712520
O25   O     O_2   0.488760 0.741514 0.340541 -0.588918
O26   O     O_R   0.173530 0.752687 0.339862 -0.649351
H31   H     H_    0.172220 0.694400 0.359844 0.294128
C68   C     C_2   0.148123 0.216225 0.828806 0.712517
O27   O     O_2   0.011235 0.258487 0.840541 -0.588917
O28   O     O_R   0.326465 0.247314 0.839862 -0.649351
H32   H     H_    0.327776 0.305600 0.859845 0.294129

loop_
_geom_bond_atom_site_label_1
_geom_bond_atom_site_label_2
_ccdc_geom_bond_type
O17   V3    S    
C47   C51   A    
C22   C26   A    
C19   C23   A    
O19   V1    S    
C9    H9    S    
O3    C7    A    
H6    C46   S    
C44   C48   A    
O15   V3    S    
C36   C64   A    
C29   C37   A    
O24   H30   S    
O1    C5    A    
C8    C62   S    
C28   C32   A    
O9    V1    S    
H4    C60   S    
C65   O22   S    
C18   C22   A    
O4    C8    A    
C29   C33   A    
C28   H24   S    
C30   C38   A    
O1    V3    S    
H7    C47   S    
O2    V4    S    
O3    V1    S    
C12   C60   A    
C20   H20   S    
C3    C16   S    
C15   C55   A    
C1    O15   A    
C54   H14   S    
C2    O16   A    
O2    C6    A    
C16   C60   A    
O14   V2    S    
C39   C55   A    
C53   H13   S    
O11   C7    A    
C25   H21   S    
C11   H11   S    
O12   C8    A    
C52   C68   S    
O10   V2    S    
C36   C52   A    
C14   C54   A    
O5    V1    S    
C27   C31   A    
C6    C64   S    
C18   H18   S    
H1    C57   S    
O8    V4    S    
C40   C44   A    
O7    V3    S    
C12   C44   A    
C13   C53   A    
C26   C30   A    
O18   V4    S    
C14   C58   A    
C21   H25   S    
C17   C61   A    
C46   C50   A    
C35   C63   A    
O11   V3    S    
C20   C24   A    
C19   H19   S    
C32   C36   A    
O7    C3    A    
O5    C1    A    
C25   C29   A    
C42   C46   A    
C26   H22   S    
C41   C45   A    
O8    C4    A    
H5    C45   S    
H2    C58   S    
C50   C66   S    
O9    C5    A    
C49   C65   S    
H3    C59   S    
C66   O23   D    
C40   C56   A    
C10   H10   S    
C7    C61   S    
C10   C58   A    
C67   O25   D    
C35   C51   A    
C24   H28   S    
C32   C40   A    
C20   C64   A    
C19   C63   A    
O26   H31   S    
C34   C50   A    
C51   C67   S    
C4    C15   S    
C33   C49   A    
C22   H26   S    
C68   O27   D    
O16   V4    S    
C3    O13   A    
C17   C21   A    
O6    V2    S    
C1    C14   S    
C48   C52   A    
C55   H15   S    
H8    C48   S    
C9    C57   A    
O6    C2    A    
O22   H29   S    
C21   C25   A    
C11   C59   A    
O12   V4    S    
C23   C27   A    
C24   C28   A    
O10   C6    A    
O20   V2    S    
C37   C53   A    
O13   V1    S    
C10   C42   A    
C43   C47   A    
C9    C41   A    
C30   C34   A    
C5    C63   S    
C38   C54   A    
C11   C43   A    
C12   H12   S    
C31   C35   A    
C27   H23   S    
O28   H32   S    
O4    V2    S    
C66   O24   S    
C16   C56   A    
C56   H16   S    
C17   H17   S    
C31   C39   A    
C23   H27   S    
C38   C42   A    
C4    O14   A    
C67   O26   S    
C37   C41   A    
C18   C62   A    
C13   C57   A    
C65   O21   D    
C2    C13   S    
C39   C43   A    
C45   C49   A    
C34   C62   A    
C15   C59   A    
C68   O28   S    
C33   C61   A    
