data_mof_unit_48866.cif
_audit_creation_date              2012-12-10T17:19:14-0500
_audit_creation_method            fapswitch 2.2
_symmetry_space_group_name_H-M    P1
_symmetry_Int_Tables_number       1
_space_group_crystal_system       triclinic
_cell_length_a                    18.25618
_cell_length_b                    18.432666
_cell_length_c                    34.528579
_cell_angle_alpha                 89.815319
_cell_angle_beta                  90.366856
_cell_angle_gamma                 89.756385
_cell_volume                      11618.8098959

loop_
_atom_site_label
_atom_site_type_symbol
_atom_type_description
_atom_site_fract_x
_atom_site_fract_y
_atom_site_fract_z
_atom_type_partial_charge
C1    C     C_R   0.581773 0.107408 0.521491 0.036402
C2    C     C_R   0.445388 0.881774 0.479395 0.062761
C3    C     C_R   0.124938 0.550525 0.521059 0.062439
C4    C     C_R   0.876848 0.453640 0.480081 0.047109
C5    C     C_R   0.445389 0.881188 0.520141 0.031054
C6    C     C_R   0.582592 0.108296 0.480563 0.063368
C7    C     C_R   0.878368 0.450676 0.520888 0.047054
C8    C     C_R   0.125741 0.547512 0.480255 0.031282
C9    C     C_R   0.068878 0.382730 0.020952 0.047316
C10   C     C_R   0.965264 0.626348 0.979577 0.043058
C11   C     C_R   0.627123 0.034983 0.020504 0.042017
C12   C     C_R   0.373174 0.954800 0.979205 0.045714
C13   C     C_R   0.964006 0.625741 0.020323 0.046059
C14   C     C_R   0.068615 0.382642 0.979999 0.047655
C15   C     C_R   0.372750 0.956410 0.020087 0.045507
C16   C     C_R   0.626302 0.036293 0.979697 0.043580
C17   C     C_R   0.241090 0.812906 0.724461 0.001423
C18   C     C_R   0.762510 0.184292 0.272500 0.037227
C19   C     C_R   0.185919 0.242320 0.726067 0.010004
C20   C     C_R   0.803642 0.748778 0.281122 0.004168
C21   C     C_R   0.729850 0.219206 0.717880 -0.006363
C22   C     C_R   0.242030 0.811424 0.274889 0.018406
C23   C     C_R   0.803223 0.749545 0.719351 0.010813
C24   C     C_R   0.195886 0.249128 0.279325 0.007273
C25   C     C_R   0.241662 0.187577 0.273824 0.016554
C26   C     C_R   0.756870 0.810919 0.724630 0.017967
C27   C     C_R   0.182818 0.761799 0.271522 0.006805
C28   C     C_R   0.762466 0.287674 0.717063 0.036194
C29   C     C_R   0.748609 0.803904 0.280770 0.018561
C30   C     C_R   0.246421 0.194239 0.721741 0.006043
C31   C     C_R   0.816902 0.239830 0.273628 0.003963
C32   C     C_R   0.185570 0.758386 0.725346 0.037781
C33   C     C_R   0.744885 0.309220 0.224154 -0.005708
C34   C     C_R   0.252067 0.695310 0.778724 0.030566
C35   C     C_R   0.696539 0.751117 0.219829 0.006879
C36   C     C_R   0.308413 0.253144 0.778133 0.010503
C37   C     C_R   0.254574 0.690899 0.223404 -0.005408
C38   C     C_R   0.761007 0.292292 0.788062 0.047749
C39   C     C_R   0.304095 0.250614 0.219518 0.010167
C40   C     C_R   0.695581 0.748018 0.779550 0.004154
C41   C     C_R   0.741427 0.686435 0.773883 0.016931
C42   C     C_R   0.257744 0.312088 0.224569 0.014661
C43   C     C_R   0.704355 0.239108 0.786945 0.003579
C44   C     C_R   0.315175 0.737711 0.228954 0.040235
C45   C     C_R   0.258679 0.312724 0.774676 0.009835
C46   C     C_R   0.742967 0.689606 0.224520 0.014818
C47   C     C_R   0.312991 0.741908 0.773775 0.001804
C48   C     C_R   0.684794 0.261819 0.229398 0.035091
C49   C     C_R   0.304468 0.803690 0.748888 -0.120460
C50   C     C_R   0.696306 0.196469 0.250847 -0.144134
C51   C     C_R   0.195585 0.304278 0.750285 -0.117193
C52   C     C_R   0.801277 0.693494 0.252117 -0.124571
C53   C     C_R   0.694218 0.198087 0.752296 -0.141421
C54   C     C_R   0.305447 0.801566 0.251485 -0.147338
C55   C     C_R   0.800014 0.692054 0.747014 -0.129829
C56   C     C_R   0.199909 0.307454 0.252135 -0.126033
C57   C     C_R   0.300306 0.192784 0.246959 -0.130861
C58   C     C_R   0.699502 0.806592 0.752449 -0.128805
C59   C     C_R   0.192836 0.698707 0.248101 -0.124328
C60   C     C_R   0.792780 0.314279 0.752289 -0.153294
C61   C     C_R   0.696389 0.804791 0.249682 -0.125249
C62   C     C_R   0.304139 0.196540 0.749930 -0.119352
C63   C     C_R   0.806672 0.302121 0.249347 -0.119938
C64   C     C_R   0.193727 0.698478 0.751332 -0.138340
C65   C     C_R   0.455915 0.953604 0.580167 0.117444
C66   C     C_R   0.558209 0.042956 0.418334 0.106456
C67   C     C_R   0.952679 0.454954 0.580971 0.118085
C68   C     C_R   0.053201 0.542544 0.419248 0.103824
C69   C     C_R   0.558346 0.038826 0.582028 0.108658
C70   C     C_R   0.457578 0.955032 0.419659 0.115837
C71   C     C_R   0.051381 0.544993 0.581516 0.094206
C72   C     C_R   0.948855 0.458576 0.419513 0.110900
C73   C     C_R   0.962906 0.551678 0.080143 0.113928
C74   C     C_R   0.052783 0.452129 0.918282 0.088126
C75   C     C_R   0.445315 0.957845 0.081206 0.090953
C76   C     C_R   0.551838 0.036791 0.919906 0.114324
C77   C     C_R   0.053184 0.452427 0.082287 0.090182
C78   C     C_R   0.964571 0.553404 0.919459 0.105350
C79   C     C_R   0.553685 0.036932 0.080728 0.094354
C80   C     C_R   0.446678 0.954732 0.918810 0.101548
C81   C     C_R   0.503899 0.998680 0.601569 -0.093636
C82   C     C_R   0.505796 0.999766 0.398514 -0.158347
C83   C     C_R   0.000571 0.500947 0.601716 -0.126292
C84   C     C_R   0.000751 0.500399 0.398722 -0.093172
C85   C     C_R   0.005333 0.501016 0.101691 -0.120384
C86   C     C_R   0.005443 0.501198 0.898393 -0.130147
C87   C     C_R   0.499410 0.998249 0.101548 -0.081758
C88   C     C_R   0.499960 0.996056 0.898645 -0.094507
C89   C     C_R   0.551749 0.047624 0.541445 0.060938
C90   C     C_R   0.471643 0.943329 0.459346 0.095673
C91   C     C_R   0.060209 0.532846 0.541284 0.092252
C92   C     C_R   0.941468 0.470750 0.459647 0.060550
C93   C     C_R   0.470287 0.942679 0.540463 0.067196
C94   C     C_R   0.552120 0.049701 0.459330 0.086067
C95   C     C_R   0.943707 0.467543 0.540956 0.053900
C96   C     C_R   0.060643 0.531283 0.459649 0.053926
C97   C     C_R   0.045151 0.444908 0.041445 0.088695
C98   C     C_R   0.979614 0.561248 0.959379 0.049257
C99   C     C_R   0.561187 0.022552 0.040791 0.050641
C100  C     C_R   0.439498 0.966091 0.959166 0.051059
C101  C     C_R   0.978426 0.560399 0.040458 0.053716
C102  C     C_R   0.044973 0.444872 0.959115 0.089523
C103  C     C_R   0.438845 0.968399 0.040747 0.049579
C104  C     C_R   0.560473 0.022096 0.959622 0.063976
C105  C     C_R   0.999922 0.500335 0.644198 0.815647
C106  C     C_R   0.000251 0.499453 0.355967 0.830840
C107  C     C_R   0.500204 0.999900 0.644207 0.821085
C108  C     C_R   0.501822 0.999970 0.355776 0.782113
C109  C     C_R   0.499778 0.999689 0.144119 0.840757
C110  C     C_R   0.500036 0.999468 0.855949 0.827032
C111  C     C_R   0.000964 0.500237 0.144249 0.806362
C112  C     C_R   0.001093 0.500156 0.855780 0.806643
C113  C     C_R   0.859824 0.639770 0.749117 0.793175
C114  C     C_R   0.140359 0.360273 0.250653 0.786727
C115  C     C_R   0.360214 0.859925 0.749952 0.788715
C116  C     C_R   0.639575 0.140420 0.249767 0.909762
C117  C     C_R   0.139758 0.360102 0.749971 0.789111
C118  C     C_R   0.859834 0.639827 0.250450 0.787723
C119  C     C_R   0.640011 0.140100 0.750389 0.789320
C120  C     C_R   0.360744 0.859063 0.249654 0.909987
C121  C     C_R   0.860333 0.360029 0.249858 0.790490
C122  C     C_R   0.140450 0.639373 0.750733 0.904575
C123  C     C_R   0.359967 0.140051 0.249014 0.789633
C124  C     C_R   0.640042 0.859815 0.750915 0.790778
C125  C     C_R   0.139825 0.640113 0.249616 0.795731
C126  C     C_R   0.857646 0.361827 0.750488 0.873242
C127  C     C_R   0.639344 0.859606 0.249417 0.792686
C128  C     C_R   0.359747 0.139783 0.749811 0.786562
C129  C     C_R   0.121628 0.767523 0.701263 0.120343
C130  C     C_R   0.880391 0.228808 0.298399 0.114359
C131  C     C_R   0.244883 0.144304 0.689701 0.108250
C132  C     C_R   0.750279 0.857241 0.311485 0.091703
C133  C     C_R   0.763297 0.324781 0.680878 0.149602
C134  C     C_R   0.115851 0.778777 0.291744 0.105191
C135  C     C_R   0.771244 0.874994 0.701979 0.113329
C136  C     C_R   0.225472 0.122523 0.295293 0.099782
C137  C     C_R   0.147956 0.249210 0.312344 0.106269
C138  C     C_R   0.850559 0.748638 0.686008 0.086209
C139  C     C_R   0.236832 0.868534 0.302808 0.127424
C140  C     C_R   0.732332 0.176778 0.683482 0.124976
C141  C     C_R   0.857703 0.750604 0.311777 0.116786
C142  C     C_R   0.119559 0.227132 0.704376 0.107328
C143  C     C_R   0.775848 0.118752 0.294032 0.115218
C144  C     C_R   0.230345 0.873925 0.698457 0.113396
C145  C     C_R   0.615998 0.280979 0.211611 0.108755
C146  C     C_R   0.379273 0.724461 0.794981 0.104517
C147  C     C_R   0.728481 0.626590 0.200984 0.114112
C148  C     C_R   0.273603 0.377225 0.797140 0.112287
C149  C     C_R   0.383600 0.718341 0.211566 0.104326
C150  C     C_R   0.658624 0.231394 0.820178 0.130477
C151  C     C_R   0.272656 0.376191 0.201880 0.114099
C152  C     C_R   0.725372 0.621012 0.795202 0.105243
C153  C     C_R   0.647819 0.747859 0.812632 0.111162
C154  C     C_R   0.351934 0.249621 0.186470 0.091649
C155  C     C_R   0.776757 0.327062 0.824096 0.132649
C156  C     C_R   0.258632 0.638274 0.192723 0.107067
C157  C     C_R   0.362139 0.254905 0.809059 0.109767
C158  C     C_R   0.650349 0.754151 0.185692 0.090015
C159  C     C_R   0.251841 0.646763 0.811281 0.110009
C160  C     C_R   0.739860 0.362471 0.193642 0.111291
C161  C     C_R   0.115864 0.825741 0.675698 -0.239460
C162  C     C_R   0.888463 0.165546 0.319882 -0.140767
C163  C     C_R   0.180952 0.133677 0.668585 -0.160518
C164  C     C_R   0.812460 0.864765 0.334407 -0.186618
C165  C     C_R   0.758008 0.284829 0.646541 -0.266656
C166  C     C_R   0.111407 0.838781 0.315753 -0.156216
C167  C     C_R   0.822600 0.873634 0.672501 -0.159884
C168  C     C_R   0.173346 0.123215 0.324392 -0.168924
C169  C     C_R   0.137082 0.186239 0.333678 -0.159295
C170  C     C_R   0.859854 0.810855 0.663858 -0.177992
C171  C     C_R   0.171066 0.882246 0.321832 -0.207473
C172  C     C_R   0.748253 0.210180 0.648166 -0.137370
C173  C     C_R   0.865814 0.812060 0.334457 -0.153321
C174  C     C_R   0.118643 0.172547 0.676768 -0.166460
C175  C     C_R   0.837850 0.111056 0.317354 -0.235826
C176  C     C_R   0.169363 0.877681 0.674295 -0.137404
C177  C     C_R   0.611110 0.339842 0.186218 -0.245323
C178  C     C_R   0.379095 0.670951 0.823502 -0.150661
C179  C     C_R   0.676360 0.629342 0.171577 -0.176739
C180  C     C_R   0.329919 0.377825 0.824290 -0.178729
C181  C     C_R   0.387519 0.660691 0.185564 -0.247280
C182  C     C_R   0.680771 0.260385 0.855504 -0.153248
C183  C     C_R   0.326245 0.375196 0.173508 -0.175412
C184  C     C_R   0.673484 0.621729 0.824434 -0.185031
C185  C     C_R   0.637391 0.684771 0.833950 -0.155830
C186  C     C_R   0.363435 0.312295 0.165037 -0.185718
C187  C     C_R   0.740359 0.305951 0.857670 -0.240943
C188  C     C_R   0.325282 0.623268 0.175163 -0.126862
C189  C     C_R   0.371858 0.317094 0.830963 -0.162901
C190  C     C_R   0.640131 0.692892 0.163077 -0.181498
C191  C     C_R   0.315602 0.635021 0.832774 -0.227768
C192  C     C_R   0.672811 0.378050 0.176229 -0.126515
C193  C     C_R   0.511779 0.995356 0.520503 -0.065869
C194  C     C_R   0.512388 0.995948 0.479705 -0.085890
C195  C     C_R   0.001694 0.500587 0.520721 -0.071472
C196  C     C_R   0.001172 0.501128 0.479987 -0.062287
C197  C     C_R   0.011845 0.502375 0.020513 -0.071531
C198  C     C_R   0.012036 0.502549 0.979654 -0.070585
C199  C     C_R   0.500272 0.994386 0.020469 -0.057252
C200  C     C_R   0.500353 0.993436 0.979790 -0.060076
H1    H     H_    0.315824 0.597274 0.856896 0.141793
H2    H     H_    0.668915 0.419351 0.153892 0.151265
H3    H     H_    0.412951 0.318260 0.853752 0.157878
H4    H     H_    0.603868 0.694920 0.138115 0.152304
H5    H     H_    0.753127 0.331692 0.885050 0.142487
H6    H     H_    0.328555 0.582666 0.152604 0.149601
H7    H     H_    0.600458 0.684705 0.858400 0.151793
H8    H     H_    0.400780 0.311717 0.140765 0.152268
H9    H     H_    0.337530 0.423728 0.156814 0.148311
H10   H     H_    0.661696 0.572534 0.840452 0.153277
H11   H     H_    0.439216 0.646541 0.172252 0.146581
H12   H     H_    0.647994 0.252914 0.881115 0.150035
H13   H     H_    0.665409 0.581717 0.154183 0.146785
H14   H     H_    0.340472 0.426235 0.841140 0.150702
H15   H     H_    0.559204 0.353790 0.172666 0.145394
H16   H     H_    0.428870 0.658426 0.839490 0.152228
H17   H     H_    0.846891 0.061535 0.333745 0.141642
H18   H     H_    0.162238 0.923320 0.654731 0.146862
H19   H     H_    0.909009 0.814465 0.356097 0.151189
H20   H     H_    0.068982 0.161540 0.660490 0.154472
H21   H     H_    0.166385 0.926145 0.342469 0.134864
H22   H     H_    0.749724 0.178698 0.621761 0.146238
H23   H     H_    0.100042 0.186380 0.358085 0.153210
H24   H     H_    0.896314 0.810265 0.639210 0.150187
H25   H     H_    0.833040 0.922083 0.655590 0.153468
H26   H     H_    0.161656 0.074125 0.340525 0.144173
H27   H     H_    0.760614 0.311843 0.618685 0.144138
H28   H     H_    0.060804 0.851049 0.330686 0.152330
H29   H     H_    0.179887 0.094998 0.645009 0.152953
H30   H     H_    0.815160 0.907303 0.355972 0.148666
H31   H     H_    0.067750 0.831854 0.657405 0.143600
H32   H     H_    0.936202 0.157759 0.338290 0.148981
O1    O     O_3   1.000000 0.500000 0.750000 -0.481180
O2    O     O_3   1.000000 0.500000 0.250000 -0.475738
O3    O     O_3   0.500000 0.000000 0.750000 -0.477803
O4    O     O_3   0.500000 0.000000 0.250000 -0.482215
O5    O     O_R   0.060740 0.500000 0.662560 -0.648001
O6    O     O_R   0.939260 0.500000 0.337440 -0.653472
O7    O     O_R   0.500000 0.060740 0.662560 -0.650433
O8    O     O_R   0.500000 0.939260 0.337440 -0.646069
O9    O     O_R   0.939260 0.500000 0.662560 -0.653592
O10   O     O_R   0.060740 0.500000 0.337440 -0.649229
O11   O     O_R   0.500000 0.939260 0.662560 -0.647608
O12   O     O_R   0.500000 0.060740 0.337440 -0.640385
O13   O     O_R   0.560740 0.000000 0.162560 -0.652482
O14   O     O_R   0.439260 0.000000 0.837440 -0.648934
O15   O     O_R   1.000000 0.560740 0.162560 -0.643919
O16   O     O_R   0.000000 0.439260 0.837440 -0.655773
O17   O     O_R   0.439260 0.000000 0.162560 -0.653445
O18   O     O_R   0.560740 0.000000 0.837440 -0.654990
O19   O     O_R   0.000000 0.439260 0.162560 -0.652273
O20   O     O_R   0.000000 0.560740 0.837440 -0.635798
O21   O     O_R   0.853850 0.585450 0.727070 -0.672644
O22   O     O_R   0.146150 0.414550 0.272930 -0.668531
O23   O     O_R   0.414550 0.853850 0.727070 -0.658646
O24   O     O_R   0.585450 0.146150 0.272930 -0.623831
O25   O     O_R   0.146150 0.414550 0.727070 -0.647531
O26   O     O_R   0.853850 0.585450 0.272930 -0.664258
O27   O     O_R   0.585450 0.146150 0.727070 -0.637297
O28   O     O_R   0.414550 0.853850 0.272930 -0.622812
O29   O     O_R   0.853850 0.414550 0.272930 -0.644760
O30   O     O_R   0.146150 0.585450 0.727070 -0.649540
O31   O     O_R   0.414550 0.146150 0.272930 -0.623234
O32   O     O_R   0.585450 0.853850 0.727070 -0.630879
O33   O     O_R   0.146150 0.585450 0.272930 -0.637463
O34   O     O_R   0.853850 0.414550 0.727070 -0.634920
O35   O     O_R   0.585450 0.853850 0.272930 -0.646615
O36   O     O_R   0.414550 0.146150 0.727070 -0.650062
O37   O     O_R   0.353850 0.085450 0.227070 -0.672596
O38   O     O_R   0.646150 0.914550 0.772930 -0.668184
O39   O     O_R   0.914550 0.353850 0.227070 -0.656600
O40   O     O_R   0.085450 0.646150 0.772930 -0.609769
O41   O     O_R   0.646150 0.914550 0.227070 -0.655340
O42   O     O_R   0.353850 0.085450 0.772930 -0.651643
O43   O     O_R   0.085450 0.646150 0.227070 -0.666749
O44   O     O_R   0.914550 0.353850 0.772930 -0.628105
O45   O     O_R   0.353850 0.914550 0.772930 -0.641112
O46   O     O_R   0.646150 0.085450 0.227070 -0.632369
O47   O     O_R   0.914550 0.646150 0.772930 -0.627795
O48   O     O_R   0.085450 0.353850 0.227070 -0.635885
O49   O     O_R   0.646150 0.085450 0.772930 -0.651067
O50   O     O_R   0.353850 0.914550 0.227070 -0.641728
O51   O     O_R   0.085450 0.353850 0.772930 -0.655662
O52   O     O_R   0.914550 0.646150 0.227070 -0.638927
Zn1   Zn    Zn3+2 0.000000 0.586740 0.782740 0.964185
Zn2   Zn    Zn3+2 1.000000 0.413260 0.217260 0.928244
Zn3   Zn    Zn3+2 0.413260 0.000000 0.782740 0.929542
Zn4   Zn    Zn3+2 0.586740 0.000000 0.217260 0.942718
Zn5   Zn    Zn3+2 1.000000 0.413260 0.782740 0.939862
Zn6   Zn    Zn3+2 0.000000 0.586740 0.217260 0.924799
Zn7   Zn    Zn3+2 0.586740 0.000000 0.782740 0.920424
Zn8   Zn    Zn3+2 0.413260 0.000000 0.217260 0.937552
Zn9   Zn    Zn3+2 0.500000 0.086740 0.282740 0.966355
Zn10  Zn    Zn3+2 0.500000 0.913260 0.717260 0.934296
Zn11  Zn    Zn3+2 0.913260 0.500000 0.282740 0.921691
Zn12  Zn    Zn3+2 0.086740 0.500000 0.717260 0.947717
Zn13  Zn    Zn3+2 0.500000 0.913260 0.282740 0.949244
Zn14  Zn    Zn3+2 0.500000 0.086740 0.717260 0.934214
Zn15  Zn    Zn3+2 0.086740 0.500000 0.282740 0.923696
Zn16  Zn    Zn3+2 0.913260 0.500000 0.717260 0.931661
N1    N     N_3   0.059454 0.720792 0.703669 -0.461368
H33   H     H_    0.047423 0.702029 0.675891 0.162638
H34   H     H_    0.014842 0.751681 0.713092 0.193081
N2    N     N_3   0.939788 0.278485 0.302763 -0.495504
H35   H     H_    0.969286 0.282546 0.277104 0.212177
H36   H     H_    0.921697 0.328051 0.313650 0.200075
N3    N     N_3   0.308313 0.110285 0.673831 -0.476748
H37   H     H_    0.347823 0.149266 0.667418 0.224948
H38   H     H_    0.327579 0.068376 0.691473 0.190651
N4    N     N_3   0.687938 0.896694 0.325248 -0.479486
H39   H     H_    0.669145 0.934995 0.305401 0.184577
H40   H     H_    0.647291 0.860413 0.333809 0.232001
N5    N     N_3   0.750616 0.401538 0.679129 -0.409906
H41   H     H_    0.697840 0.410203 0.668062 0.176234
H42   H     H_    0.787170 0.424643 0.659596 0.195087
N6    N     N_3   0.048776 0.740218 0.287616 -0.477685
H43   H     H_    0.029758 0.743804 0.259114 0.230899
H44   H     H_    0.054853 0.687391 0.297958 0.179008
N7    N     N_3   0.741554 0.945008 0.710205 -0.484115
H45   H     H_    0.686236 0.947886 0.702651 0.184151
H46   H     H_    0.751988 0.958493 0.739064 0.217287
N8    N     N_3   0.254211 0.052518 0.286163 -0.464887
H47   H     H_    0.244385 0.040696 0.257035 0.230271
H48   H     H_    0.309342 0.048937 0.294083 0.190958
N9    N     N_3   0.116786 0.313193 0.328812 -0.472695
H49   H     H_    0.157590 0.351747 0.333629 0.226829
H50   H     H_    0.073401 0.332479 0.311914 0.188278
N10   N     N_3   0.882501 0.684428 0.669964 -0.472262
H51   H     H_    0.925904 0.665632 0.686983 0.182994
H52   H     H_    0.842003 0.645421 0.665477 0.228950
N11   N     N_3   0.300076 0.907651 0.315323 -0.466278
H53   H     H_    0.331805 0.870796 0.331287 0.190992
H54   H     H_    0.285042 0.948956 0.334324 0.174351
N12   N     N_3   0.731675 0.099306 0.684527 -0.478098
H55   H     H_    0.763559 0.082200 0.708101 0.197319
H56   H     H_    0.678248 0.080685 0.687574 0.195958
N13   N     N_3   0.896629 0.688478 0.325898 -0.472750
H57   H     H_    0.859546 0.648038 0.333663 0.227546
H58   H     H_    0.935290 0.670667 0.306182 0.184228
N14   N     N_3   0.049859 0.260884 0.710749 -0.474836
H59   H     H_    0.033840 0.253537 0.739454 0.224870
H60   H     H_    0.049655 0.314930 0.701692 0.180763
N15   N     N_3   0.727857 0.058032 0.292446 -0.464996
H61   H     H_    0.712581 0.045794 0.320775 0.168484
H62   H     H_    0.757421 0.014082 0.281395 0.198543
N16   N     N_3   0.277594 0.935312 0.695650 -0.493111
H63   H     H_    0.278504 0.963577 0.721758 0.207804
H64   H     H_    0.329181 0.920365 0.685635 0.197741
N17   N     N_3   0.549619 0.243112 0.219613 -0.443643
H65   H     H_    0.529208 0.224086 0.193306 0.159779
H66   H     H_    0.511594 0.279924 0.230853 0.201427
N18   N     N_3   0.449743 0.754248 0.786817 -0.470090
H67   H     H_    0.462491 0.746248 0.757704 0.227466
H68   H     H_    0.451978 0.808460 0.795151 0.175586
N19   N     N_3   0.760031 0.556493 0.207511 -0.476909
H69   H     H_    0.815114 0.556353 0.199723 0.181969
H70   H     H_    0.751159 0.540002 0.236047 0.222084
N20   N     N_3   0.237076 0.445475 0.792343 -0.484540
H71   H     H_    0.243430 0.464657 0.764104 0.226360
H72   H     H_    0.182801 0.442727 0.801457 0.169639
N21   N     N_3   0.450817 0.753294 0.221663 -0.440774
H73   H     H_    0.474500 0.771996 0.196164 0.159976
H74   H     H_    0.486231 0.714569 0.233802 0.200990
N22   N     N_3   0.583341 0.210250 0.817431 -0.480146
H75   H     H_    0.559670 0.232789 0.792483 0.187667
H76   H     H_    0.578146 0.154093 0.817702 0.204491
N23   N     N_3   0.239506 0.445494 0.208097 -0.473467
H77   H     H_    0.184514 0.444480 0.199784 0.171848
H78   H     H_    0.247690 0.461741 0.236727 0.222218
N24   N     N_3   0.753201 0.550619 0.785586 -0.470061
H79   H     H_    0.743165 0.539762 0.756364 0.229358
H80   H     H_    0.808355 0.545775 0.793184 0.183235
N25   N     N_3   0.615653 0.811589 0.828913 -0.468667
H81   H     H_    0.656073 0.850521 0.833758 0.225756
H82   H     H_    0.572997 0.830481 0.811434 0.181922
N26   N     N_3   0.381395 0.184894 0.169784 -0.471199
H83   H     H_    0.424223 0.164339 0.186592 0.177470
H84   H     H_    0.339543 0.147231 0.165465 0.228710
N27   N     N_3   0.822067 0.389858 0.826616 -0.452344
H85   H     H_    0.861480 0.380970 0.848248 0.206371
H86   H     H_    0.788588 0.432866 0.835225 0.176862
N28   N     N_3   0.195727 0.607385 0.174125 -0.466587
H87   H     H_    0.172288 0.567495 0.191370 0.188290
H88   H     H_    0.158311 0.648463 0.167048 0.218484
N29   N     N_3   0.404059 0.193861 0.822196 -0.479142
H89   H     H_    0.369166 0.152149 0.830771 0.222293
H90   H     H_    0.442976 0.178236 0.801912 0.186461
N30   N     N_3   0.619989 0.819265 0.169538 -0.469341
H91   H     H_    0.576202 0.837946 0.185920 0.178305
H92   H     H_    0.661220 0.857713 0.165731 0.232669
N31   N     N_3   0.185734 0.615077 0.825583 -0.440709
H93   H     H_    0.175141 0.637129 0.852857 0.190062
H94   H     H_    0.194051 0.559508 0.829445 0.171624
N32   N     N_3   0.802139 0.393596 0.175049 -0.472429
H95   H     H_    0.825903 0.433178 0.192385 0.185244
H96   H     H_    0.839299 0.352674 0.167749 0.220370
C201  C     C_3   0.383335 0.929513 0.597633 -0.390304
C202  C     C_3   0.332550 0.994662 0.602639 -0.907028
H97   H     H_    0.360142 0.037570 0.619489 0.275334
H98   H     H_    0.317125 0.017318 0.573849 0.263867
H99   H     H_    0.281902 0.977970 0.617815 0.264041
H100  H     H_    0.352467 0.891726 0.579035 0.230304
H101  H     H_    0.392081 0.901037 0.625568 0.227023
C203  C     C_3   0.623428 0.074362 0.396281 -0.326431
C204  C     C_3   0.696551 0.045588 0.412019 -0.901598
H102  H     H_    0.705383 0.061314 0.442640 0.268506
H103  H     H_    0.698217 0.985463 0.409862 0.263479
H104  H     H_    0.742131 0.068131 0.394624 0.245111
H105  H     H_    0.622575 0.058791 0.365465 0.194604
H106  H     H_    0.622351 0.134362 0.395662 0.230797
C205  C     C_3   0.921282 0.386766 0.599768 -0.383974
C206  C     C_3   0.981728 0.334296 0.612916 -0.879718
H107  H     H_    0.016732 0.319275 0.587966 0.262132
H108  H     H_    0.016543 0.358297 0.635873 0.255676
H109  H     H_    0.956659 0.284190 0.624787 0.252481
H110  H     H_    0.886207 0.400936 0.624516 0.222629
H111  H     H_    0.887170 0.355250 0.579316 0.218760
C207  C     C_3   0.094301 0.604662 0.399548 -0.367907
C208  C     C_3   0.042111 0.661612 0.382852 -0.892721
H112  H     H_    0.012347 0.639412 0.357784 0.260766
H113  H     H_    0.002292 0.679505 0.405108 0.265480
H114  H     H_    0.073626 0.709510 0.372903 0.256245
H115  H     H_    0.128254 0.635592 0.420257 0.223084
H116  H     H_    0.131701 0.583995 0.376897 0.240784
C209  C     C_3   0.629185 0.058640 0.602906 -0.385231
C210  C     C_3   0.671527 0.990210 0.614869 -0.894231
H117  H     H_    0.642060 0.959487 0.637504 0.261506
H118  H     H_    0.679698 0.954492 0.589383 0.264967
H119  H     H_    0.726285 0.005122 0.626360 0.265796
H120  H     H_    0.667338 0.088868 0.584199 0.224159
H121  H     H_    0.617570 0.093433 0.628234 0.230005
C211  C     C_3   0.385960 0.930016 0.401326 -0.355397
C212  C     C_3   0.318612 0.955145 0.423948 -0.900321
H122  H     H_    0.315652 0.928749 0.452760 0.267626
H123  H     H_    0.319834 0.014945 0.427809 0.263576
H124  H     H_    0.268142 0.940850 0.407601 0.239345
H125  H     H_    0.379624 0.955165 0.372625 0.191105
H126  H     H_    0.385294 0.870567 0.396837 0.226563
C213  C     C_3   0.088932 0.608774 0.601745 -0.327134
C214  C     C_3   0.072077 0.681157 0.581714 -0.908061
H127  H     H_    0.094817 0.683002 0.552046 0.268550
H128  H     H_    0.011898 0.690059 0.580140 0.261332
H129  H     H_    0.096837 0.726076 0.598626 0.249160
H130  H     H_    0.069233 0.615597 0.631624 0.197601
H131  H     H_    0.148730 0.600087 0.604666 0.234080
C215  C     C_3   0.914010 0.391528 0.401228 -0.384936
C216  C     C_3   0.972192 0.333975 0.393291 -0.910460
H132  H     H_    0.010992 0.353833 0.371350 0.270339
H133  H     H_    0.002873 0.320645 0.420305 0.267378
H134  H     H_    0.945897 0.283689 0.382511 0.261798
H135  H     H_    0.874797 0.364311 0.420586 0.228041
H136  H     H_    0.883043 0.405141 0.374480 0.234706
C217  C     C_3   0.895941 0.589098 0.097726 -0.365898
C218  C     C_3   0.838742 0.534308 0.110979 -0.889503
H137  H     H_    0.824789 0.496589 0.087035 0.263287
H138  H     H_    0.858884 0.502774 0.136123 0.261149
H139  H     H_    0.788193 0.563356 0.119765 0.254723
H140  H     H_    0.911883 0.625299 0.121906 0.240237
H141  H     H_    0.866564 0.623258 0.076242 0.220534
C219  C     C_3   0.116761 0.416371 0.896811 -0.323718
C220  C     C_3   0.190912 0.436702 0.914515 -0.905059
H142  H     H_    0.197525 0.496597 0.914304 0.252343
H143  H     H_    0.196662 0.416625 0.944663 0.268811
H144  H     H_    0.235572 0.412331 0.897096 0.251020
H145  H     H_    0.110460 0.356787 0.895076 0.232847
H146  H     H_    0.120205 0.434707 0.866350 0.193456
C221  C     C_3   0.400832 0.898313 0.101153 -0.346164
C222  C     C_3   0.449451 0.840357 0.120034 -0.900293
H147  H     H_    0.492405 0.821882 0.099614 0.264466
H148  H     H_    0.475456 0.861262 0.146654 0.249943
H149  H     H_    0.415581 0.792916 0.128312 0.251274
H150  H     H_    0.362447 0.921715 0.122572 0.239155
H151  H     H_    0.367330 0.867637 0.080072 0.219561
C223  C     C_3   0.578306 0.109127 0.904153 -0.389464
C224  C     C_3   0.513634 0.162133 0.901644 -0.896754
H152  H     H_    0.470344 0.140725 0.882303 0.270681
H153  H     H_    0.489958 0.170459 0.930871 0.261290
H154  H     H_    0.531154 0.215532 0.890387 0.262443
H155  H     H_    0.619313 0.135099 0.923254 0.220950
H156  H     H_    0.605065 0.102351 0.875791 0.230753
C225  C     C_3   0.117459 0.417194 0.104256 -0.321389
C226  C     C_3   0.191326 0.437726 0.086722 -0.887983
H157  H     H_    0.196622 0.418065 0.056579 0.263958
H158  H     H_    0.197985 0.497610 0.086971 0.261254
H159  H     H_    0.236219 0.413044 0.104192 0.250664
H160  H     H_    0.120944 0.435802 0.134639 0.198319
H161  H     H_    0.111465 0.357585 0.106256 0.231936
C227  C     C_3   0.900824 0.595641 0.900917 -0.329913
C228  C     C_3   0.843177 0.546119 0.882985 -0.929238
H162  H     H_    0.862064 0.525583 0.854771 0.253790
H163  H     H_    0.830831 0.499956 0.902625 0.256095
H164  H     H_    0.791888 0.577252 0.877687 0.257752
H165  H     H_    0.870062 0.626956 0.922785 0.216625
H166  H     H_    0.920992 0.635120 0.879174 0.239587
C229  C     C_3   0.596342 0.099359 0.099346 -0.351061
C230  C     C_3   0.545748 0.158532 0.114985 -0.902402
H167  H     H_    0.505798 0.175933 0.092358 0.264902
H168  H     H_    0.515856 0.139328 0.140708 0.251789
H169  H     H_    0.578739 0.206302 0.123778 0.250486
H170  H     H_    0.633912 0.079248 0.122379 0.240060
H171  H     H_    0.630599 0.128105 0.077977 0.219742
C231  C     C_3   0.404193 0.893956 0.898898 -0.361268
C232  C     C_3   0.455329 0.836384 0.882322 -0.888463
H172  H     H_    0.485470 0.858048 0.857273 0.254828
H173  H     H_    0.494990 0.817454 0.904747 0.263461
H174  H     H_    0.422750 0.789257 0.872393 0.255890
H175  H     H_    0.369677 0.863772 0.919598 0.221360
H176  H     H_    0.367117 0.915748 0.876071 0.241733
N33   N     N_3   0.603355 0.170818 0.542758 -0.480401
H177  H     H_    0.657321 0.183941 0.535755 0.166916
H178  H     H_    0.569103 0.214085 0.534963 0.190716
N34   N     N_3   0.423491 0.818367 0.458338 -0.470917
H179  H     H_    0.457994 0.775190 0.465956 0.183723
H180  H     H_    0.369767 0.805171 0.465789 0.180176
N35   N     N_3   0.191388 0.565157 0.541964 -0.471571
H181  H     H_    0.230247 0.525323 0.535455 0.185324
H182  H     H_    0.211348 0.615774 0.533446 0.180898
N36   N     N_3   0.808472 0.447378 0.459541 -0.476797
H183  H     H_    0.784106 0.397968 0.466734 0.171521
H184  H     H_    0.773785 0.489513 0.468133 0.190580
N37   N     N_3   0.427972 0.815853 0.540874 -0.474793
H185  H     H_    0.465612 0.775509 0.533345 0.190988
H186  H     H_    0.375530 0.798841 0.532795 0.170449
N38   N     N_3   0.608454 0.171640 0.460762 -0.473438
H187  H     H_    0.662725 0.181380 0.468956 0.181017
H188  H     H_    0.576146 0.216212 0.468394 0.183557
N39   N     N_3   0.812086 0.438412 0.542111 -0.488735
H189  H     H_    0.789949 0.388611 0.533760 0.167562
H190  H     H_    0.774502 0.479540 0.535397 0.189347
N40   N     N_3   0.194053 0.552490 0.459964 -0.479614
H191  H     H_    0.228061 0.509746 0.468840 0.191954
H192  H     H_    0.219410 0.601515 0.466936 0.170959
N41   N     N_3   0.087540 0.317517 0.041632 -0.471329
H193  H     H_    0.050709 0.276668 0.034019 0.183578
H194  H     H_    0.140516 0.301339 0.034172 0.183529
N42   N     N_3   0.960038 0.693861 0.958777 -0.481755
H195  H     H_    0.911106 0.719893 0.966101 0.173900
H196  H     H_    0.003833 0.726875 0.966961 0.189329
N43   N     N_3   0.695452 0.038830 0.041267 -0.479704
H197  H     H_    0.722222 0.086769 0.033668 0.173599
H198  H     H_    0.728221 0.994841 0.033222 0.189669
N44   N     N_3   0.305336 0.950666 0.958011 -0.480953
H199  H     H_    0.277908 0.903364 0.966071 0.174544
H200  H     H_    0.272801 0.995474 0.964975 0.189750
N45   N     N_3   0.956217 0.692423 0.041385 -0.478725
H201  H     H_    0.907147 0.717634 0.033116 0.173879
H202  H     H_    0.999694 0.726635 0.034389 0.189229
N46   N     N_3   0.086719 0.317234 0.959708 -0.472137
H203  H     H_    0.049750 0.276620 0.967386 0.182856
H204  H     H_    0.139690 0.300810 0.967441 0.183705
N47   N     N_3   0.304387 0.954652 0.040469 -0.482367
H205  H     H_    0.276407 0.907232 0.033151 0.174227
H206  H     H_    0.272683 0.999375 0.032028 0.189461
N48   N     N_3   0.693032 0.045642 0.958455 -0.472998
H207  H     H_    0.729088 0.003443 0.965614 0.188659
H208  H     H_    0.716915 0.094820 0.966500 0.173409

loop_
_geom_bond_atom_site_label_1
_geom_bond_atom_site_label_2
_ccdc_geom_bond_type
N8    H48   S    
O27   Zn14  S    
C45   C148  A    
C65   C201  S    
C209  C210  S    
C185  H7    S    
C229  C230  S    
C143  C175  A    
C79   C87   A    
N13   H57   S    
C231  H176  S    
N1    H33   S    
C205  H111  S    
C109  O17   A    
C127  O35   A    
C79   C99   A    
C4    N36   S    
C31   C130  A    
O23   Zn10  S    
C14   N46   S    
N44   H199  S    
C80   C231  S    
C14   C102  A    
C29   C132  A    
C124  O32   A    
C30   C131  A    
C164  H30   S    
N40   H191  S    
C2    C90   A    
O21   Zn16  S    
O22   Zn15  S    
C231  C232  S    
N20   H71   S    
C16   C104  A    
N26   H84   S    
C6    C94   A    
C95   C195  A    
C160  N32   S    
C48   C50   A    
C47   C146  A    
O52   Zn6   S    
C199  C200  A    
C75   C103  A    
C175  H17   S    
C107  O11   A    
C74   C219  S    
C36   C62   A    
C105  O9    A    
C232  H173  S    
C114  O22   A    
N4    H40   S    
C40   C58   A    
C39   C154  A    
C28   C133  A    
N27   H85   S    
C208  H114  S    
N14   H59   S    
O37   Zn8   S    
C150  C182  A    
C3    C8    A    
O38   Zn7   S    
N33   H178  S    
C122  O30   A    
N35   H182  S    
C120  O28   A    
C22   C139  A    
C230  H169  S    
C189  H3    S    
C83   C105  S    
N6    H43   S    
C216  H132  S    
C216  H133  S    
C5    N37   S    
C31   C63   A    
C66   C82   A    
O45   Zn3   S    
O8    Zn13  S    
C212  H124  S    
C89   C193  A    
N34   H179  S    
C182  H12   S    
C164  C173  A    
C61   C127  S    
C24   C25   A    
C72   C84   A    
C201  H100  S    
O49   Zn7   S    
C170  H24   S    
O50   Zn8   S    
C211  C212  S    
C49   C115  S    
C21   C28   A    
C226  H158  S    
C22   C27   A    
N41   H194  S    
C183  C186  A    
C174  H20   S    
N47   H205  S    
C125  O43   A    
C214  H128  S    
O4    Zn9   S    
C126  O44   A    
C125  O33   A    
C94   C194  A    
C27   C134  A    
C225  H160  S    
C92   C196  A    
C23   C55   A    
N36   H183  S    
C118  O26   A    
C24   C56   A    
C226  H159  S    
C55   C113  S    
C186  H8    S    
C229  H171  S    
C37   C44   A    
N46   H204  S    
C38   C43   A    
C80   C88   A    
C155  C187  A    
C204  H102  S    
C190  H4    S    
C223  C224  S    
O24   Zn9   S    
O15   Zn6   S    
C116  O46   A    
C227  C228  S    
C70   C82   A    
O3    Zn10  S    
N32   H95   S    
C195  C196  A    
C147  C179  A    
C193  C194  A    
C219  H146  S    
C17   C32   A    
C105  O5    A    
C18   C31   A    
C191  H1    S    
C15   C103  A    
C213  H130  S    
C19   C30   A    
N29   H90   S    
C156  C188  A    
N7    H46   S    
C67   C83   A    
N17   H65   S    
C177  H15   S    
C208  H112  S    
N24   H79   S    
C119  O49   A    
C139  N11   S    
C220  H142  S    
C211  H126  S    
C154  C186  A    
C124  O38   A    
C225  H161  S    
C115  O45   A    
C17   C144  A    
N6    H44   S    
C18   C143  A    
O3    Zn7   S    
C180  C189  A    
C158  C190  A    
C168  H26   S    
C101  C197  A    
N5    H42   S    
O28   Zn13  S    
N22   H75   S    
C146  C178  A    
C11   C99   A    
N9    H50   S    
O36   Zn14  S    
O25   Zn12  S    
C161  H31   S    
O26   Zn11  S    
N30   H91   S    
C138  N10   S    
C209  H120  S    
C77   C97   A    
C229  H170  S    
C82   C108  S    
C33   C160  A    
C215  H136  S    
C34   C159  A    
C130  C162  A    
N2    H36   S    
C77   C85   A    
C67   C95   A    
C104  C200  A    
C37   C156  A    
C187  H5    S    
C25   C57   A    
C38   C155  A    
C127  O41   A    
C4    C7    A    
C69   C89   A    
C34   C64   A    
C32   C129  A    
C171  H21   S    
C154  N26   S    
O9    Zn16  S    
C71   C83   A    
N48   H208  S    
O10   Zn15  S    
C29   C61   A    
N30   H92   S    
C97   C197  A    
C36   C45   A    
C203  C204  S    
C32   C64   A    
C204  H104  S    
C17   C49   A    
C161  C176  A    
N12   H55   S    
O41   Zn4   S    
C162  C175  A    
O40   Zn1   S    
C207  H115  S    
N34   H180  S    
C203  H106  S    
C13   N45   S    
C228  H163  S    
N16   H64   S    
C79   C229  S    
C33   C63   A    
C15   N47   S    
C48   C145  A    
C144  C176  A    
C218  H139  S    
C230  H168  S    
C225  C226  S    
C129  C161  A    
C35   C61   A    
N20   H72   S    
C42   C151  A    
N37   H186  S    
C73   C85   A    
C37   C59   A    
C43   C150  A    
C36   C157  A    
C38   C60   A    
O44   Zn5   S    
C100  C200  A    
C75   C87   A    
N19   H70   S    
N38   H188  S    
O29   Zn11  S    
C202  H98   S    
C40   C153  A    
C2    C5    A    
N35   H181  S    
N8    H47   S    
O39   Zn2   S    
C220  H144  S    
N31   H94   S    
C131  N3    S    
C40   C41   A    
C12   N44   S    
C205  H110  S    
C20   C141  A    
C206  H109  S    
C156  N28   S    
N10   H51   S    
O43   Zn6   S    
C73   C217  S    
C232  H172  S    
C151  C183  A    
O42   Zn3   S    
C142  N14   S    
C24   C137  A    
C59   C125  S    
O1    Zn12  S    
C178  H16   S    
O2    Zn11  S    
C180  H14   S    
C88   C110  S    
C201  C202  S    
N44   H200  S    
C135  N7    S    
C73   C101  A    
N45   H202  S    
O35   Zn13  S    
N40   H192  S    
C197  C198  A    
O48   Zn2   S    
C142  C174  A    
C172  H22   S    
C44   C54   A    
C222  H147  S    
C111  O15   A    
N43   H197  S    
C135  C167  A    
C129  N1    S    
C78   C227  S    
C162  H32   S    
C76   C104  A    
C78   C86   A    
C119  O27   A    
C81   C107  S    
N28   H87   S    
C151  N23   S    
C23   C138  A    
C133  N5    S    
O20   Zn1   S    
C223  H155  S    
N47   H206  S    
C110  O18   A    
O11   Zn10  S    
N21   H74   S    
C188  H6    S    
C68   C96   A    
O46   Zn4   S    
O16   Zn5   S    
O47   Zn1   S    
C208  H113  S    
N14   H60   S    
N25   H82   S    
N33   H177  S    
C72   C92   A    
C3    N35   S    
O12   Zn9   S    
N43   H198  S    
C210  H117  S    
C192  H2    S    
C165  H27   S    
C214  H127  S    
C3    C91   A    
C23   C26   A    
C41   C55   A    
C42   C56   A    
C43   C53   A    
C149  N21   S    
C212  H123  S    
N18   H68   S    
C84   C106  S    
C134  C166  A    
C144  N16   S    
C121  O39   A    
C122  O40   A    
C74   C102  A    
C130  N2    S    
C123  O37   A    
C120  O50   A    
C221  H150  S    
C148  C180  A    
C177  C192  A    
C176  H18   S    
N41   H193  S    
C149  C181  A    
O32   Zn10  S    
C106  O10   A    
C213  H131  S    
N13   H58   S    
C181  C188  A    
C137  N9    S    
C39   C42   A    
C231  H175  S    
N1    H34   S    
C113  O21   A    
N3    H37   S    
C68   C84   A    
C159  C191  A    
C148  N20   S    
C160  C192  A    
C22   C54   A    
N36   H184  S    
C10   N42   S    
C107  O7    A    
O51   Zn5   S    
C1    C6    A    
O3    Zn14  S    
C140  N12   S    
C9    C14   A    
C132  C164  A    
O5    Zn12  S    
C133  C165  A    
O4    Zn8   S    
O6    Zn11  S    
C65   C81   A    
C46   C147  A    
C90   C194  A    
C12   C15   A    
C131  C163  A    
C179  H13   S    
O31   Zn9   S    
N23   H78   S    
C26   C58   A    
C128  O42   A    
N32   H96   S    
C158  N30   S    
C19   C142  A    
C30   C62   A    
N48   H207  S    
C16   N48   S    
C18   C50   A    
N29   H89   S    
N21   H73   S    
C232  H174  S    
N39   H190  S    
C155  N27   S    
N4    H39   S    
C206  H107  S    
C9    C97   A    
C93   C193  A    
N42   H196  S    
C85   C111  S    
N24   H80   S    
C184  H10   S    
C87   C109  S    
C141  N13   S    
C66   C203  S    
C44   C149  A    
C214  H129  S    
C139  C171  A    
C206  H108  S    
C35   C158  A    
N11   H53   S    
O4    Zn13  S    
C224  H154  S    
N5    H41   S    
C70   C211  S    
N15   H62   S    
N22   H76   S    
O2    Zn6   S    
N9    H49   S    
C12   C100  A    
C69   C81   A    
C201  H101  S    
N7    H45   S    
C71   C213  S    
C96   C196  A    
C71   C91   A    
C219  C220  S    
C166  H28   S    
C226  H157  S    
C106  O6    A    
C99   C199  A    
C205  C206  S    
C33   C48   A    
C218  H138  S    
C34   C47   A    
C21   C140  A    
C132  N4    S    
C35   C46   A    
C113  O47   A    
C4    C92   A    
C52   C118  S    
C21   C53   A    
N15   H61   S    
C215  C216  S    
C1    C89   A    
O1    Zn16  S    
C54   C120  S    
C138  C170  A    
O2    Zn15  S    
N23   H77   S    
C8    C96   A    
C213  C214  S    
O1    Zn1   S    
N31   H93   S    
C47   C49   A    
C41   C152  A    
C69   C209  S    
C184  C185  A    
C152  N24   S    
C153  C185  A    
C150  N22   S    
C159  N31   S    
N46   H203  S    
N27   H86   S    
C102  C198  A    
C6    N38   S    
N12   H56   S    
C167  H25   S    
C204  H103  S    
C57   C123  S    
C45   C51   A    
C111  O19   A    
N39   H189  S    
C39   C57   A    
C46   C52   A    
C91   C195  A    
C11   C16   A    
C72   C215  S    
C10   C98   A    
C25   C136  A    
C26   C135  A    
C51   C117  S    
N19   H69   S    
C123  O31   A    
C219  H145  S    
C78   C98   A    
O3    Zn3   S    
C222  H149  S    
C217  H141  S    
O4    Zn4   S    
O19   Zn2   S    
C152  C184  A    
C146  N18   S    
C228  H162  S    
C76   C88   A    
C137  C169  A    
C114  O48   A    
C66   C94   A    
O7    Zn14  S    
C121  O29   A    
C110  O14   A    
C165  C172  A    
C7    N39   S    
C166  C171  A    
N17   H66   S    
N18   H67   S    
O13   Zn4   S    
C141  C173  A    
C202  H99   S    
O14   Zn3   S    
C70   C90   A    
C63   C121  S    
C112  O20   A    
C167  C170  A    
C157  C189  A    
C20   C29   A    
C220  H143  S    
C128  O36   A    
C211  H125  S    
C221  H151  S    
O33   Zn15  S    
C98   C198  A    
O34   Zn16  S    
C108  O8    A    
C145  N17   S    
N42   H195  S    
N10   H52   S    
C224  H152  S    
C227  H166  S    
O1    Zn5   S    
C136  C168  A    
O2    Zn2   S    
O17   Zn8   S    
C8    N40   S    
O18   Zn7   S    
C2    N34   S    
N3    H38   S    
C117  O51   A    
C86   C112  S    
C216  H134  S    
C118  O52   A    
C117  O25   A    
C221  C222  S    
C11   N43   S    
C108  O12   A    
N45   H201  S    
C209  H121  S    
C217  H140  S    
C103  C199  A    
C74   C86   A    
C136  N8    S    
N11   H54   S    
C75   C221  S    
C218  H137  S    
C28   C60   A    
C215  H135  S    
C143  N15   S    
N2    H35   S    
C222  H148  S    
C68   C207  S    
C227  H165  S    
C207  H116  S    
C13   C101  A    
C134  N6    S    
N26   H83   S    
C67   C205  S    
C207  C208  S    
N37   H185  S    
C112  O16   A    
C147  N19   S    
C168  C169  A    
N28   H88   S    
C126  O34   A    
C116  O24   A    
C76   C223  S    
C163  H29   S    
C10   C13   A    
C5    C93   A    
C53   C119  S    
C223  H156  S    
C183  H9    S    
C7    C95   A    
C77   C225  S    
C58   C124  S    
C224  H153  S    
C181  H11   S    
C60   C126  S    
C20   C52   A    
C27   C59   A    
N25   H81   S    
C62   C128  S    
C178  C191  A    
C9    N41   S    
N16   H63   S    
C169  H23   S    
C179  C190  A    
C210  H118  S    
C64   C122  S    
C65   C93   A    
C230  H167  S    
C1    N33   S    
C50   C116  S    
C182  C187  A    
C217  C218  S    
C173  H19   S    
C228  H164  S    
C157  N29   S    
C109  O13   A    
C19   C51   A    
C115  O23   A    
N38   H187  S    
C140  C172  A    
C212  H122  S    
C203  H105  S    
C145  C177  A    
C56   C114  S    
C202  H97   S    
O30   Zn12  S    
C163  C174  A    
C80   C100  A    
C210  H119  S    
C153  N25   S    
