data_mof_unit_19721.cif
_audit_creation_date              2012-12-10T18:04:51-0500
_audit_creation_method            fapswitch 2.2
_symmetry_space_group_name_H-M    P1
_symmetry_Int_Tables_number       1
_space_group_crystal_system       triclinic
_cell_length_a                    10.840644
_cell_length_b                    9.592203
_cell_length_c                    17.874503
_cell_angle_alpha                 90.843052
_cell_angle_beta                  90.431579
_cell_angle_gamma                 88.574753
_cell_volume                      1857.86803482

loop_
_atom_site_label
_atom_site_type_symbol
_atom_type_description
_atom_site_fract_x
_atom_site_fract_y
_atom_site_fract_z
_atom_type_partial_charge
C1    C     C_R   0.262179 0.502455 0.499057 0.909976
C2    C     C_R   0.737538 0.498399 0.501176 0.913508
C3    C     C_1   0.492710 0.496523 0.965894 0.145438
C4    C     C_1   0.502720 0.498356 0.032870 0.148189
C5    C     C_R   0.064521 0.431319 0.443532 0.329382
C6    C     C_R   0.933026 0.586927 0.551553 0.342623
C7    C     C_R   0.937344 0.411053 0.450903 0.338901
C8    C     C_R   0.061724 0.599765 0.545844 0.318610
C9    C     C_R   0.503288 0.499491 0.355302 0.838611
C10   C     C_R   0.499487 0.500777 0.644484 0.856344
C11   C     C_R   0.871581 0.496049 0.502267 -0.365007
C12   C     C_R   0.127597 0.509425 0.497332 -0.348230
C13   C     C_R   0.446822 0.616911 0.847336 -0.103684
C14   C     C_R   0.530702 0.374418 0.151520 -0.107902
C15   C     C_R   0.502842 0.627653 0.153253 -0.127460
C16   C     C_R   0.523437 0.375046 0.845119 -0.123172
C17   C     C_R   0.443952 0.615191 0.768300 0.336804
C18   C     C_R   0.530203 0.374382 0.230241 0.344743
C19   C     C_R   0.505283 0.627705 0.232144 0.367864
C20   C     C_R   0.541637 0.383753 0.767542 0.358363
C21   C     C_R   0.496654 0.501206 0.727812 -0.277364
C22   C     C_R   0.511213 0.500081 0.271583 -0.287611
C23   C     C_R   0.440630 0.073672 0.444595 0.334215
C24   C     C_R   0.566979 0.924330 0.552393 0.364073
C25   C     C_R   0.571437 0.074114 0.549802 0.412358
C26   C     C_R   0.431665 0.925516 0.448529 0.427274
C27   C     C_R   0.483358 0.494879 0.885438 -0.166427
C28   C     C_R   0.514768 0.500607 0.113227 -0.160710
Cu1   Cu    Cu3+1 0.500000 0.640660 0.500000 1.056973
Cu2   Cu    Cu3+1 0.500000 0.359340 0.500000 1.035333
N1    N     N_R   0.500000 0.852070 0.500000 -0.277512
N2    N     N_R   0.500000 0.147930 0.500000 -0.275217
O1    O     O_R   0.319640 0.618740 0.499990 -0.547364
O2    O     O_R   0.680360 0.381260 0.500010 -0.537367
O3    O     O_R   0.680360 0.618740 0.500010 -0.541299
O4    O     O_R   0.319640 0.381260 0.499990 -0.597899
O5    O     O_R   0.500000 0.618830 0.391250 -0.515850
O6    O     O_R   0.500000 0.381170 0.608750 -0.525925
O7    O     O_R   0.500000 0.618830 0.608750 -0.505726
O8    O     O_R   0.500000 0.381170 0.391250 -0.504151
C29   C     C_2   0.408660 0.746345 0.888915 0.894209
O9    O     O_2   0.439217 0.860094 0.866322 -0.563324
O10   O     O_R   0.335025 0.738516 0.952529 -0.765745
H1    H     H_    0.313580 0.833717 0.974893 0.354781
C30   C     C_2   0.551050 0.240940 0.110006 0.913905
O11   O     O_2   0.490659 0.139348 0.125185 -0.511357
O12   O     O_R   0.643006 0.230348 0.055712 -0.770381
H2    H     H_    0.652673 0.132413 0.034128 0.335595
C31   C     C_2   0.487752 0.762061 0.113422 0.929802
O13   O     O_2   0.411618 0.849477 0.135102 -0.500958
O14   O     O_R   0.561892 0.789428 0.051927 -0.777412
H3    H     H_    0.543694 0.884770 0.030104 0.349387
C32   C     C_2   0.544985 0.239388 0.883107 0.956696
O15   O     O_2   0.472345 0.202232 0.930433 -0.577499
O16   O     O_R   0.645242 0.152209 0.863508 -0.738936
H4    H     H_    0.647754 0.062011 0.892403 0.337278
O17   O     O_3   0.389973 0.725866 0.730504 -0.566086
C33   C     C_3   0.260748 0.713922 0.733593 -0.205865
H5    H     H_    0.217840 0.805340 0.705592 0.209408
H6    H     H_    0.225576 0.715997 0.791832 0.137650
H7    H     H_    0.231035 0.616776 0.704671 0.173450
O18   O     O_3   0.549010 0.249780 0.266642 -0.501623
C34   C     C_3   0.676898 0.224416 0.274895 -0.171384
H8    H     H_    0.725272 0.317645 0.296748 0.172733
H9    H     H_    0.718735 0.188915 0.221165 0.133629
H10   H     H_    0.690711 0.139498 0.315564 0.177439
O19   O     O_3   0.499040 0.754005 0.270425 -0.481200
C35   C     C_3   0.619765 0.804154 0.279107 -0.152573
H11   H     H_    0.682393 0.726967 0.307141 0.102746
H12   H     H_    0.615562 0.899030 0.315245 0.189248
H13   H     H_    0.658829 0.833899 0.224437 0.135023
O20   O     O_3   0.603540 0.275698 0.730939 -0.512526
C36   C     C_3   0.729242 0.310185 0.726575 -0.160581
H14   H     H_    0.765535 0.360269 0.778739 0.126143
H15   H     H_    0.743222 0.378664 0.678022 0.144588
H16   H     H_    0.784986 0.212989 0.717793 0.185225
O21   O     O_3   0.428961 0.132614 0.375093 -0.500290
C37   C     C_3   0.305666 0.163570 0.356287 -0.027859
H17   H     H_    0.242425 0.169225 0.405054 0.122475
H18   H     H_    0.273511 0.087950 0.313557 0.159991
H19   H     H_    0.303657 0.265381 0.328034 0.210409
O22   O     O_3   0.637896 0.848786 0.603228 -0.529928
C38   C     C_3   0.614014 0.894238 0.677498 -0.063540
H20   H     H_    0.628129 0.804227 0.715037 0.170295
H21   H     H_    0.518023 0.935631 0.685890 0.184044
H22   H     H_    0.681103 0.973409 0.695666 0.177290
O23   O     O_3   0.656604 0.145475 0.592205 -0.515272
C39   C     C_3   0.776528 0.113480 0.565192 -0.280880
H23   H     H_    0.837703 0.200869 0.579889 0.158424
H24   H     H_    0.779048 0.099789 0.503379 0.160625
H25   H     H_    0.815572 0.018573 0.592068 0.171388
O24   O     O_3   0.369614 0.853413 0.392841 -0.471492
C40   C     C_3   0.240340 0.865528 0.403035 -0.240693
H26   H     H_    0.209586 0.947724 0.443831 0.064154
H27   H     H_    0.203612 0.765330 0.420640 0.185607
H28   H     H_    0.195298 0.886390 0.348363 0.152392
O25   O     O_3   0.125888 0.384519 0.380493 -0.616565
C41   C     C_3   0.102632 0.479389 0.322163 -0.344077
H29   H     H_    0.136040 0.584936 0.337010 0.159799
H30   H     H_    0.002981 0.484851 0.306831 0.189954
H31   H     H_    0.153904 0.442543 0.271875 0.189179
O26   O     O_3   0.865413 0.663480 0.604166 -0.529506
C42   C     C_3   0.898700 0.620549 0.677088 -0.283862
H32   H     H_    0.926994 0.508201 0.680180 0.111747
H33   H     H_    0.817713 0.636954 0.714021 0.165608
H34   H     H_    0.973953 0.685353 0.699833 0.185553
O27   O     O_3   0.873387 0.320894 0.403806 -0.582794
C43   C     C_3   0.936123 0.190189 0.395528 -0.298490
H35   H     H_    0.990962 0.159465 0.445966 0.133824
H36   H     H_    0.995260 0.189390 0.345140 0.207053
H37   H     H_    0.867552 0.108154 0.385952 0.132432
O28   O     O_3   0.124791 0.698254 0.587408 -0.584000
C44   C     C_3   0.080791 0.834585 0.570750 -0.287831
H38   H     H_    0.040196 0.844730 0.513510 0.132094
H39   H     H_    0.159293 0.906336 0.574957 0.159518
H40   H     H_    0.011914 0.870463 0.612805 0.188029

loop_
_geom_bond_atom_site_label_1
_geom_bond_atom_site_label_2
_ccdc_geom_bond_type
C2    O3    A    
O16   H4    S    
C34   H9    S    
C40   H26   S    
C29   O10   S    
C29   O9    D    
C14   C18   A    
O23   C39   S    
C13   C29   S    
O25   C41   S    
O17   C33   S    
C1    O1    A    
O21   C37   S    
C15   C31   S    
C15   C19   A    
O18   C34   S    
C8    O28   S    
C37   H18   S    
C9    C22   S    
C33   H6    S    
Cu1   O1    S    
C25   O23   S    
C43   H35   S    
Cu2   O6    S    
C36   H14   S    
C23   C26   A    
C31   O13   D    
C24   O22   S    
C16   C32   S    
C38   H20   S    
C35   H11   S    
C31   O14   S    
O27   C43   S    
C19   O19   S    
C16   C20   A    
C44   H40   S    
C2    O2    A    
C16   C27   A    
C30   O12   S    
C34   H10   S    
C26   N1    A    
C40   H27   S    
C36   H15   S    
C1    C12   S    
C2    C11   S    
O28   C44   S    
C4    C28   S    
C14   C30   S    
C32   O16   S    
C10   C21   S    
Cu2   O2    S    
O19   C35   S    
C19   C22   A    
C24   C25   A    
C5    C12   A    
C6    C11   A    
C5    C7    A    
C37   H17   S    
C18   O18   S    
C6    C8    A    
C33   H5    S    
C32   O15   D    
C9    O8    A    
C17   C21   A    
O14   H3    S    
C10   O7    A    
C7    C11   A    
O10   H1    S    
Cu1   Cu2   S    
O12   H2    S    
C39   H25   S    
C8    C12   A    
Cu1   O7    S    
C9    O5    A    
Cu2   O8    S    
C42   H33   S    
C23   O21   S    
C38   H21   S    
C39   H24   S    
O22   C38   S    
C40   H28   S    
C41   H30   S    
C36   H16   S    
C7    O27   S    
C3    C4    T    
C44   H38   S    
C20   C21   A    
C18   C22   A    
C13   C27   A    
C5    O25   S    
O20   C36   S    
Cu2   O4    S    
C41   H31   S    
Cu1   O3    S    
C43   H37   S    
C13   C17   A    
C10   O6    A    
C23   N2    A    
C3    C27   S    
C24   N1    A    
Cu1   N1    S    
Cu2   N2    S    
C37   H19   S    
C15   C28   A    
C33   H7    S    
C35   H13   S    
O24   C40   S    
C43   H36   S    
C42   H34   S    
C6    O26   S    
O26   C42   S    
C34   H8    S    
C30   O11   D    
C38   H22   S    
C39   H23   S    
C35   H12   S    
C41   H29   S    
Cu1   O5    S    
C42   H32   S    
C20   O20   S    
C14   C28   A    
C26   O24   S    
C1    O4    A    
C17   O17   S    
C44   H39   S    
C25   N2    A    
