data_mof_unit_18511.cif
_audit_creation_date              2013-03-05T15:43:18-0500
_audit_creation_method            fapswitch 2.2
_symmetry_space_group_name_H-M    P1
_symmetry_Int_Tables_number       1
_space_group_crystal_system       triclinic
_cell_length_a                    10.71513
_cell_length_b                    10.750556
_cell_length_c                    10.041107
_cell_angle_alpha                 88.257854
_cell_angle_beta                  89.35536
_cell_angle_gamma                 88.832285
_cell_volume                      1155.83115168

loop_
_atom_site_label
_atom_site_type_symbol
_atom_site_description
_atom_site_fract_x
_atom_site_fract_y
_atom_site_fract_z
_atom_type_partial_charge
O1    O     O_R   0.499980 0.319060 0.613040 -0.609059
O2    O     O_R   0.500020 0.319100 0.386900 -0.590926
C1    C     C_R   0.498443 0.262361 0.501610 0.963053
O3    O     O_R   0.316750 0.499980 0.613090 -0.648900
O4    O     O_R   0.316790 0.500020 0.386950 -0.586257
C2    C     C_R   0.261120 0.515680 0.501194 0.923209
Zn1   Zn    Zn3+2 0.499970 0.499970 0.650990 1.018834
Zn2   Zn    Zn3+2 0.500030 0.500030 0.349010 1.037010
O5    O     O_R   0.499980 0.680900 0.613100 -0.582203
O6    O     O_R   0.500020 0.680940 0.386960 -0.612797
O7    O     O_R   0.683210 0.499980 0.613050 -0.586383
O8    O     O_R   0.683250 0.500020 0.386910 -0.574113
C3    C     C_R   0.490573 0.736928 0.497980 0.967765
C4    C     C_R   0.740936 0.497771 0.500171 0.916663
H1    H     H_    0.115759 0.586155 0.297125 0.197081
C5    C     C_R   0.113245 0.557675 0.752890 -0.140566
H2    H     H_    0.195428 0.613804 0.760206 0.163425
C6    C     C_R   0.057674 0.514895 0.870647 -0.115305
H3    H     H_    0.100049 0.534630 0.965012 0.173225
C7    C     C_R   0.954345 0.439034 0.865655 0.012808
C8    C     C_R   0.897338 0.419541 0.742116 0.003816
C9    C     C_R   0.942386 0.482390 0.623757 0.035199
C10   C     C_R   0.062516 0.529274 0.628346 0.092682
C11   C     C_R   0.128823 0.540938 0.506836 -0.175611
C12   C     C_R   0.065602 0.561448 0.388176 -0.222668
C13   C     C_R   0.937171 0.558792 0.388647 0.313878
C14   C     C_R   0.875287 0.506039 0.502330 -0.239772
C15   C     C_2   0.459686 0.940859 0.388216 -0.091543
C16   C     C_2   0.445660 0.863203 0.493797 -0.394421
H4    H     H_    0.400644 0.896363 0.584236 0.180169
C17   C     C_2   0.431782 0.071058 0.409763 0.243034
C18   C     C_2   0.498449 0.129372 0.502425 -0.311001
C19   C     C_2   0.524113 0.596122 0.925476 0.292890
N1    N     N_2   0.501340 0.501330 0.852150 -0.209145
C20   C     C_2   0.491910 0.599226 0.071455 -0.173395
N2    N     N_2   0.501380 0.501360 0.147810 -0.197991
H5    H     H_    0.469438 0.687539 0.115608 0.197852
H6    H     H_    0.541281 0.423156 0.106963 0.187323
C21   C     C_1   0.589007 0.063828 0.587205 0.196760
N3    N     N_1   0.660109 0.008961 0.653529 -0.069860
N4    N     N_R   0.587649 0.701002 0.867848 0.247451
O9    O     O_R   0.690301 0.684107 0.799879 -0.328686
O10   O     O_R   0.553421 0.813361 0.898627 -0.379527
C22   C     C_1   0.414838 0.415018 0.899654 0.255460
N5    N     N_1   0.342916 0.343273 0.938495 -0.156401
C23   C     C_1   0.909224 0.380465 0.988109 0.269652
N6    N     N_1   0.873022 0.333454 0.085921 -0.147124
C24   C     C_1   0.808304 0.321104 0.737982 0.189495
N7    N     N_1   0.736931 0.242242 0.738296 -0.162753
N8    N     N_R   0.872192 0.618870 0.278993 0.230945
O11   O     O_R   0.791392 0.707671 0.302828 -0.360619
O12   O     O_R   0.916246 0.609697 0.158403 -0.400628
C25   C     C_1   0.531287 0.911359 0.269833 0.326108
N9    N     N_1   0.589785 0.889625 0.175560 -0.070645
N10   N     N_R   0.335818 0.133190 0.330965 0.234836
O13   O     O_R   0.262216 0.216386 0.383875 -0.376201
O14   O     O_R   0.307555 0.091092 0.215171 -0.356124

loop_
_geom_bond_atom_site_label_1
_geom_bond_atom_site_label_2
_geom_bond_distance
_ccdc_geom_bond_type
O4    Zn2   1.995847 S    
N8    O12   1.300473 A    
C10   C11   1.408525 A    
C15   C17   1.447522 S    
C16   H4    1.089591 S    
C4    C14   1.444585 S    
N4    O9    1.300432 A    
C6    C7    1.390683 A    
C20   N2    1.285851 D    
Zn2   O8    2.003966 S    
C15   C25   1.447290 S    
C8    C24   1.440992 S    
C2    C11   1.438720 S    
N10   O13   1.301879 A    
N2    H6    1.029671 S    
C19   N1    1.303819 D    
C19   N4    1.432604 S    
N10   O14   1.301511 A    
O1    Zn1   1.993196 S    
C25   N9    1.156587 T    
C11   C12   1.386813 A    
Zn1   O7    1.995848 S    
N4    O10   1.300461 A    
C13   C14   1.422419 A    
C1    C18   1.429476 S    
O3    Zn1   2.003965 S    
C17   N10   1.444883 S    
O3    C2    1.282822 A    
C15   C16   1.338351 D    
C19   C20   1.503276 S    
O8    C4    1.299832 A    
N8    O11   1.301449 A    
C5    C10   1.413460 A    
O2    C1    1.286976 A    
C9    C14   1.435824 A    
C13   N8    1.438728 S    
O4    C2    1.300902 A    
O7    C4    1.285723 A    
C7    C23   1.447080 S    
H1    C12   1.084089 S    
C22   N5    1.157621 T    
Zn1   O5    1.970575 S    
N1    C22   1.394927 S    
C7    C8    1.412049 A    
Zn2   O6    1.993196 S    
C6    H3    1.083897 S    
Zn2   N2    2.019777 S    
Zn1   N1    2.020586 S    
C3    C16   1.430596 S    
C21   N3    1.158056 T    
C18   C21   1.454987 S    
O5    C3    1.291107 A    
C23   N6    1.157468 T    
C24   N7    1.153205 T    
C20   H5    1.081568 S    
C12   C13   1.376977 A    
C8    C9    1.433002 A    
C5    C6    1.387959 A    
O2    Zn2   1.970575 S    
C9    C10   1.393653 A    
C17   C18   1.355608 D    
C5    H2    1.082024 S    
O1    C1    1.290736 A    
O6    C3    1.284919 A    
