data_mof_unit_35561.cif
_audit_creation_date              2012-12-10T16:51:14-0500
_audit_creation_method            fapswitch 2.2
_symmetry_space_group_name_H-M    P1
_symmetry_Int_Tables_number       1
_space_group_crystal_system       triclinic
_cell_length_a                    27.778386
_cell_length_b                    8.672291
_cell_length_c                    7.433163
_cell_angle_alpha                 102.974233
_cell_angle_beta                  93.963419
_cell_angle_gamma                 92.401094
_cell_volume                      1737.74027645

loop_
_atom_site_label
_atom_site_type_symbol
_atom_type_description
_atom_site_fract_x
_atom_site_fract_y
_atom_site_fract_z
_atom_type_partial_charge
C1    C     C_R   0.498543 0.199657 0.453205 0.892460
C2    C     C_R   0.501457 0.800343 0.546795 0.892447
C3    C     C_R   0.102267 0.498692 0.515893 -0.043165
C4    C     C_R   0.897752 0.501626 0.484277 -0.043169
C5    C     C_R   0.125213 0.354376 0.479351 -0.020747
C6    C     C_R   0.874808 0.645933 0.521044 -0.020691
C7    C     C_R   0.097330 0.211532 0.437681 -0.151777
C8    C     C_R   0.902692 0.788777 0.562925 -0.151832
C9    C     C_R   0.130795 0.642287 0.559212 -0.021431
C10   C     C_R   0.869225 0.358037 0.440728 -0.021364
C11   C     C_R   0.354642 0.498889 0.509250 -0.036435
C12   C     C_R   0.645358 0.501224 0.490779 -0.036444
C13   C     C_R   0.971513 0.353861 0.455046 0.043925
C14   C     C_R   0.028506 0.646464 0.545064 0.043946
C15   C     C_R   0.977205 0.647208 0.536256 0.045149
C16   C     C_R   0.022815 0.353112 0.464016 0.045159
C17   C     C_R   0.949056 0.500898 0.491759 0.068576
C18   C     C_R   0.050963 0.499423 0.508423 0.068568
C19   C     C_R   0.941541 0.212055 0.409941 -0.215979
C20   C     C_R   0.058478 0.788277 0.589921 -0.215907
C21   C     C_R   0.891550 0.214517 0.403292 -0.143744
C22   C     C_R   0.108470 0.785817 0.596486 -0.143710
C23   C     C_R   0.407494 0.499659 0.502838 0.798855
C24   C     C_R   0.592506 0.500361 0.497167 0.798785
C25   C     C_R   0.047266 0.210495 0.430309 -0.214127
C26   C     C_R   0.952754 0.789820 0.570237 -0.214203
C27   C     C_2   0.497843 0.031739 0.426806 -0.362819
C28   C     C_2   0.502157 0.968261 0.573195 -0.362827
C29   C     C_R   0.175834 0.356373 0.484199 0.535536
C30   C     C_R   0.824187 0.643931 0.516203 0.535380
C31   C     C_R   0.181310 0.638951 0.562854 0.539224
C32   C     C_R   0.818710 0.361363 0.437037 0.539194
C33   C     C_R   0.283657 0.518546 0.684598 -0.098304
C34   C     C_R   0.716313 0.478745 0.315168 -0.098419
C35   C     C_R   0.333767 0.519275 0.679502 -0.212718
C36   C     C_R   0.666202 0.477985 0.320240 -0.213068
C37   C     C_R   0.324508 0.477305 0.344534 -0.204483
C38   C     C_R   0.675522 0.525765 0.655806 -0.204887
C39   C     C_R   0.274487 0.476109 0.350080 -0.102252
C40   C     C_R   0.725545 0.527081 0.650289 -0.102062
C41   C     C_R   0.253998 0.496873 0.519885 0.363895
C42   C     C_R   0.746008 0.503410 0.480186 0.363323
Cu1   Cu    Cu3+1 0.505380 0.517380 0.684380 0.956531
Cu2   Cu    Cu3+1 0.494620 0.482620 0.315620 0.956522
H1    H     H_    0.339502 0.461257 0.211345 0.158265
H2    H     H_    0.660549 0.544138 0.789211 0.158509
H3    H     H_    0.462193 0.378196 0.948558 0.225771
H4    H     H_    0.537807 0.621805 0.051442 0.225828
H5    H     H_    0.251569 0.459685 0.222536 0.135848
H6    H     H_    0.748483 0.545800 0.778106 0.136439
H7    H     H_    0.114119 0.098960 0.409689 0.186500
H8    H     H_    0.885905 0.901346 0.591119 0.186604
H9    H     H_    0.732101 0.460338 0.183333 0.135195
H10   H     H_    0.267843 0.534682 0.816207 0.134468
H11   H     H_    0.955251 0.095765 0.378254 0.138607
H12   H     H_    0.044768 0.904578 0.621405 0.138493
H13   H     H_    0.029033 0.094633 0.397292 0.135486
H14   H     H_    0.970987 0.905682 0.603499 0.135588
H15   H     H_    0.493778 0.960039 0.285775 0.179851
H16   H     H_    0.506221 0.039961 0.714225 0.179836
N1    N     N_R   0.202612 0.497360 0.524426 -0.473974
N2    N     N_R   0.797402 0.502941 0.475699 -0.473836
N3    N     N_2   0.486510 0.456430 0.038510 -0.218503
N4    N     N_2   0.513490 0.543570 0.961490 -0.218477
O1    O     O_R   0.503500 0.286120 0.619780 -0.583098
O2    O     O_R   0.496500 0.713880 0.380220 -0.583097
O3    O     O_R   0.494410 0.256780 0.308360 -0.583353
O4    O     O_R   0.505590 0.743220 0.691640 -0.583363
O5    O     O_R   0.434810 0.514700 0.655690 -0.591923
O6    O     O_R   0.565190 0.485300 0.344310 -0.591952
O7    O     O_R   0.425720 0.485350 0.344280 -0.584418
O8    O     O_R   0.574280 0.514650 0.655720 -0.584405
O9    O     O_2   0.198166 0.218761 0.448514 -0.515295
O10   O     O_2   0.801861 0.781546 0.552087 -0.515549
O11   O     O_2   0.791083 0.224390 0.397111 -0.512607
O12   O     O_2   0.208944 0.775915 0.602604 -0.512303
H17   H     H_    0.643870 0.458844 0.190940 0.158996
H18   H     H_    0.356072 0.536050 0.808545 0.158593
H19   H     H_    0.870395 0.102494 0.368704 0.193210
H20   H     H_    0.129624 0.897844 0.630889 0.193157

loop_
_geom_bond_atom_site_label_1
_geom_bond_atom_site_label_2
_ccdc_geom_bond_type
Cu1   O8    S    
C8    C26   A    
C14   C18   A    
Cu2   O2    S    
C34   C42   A    
C41   N1    S    
C20   H12   S    
C32   O11   S    
C24   O6    A    
C39   C41   A    
Cu2   O7    S    
C19   C21   A    
C2    O4    A    
C36   H17   S    
H3    N3    S    
C30   O10   S    
C9    C22   A    
H4    N4    S    
C29   O9    S    
C33   H10   S    
C3    C18   A    
C11   C37   A    
C31   N1    A    
C1    O3    A    
Cu1   O4    S    
C1    O1    A    
Cu2   O6    S    
C12   C36   A    
C42   N2    S    
C40   C42   A    
Cu2   N3    S    
C25   H13   S    
Cu1   N4    S    
C5    C29   A    
C28   H16   S    
C10   C21   A    
C29   N1    A    
C13   C19   A    
C23   O7    A    
C4    C6    A    
C5    C7    A    
C15   C26   A    
C6    C8    A    
C3    C5    A    
C23   O5    A    
Cu1   Cu2   S    
C3    C9    A    
C14   C20   A    
Cu1   O1    S    
C21   H19   S    
C26   H14   S    
C4    C17   A    
C39   H5    S    
C20   C22   A    
C30   N2    A    
C4    C10   A    
C24   O8    A    
C19   H11   S    
C16   C25   A    
C15   C17   A    
C8    H8    S    
C6    C30   A    
C2    O2    A    
C12   C24   S    
C35   H18   S    
C7    C25   A    
C13   C17   A    
C33   C41   A    
C11   C35   A    
C7    H7    S    
C37   C39   A    
C27   H15   S    
C38   C40   A    
C31   O12   S    
C40   H6    S    
C11   C23   S    
C33   C35   A    
C34   C36   A    
C12   C38   A    
C38   H2    S    
C9    C31   A    
C22   H20   S    
N3    N4    D    
C10   C32   A    
C34   H9    S    
C16   C18   A    
C13   C16   A    
C27   C28   D    
C1    C27   S    
C14   C15   A    
Cu2   O3    S    
C2    C28   S    
C32   N2    A    
Cu1   O5    S    
C37   H1    S    
