data_mof_unit_19753.cif
_audit_creation_date              2012-12-10T17:33:02-0500
_audit_creation_method            fapswitch 2.2
_symmetry_space_group_name_H-M    P1
_symmetry_Int_Tables_number       1
_space_group_crystal_system       triclinic
_cell_length_a                    12.35937
_cell_length_b                    13.035157
_cell_length_c                    14.636659
_cell_angle_alpha                 93.177321
_cell_angle_beta                  109.627227
_cell_angle_gamma                 116.396843
_cell_volume                      1929.99381857

loop_
_atom_site_label
_atom_site_type_symbol
_atom_type_description
_atom_site_fract_x
_atom_site_fract_y
_atom_site_fract_z
_atom_type_partial_charge
C1    C     C_R   0.651791 0.715615 0.511057 0.764813
C2    C     C_R   0.909160 0.554984 0.899993 0.015428
C3    C     C_R   0.958218 0.674045 0.949790 0.070469
C4    C     C_R   0.997151 0.508054 0.924181 0.062470
C5    C     C_R   0.114757 0.568847 0.010988 0.015428
C6    C     C_R   0.167932 0.689568 0.048192 -0.238494
C7    C     C_R   0.091051 0.743391 0.018871 0.195218
C8    C     C_R   0.978763 0.407633 0.864633 -0.224966
C9    C     C_R   0.065923 0.363619 0.898180 -0.235897
C10   C     C_R   0.161559 0.409110 0.996598 0.144216
C11   C     C_R   0.177609 0.506747 0.057592 0.079312
C12   C     C_R   0.621253 0.519098 0.686719 0.806313
C13   C     C_R   0.234479 0.354113 0.036823 -0.215062
C14   C     C_R   0.311486 0.387230 0.138914 -0.217803
C15   C     C_R   0.233157 0.524695 0.163746 0.016512
C16   C     C_R   0.132966 0.953002 0.373648 0.178984
C17   C     C_R   0.251293 0.157052 0.467705 -0.148218
C18   C     C_R   0.734011 0.929526 0.575101 -0.206816
C19   C     C_R   0.823416 0.048069 0.590379 -0.153051
C20   C     C_R   0.923488 0.080022 0.555817 -0.162459
C21   C     C_R   0.935736 0.993564 0.504406 0.088388
C22   C     C_R   0.829960 0.876163 0.473945 0.037732
C23   C     C_R   0.344980 0.283861 0.484187 0.808565
C24   C     C_R   0.043174 0.019624 0.475515 -0.052183
C25   C     C_R   0.025549 0.933672 0.398649 0.039598
C26   C     C_R   0.900612 0.830980 0.348834 0.175169
C27   C     C_R   0.809521 0.799523 0.391555 -0.204657
C28   C     C_R   0.168596 0.125068 0.520638 -0.001435
C29   C     C_R   0.235959 0.068967 0.395564 0.142668
C30   C     C_R   0.737829 0.841785 0.518502 -0.104821
C31   C     C_R   0.250489 0.726886 0.586839 0.092534
C32   C     C_R   0.646666 0.339342 0.364714 0.024333
C33   C     C_R   0.714840 0.291428 0.337625 -0.273537
C34   C     C_R   0.379717 0.483806 0.313351 0.779252
C35   C     C_R   0.852979 0.342236 0.387591 0.129129
C36   C     C_R   0.922850 0.449063 0.465563 -0.081477
C37   C     C_R   0.844788 0.489601 0.492444 0.213989
C38   C     C_R   0.065326 0.523975 0.516253 -0.111258
C39   C     C_R   0.116425 0.644677 0.564249 0.078550
C40   C     C_R   0.034048 0.672534 0.596980 0.033227
C41   C     C_R   0.909795 0.578073 0.579932 0.172836
C42   C     C_R   0.159640 0.487362 0.523565 -0.003360
C43   C     C_R   0.335040 0.684028 0.585488 0.038808
C44   C     C_R   0.706254 0.551610 0.794526 -0.098749
C45   C     C_R   0.307461 0.467553 0.204690 -0.083964
C46   C     C_R   0.872931 0.721015 0.931374 -0.232640
C47   C     C_R   0.746677 0.660732 0.855518 0.041454
C48   C     C_R   0.775266 0.490324 0.828746 0.114428
Cu1   Cu    Cu3+1 0.416420 0.526630 0.522910 0.911278
Cu2   Cu    Cu3+1 0.583580 0.473370 0.477090 0.927027
H1    H     H_    0.228513 0.282709 0.990125 0.141954
H2    H     H_    0.660534 0.906897 0.605989 0.144374
H3    H     H_    0.984238 0.172490 0.564292 0.121714
H4    H     H_    0.816080 0.115645 0.630150 0.135147
H5    H     H_    0.715800 0.719145 0.353185 0.172248
H6    H     H_    0.436988 0.745970 0.603340 0.151485
H7    H     H_    0.132311 0.396458 0.505829 0.131501
H8    H     H_    0.541165 0.298007 0.324294 0.138228
H9    H     H_    0.656202 0.213226 0.276909 0.136696
H10   H     H_    0.365893 0.341618 0.167389 0.154661
H11   H     H_    0.051425 0.288176 0.850194 0.140273
H12   H     H_    0.904073 0.806370 0.975135 0.161161
H13   H     H_    0.268753 0.740762 0.103502 0.144261
H14   H     H_    0.902193 0.365295 0.790520 0.164407
N1    N     N_R   0.290690 0.566960 0.557640 -0.198096
N2    N     N_R   0.709100 0.433710 0.442970 -0.194569
O1    O     O_R   0.545970 0.684450 0.528810 -0.601863
O2    O     O_R   0.687130 0.639470 0.490120 -0.569344
O3    O     O_R   0.519670 0.535100 0.660030 -0.584760
O4    O     O_R   0.660830 0.490120 0.621340 -0.566174
O5    O     O_R   0.312870 0.360530 0.509880 -0.589273
O6    O     O_R   0.454030 0.315550 0.471190 -0.574658
O7    O     O_R   0.339170 0.509880 0.378660 -0.581771
O8    O     O_R   0.480330 0.464900 0.339970 -0.591037
C49   C     C_3   0.151768 0.873328 0.064317 -0.931886
H15   H     H_    0.258651 0.913928 0.112519 0.229680
H16   H     H_    0.141013 0.920971 0.004357 0.238300
H17   H     H_    0.102021 0.886342 0.110707 0.228971
C50   C     C_3   0.326256 0.097268 0.340909 -0.851059
H18   H     H_    0.428186 0.124935 0.394357 0.244093
H19   H     H_    0.295801 0.021492 0.281654 0.232057
H20   H     H_    0.323656 0.167735 0.302536 0.220355
C51   C     C_3   0.852399 0.759561 0.244894 -0.885658
H21   H     H_    0.756364 0.751825 0.197166 0.228068
H22   H     H_    0.919019 0.801378 0.206988 0.243651
H23   H     H_    0.836007 0.669335 0.248079 0.241355
C52   C     C_3   0.150426 0.850741 0.341678 -0.896599
H24   H     H_    0.126593 0.831705 0.260650 0.235345
H25   H     H_    0.088719 0.770608 0.361327 0.253163
H26   H     H_    0.254094 0.871347 0.382706 0.245373
C53   C     C_3   0.226995 0.197497 0.628351 -0.342601
C54   C     C_3   0.220087 0.122624 0.705618 -0.360833
C55   C     C_3   0.278875 0.200438 0.810466 -0.875668
H27   H     H_    0.384570 0.265588 0.832139 0.255758
H28   H     H_    0.224237 0.248227 0.812948 0.251892
H29   H     H_    0.271483 0.145391 0.865571 0.242929
H30   H     H_    0.117233 0.054863 0.689057 0.235740
H31   H     H_    0.277153 0.077065 0.704063 0.219168
H32   H     H_    0.334204 0.259290 0.652223 0.192161
H33   H     H_    0.186603 0.256563 0.635023 0.189896
C56   C     C_3   0.178760 0.574032 0.223929 -0.400743
C57   C     C_3   0.031629 0.486089 0.193506 -0.325257
C58   C     C_3   0.969000 0.534814 0.243357 -0.869933
H34   H     H_    0.025271 0.563231 0.325520 0.267512
H35   H     H_    0.968225 0.610932 0.213757 0.263191
H36   H     H_    0.865661 0.466335 0.225380 0.253572
H37   H     H_    0.974881 0.464518 0.111691 0.229397
H38   H     H_    0.021235 0.402398 0.212519 0.223347
H39   H     H_    0.229787 0.595497 0.305191 0.232297
H40   H     H_    0.191754 0.661157 0.213980 0.198328
C59   C     C_3   0.085062 0.782850 0.676498 -0.360240
C60   C     C_3   0.181113 0.788230 0.779162 -0.327309
C61   C     C_3   0.250934 0.908690 0.850982 -0.876643
H41   H     H_    0.322490 0.975997 0.826984 0.253163
H42   H     H_    0.177729 0.934611 0.853982 0.256524
H43   H     H_    0.306131 0.904926 0.927058 0.254919
H44   H     H_    0.126362 0.721842 0.814044 0.226762
H45   H     H_    0.256628 0.768306 0.771838 0.225781
H46   H     H_    0.127699 0.863589 0.650662 0.197755
H47   H     H_    0.000314 0.783874 0.686889 0.185559
C62   C     C_3   0.304382 0.858280 0.599532 -0.931901
H48   H     H_    0.343912 0.903533 0.678975 0.246966
H49   H     H_    0.386859 0.897186 0.574831 0.227555
H50   H     H_    0.228069 0.877328 0.551686 0.256191
C63   C     C_3   0.920774 0.281720 0.356569 -0.398508
C64   C     C_3   0.839217 0.184508 0.258524 -0.375923
C65   C     C_3   0.923307 0.139081 0.233828 -0.833409
H51   H     H_    0.007343 0.211386 0.223975 0.246604
H52   H     H_    0.962370 0.101711 0.294652 0.263066
H53   H     H_    0.861976 0.068584 0.163373 0.241180
H54   H     H_    0.755931 0.108377 0.265998 0.223882
H55   H     H_    0.799832 0.219770 0.195816 0.220991
H56   H     H_    0.008115 0.349331 0.347881 0.212900
H57   H     H_    0.951381 0.239830 0.416624 0.190138
C66   C     C_3   0.909026 0.532399 0.671468 -0.812840
H58   H     H_    0.828565 0.440137 0.653097 0.239457
H59   H     H_    0.001612 0.529568 0.710262 0.208394
H60   H     H_    0.902186 0.592740 0.722256 0.237714
C67   C     C_3   0.658051 0.713953 0.847754 -0.375308
C68   C     C_3   0.694634 0.818949 0.799616 -0.346864
C69   C     C_3   0.625251 0.887569 0.811753 -0.878278
H61   H     H_    0.517137 0.827816 0.783809 0.256256
H62   H     H_    0.663408 0.930854 0.891852 0.256540
H63   H     H_    0.644302 0.956862 0.769131 0.240007
H64   H     H_    0.802943 0.880330 0.834299 0.217019
H65   H     H_    0.665828 0.785623 0.719233 0.229876
H66   H     H_    0.552159 0.647681 0.807309 0.218229
H67   H     H_    0.669013 0.744200 0.924579 0.193191
C70   C     C_3   0.695523 0.356851 0.797910 -0.893273
H68   H     H_    0.686947 0.322426 0.723376 0.230368
H69   H     H_    0.737161 0.316529 0.854531 0.242846
H70   H     H_    0.593901 0.327257 0.792815 0.221453

loop_
_geom_bond_atom_site_label_1
_geom_bond_atom_site_label_2
_ccdc_geom_bond_type
C63   H57   S    
C66   H60   S    
C52   H24   S    
C64   C65   S    
C17   C29   A    
C35   C36   A    
C32   H8    S    
C4    C8    A    
C58   H36   S    
C18   H2    S    
C66   H58   S    
C67   H66   S    
C26   C27   A    
C56   C57   S    
C31   C43   A    
C46   H12   S    
C26   C51   S    
C9    H11   S    
C70   H68   S    
C36   C37   A    
C5    C11   A    
C3    C7    A    
C70   H69   S    
C5    C6    A    
C27   H5    S    
C41   C66   S    
C56   H39   S    
C1    O2    A    
C59   H46   S    
C18   C19   A    
C35   C63   S    
Cu2   O6    S    
C1    C30   S    
C62   H50   S    
C33   C35   A    
C13   H1    S    
C11   C15   A    
C59   C60   S    
C8    C9    A    
C42   N1    A    
C57   H38   S    
C18   C30   A    
C53   H33   S    
C14   C45   A    
Cu1   O1    S    
C9    C10   A    
C52   H26   S    
C44   C47   A    
C61   H43   S    
C55   H28   S    
Cu1   O3    S    
C13   C14   A    
C37   C41   A    
C42   H7    S    
C48   C70   S    
C60   C61   S    
C54   H30   S    
C40   C59   S    
C38   C39   A    
C67   H67   S    
C54   H31   S    
C23   O5    A    
C68   C69   S    
C31   C62   S    
C70   H70   S    
C68   H65   S    
C39   C40   A    
C50   H19   S    
C4    C5    A    
C7    C49   S    
C2    C48   A    
C25   C26   A    
C15   C56   S    
C59   H47   S    
C69   H62   S    
C6    H13   S    
C2    C4    A    
C49   H15   S    
C65   H52   S    
C16   C52   S    
C49   H16   S    
C51   H21   S    
C29   C50   S    
C64   H55   S    
C43   N1    A    
C37   N2    A    
C57   H37   S    
C58   H35   S    
C34   C45   S    
C17   C23   S    
C24   C25   A    
Cu2   N2    S    
C62   H48   S    
Cu1   N1    S    
C34   O8    A    
C19   H4    S    
C40   C41   A    
C51   H22   S    
C12   O3    A    
C8    H14   S    
C55   H29   S    
C22   C27   A    
C52   H25   S    
C63   C64   S    
Cu1   O7    S    
C69   H63   S    
C15   C45   A    
C65   H51   S    
C53   C54   S    
C32   N2    A    
C61   H41   S    
C63   H56   S    
C16   C25   A    
C66   H59   S    
C12   O4    A    
C46   C47   A    
C22   C30   A    
C17   C28   A    
C23   O6    A    
C24   C28   A    
C56   H40   S    
C20   H3    S    
C10   C13   A    
C68   H64   S    
C50   H20   S    
C67   C68   S    
C38   C42   A    
C6    C7    A    
C14   H10   S    
C55   H27   S    
C3    C46   A    
C32   C33   A    
C19   C20   A    
Cu2   O8    S    
C2    C3    A    
C16   C29   A    
C65   H53   S    
C12   C44   S    
C69   H61   S    
C60   H45   S    
C60   H44   S    
C64   H54   S    
C36   C38   A    
C54   C55   S    
C1    O1    A    
C31   C39   A    
C28   C53   S    
Cu2   O4    S    
C57   C58   S    
C49   H17   S    
C62   H49   S    
C10   C11   A    
C34   O7    A    
C50   H18   S    
C43   H6    S    
C51   H23   S    
C20   C21   A    
C33   H9    S    
Cu1   Cu2   S    
Cu1   O5    S    
C21   C24   A    
C47   C67   S    
C58   H34   S    
C53   H32   S    
C21   C22   A    
Cu2   O2    S    
C44   C48   A    
C61   H42   S    
