data_mof_unit_65947.cif
_audit_creation_date              2012-12-10T18:15:30-0500
_audit_creation_method            fapswitch 2.2
_symmetry_space_group_name_H-M    P1
_symmetry_Int_Tables_number       1
_space_group_crystal_system       triclinic
_cell_length_a                    21.394554
_cell_length_b                    29.190536
_cell_length_c                    29.184172
_cell_angle_alpha                 89.999912
_cell_angle_beta                  89.997121
_cell_angle_gamma                 90.000022
_cell_volume                      18226.0552614

loop_
_atom_site_label
_atom_site_type_symbol
_atom_type_description
_atom_site_fract_x
_atom_site_fract_y
_atom_site_fract_z
_atom_type_partial_charge
C1    C     C_R   0.000000 0.999993 0.086739 0.905807
C2    C     C_1   0.999996 0.999978 0.770576 0.003736
C3    C     C_3   0.310581 0.499575 0.499998 -0.052417
C4    C     C_1   0.000002 0.999993 0.137405 -0.229567
C5    C     C_1   0.999998 0.999993 0.862595 -0.229565
C6    C     C_1   0.500001 0.499993 0.637405 -0.229565
C7    C     C_1   0.499998 0.499993 0.362595 -0.229567
C8    C     C_3   0.292980 0.952143 0.080063 -0.400168
C9    C     C_3   0.238908 0.934363 0.109115 -0.868598
C10   C     C_3   0.707027 0.952285 0.919851 -0.400102
C11   C     C_3   0.761103 0.934557 0.890772 -0.868677
C12   C     C_3   0.706986 0.951660 0.079765 -0.400390
C13   C     C_1   0.500004 0.499978 0.729424 0.003736
C14   C     C_3   0.761041 0.933702 0.108719 -0.868360
C15   C     C_3   0.293007 0.951802 0.920149 -0.400318
C16   C     C_3   0.238948 0.933895 0.891166 -0.868430
C17   C     C_3   0.792980 0.452145 0.580064 -0.400167
C18   C     C_3   0.738908 0.434365 0.609116 -0.868602
C19   C     C_3   0.207015 0.452037 0.420001 -0.400217
C20   C     C_3   0.261084 0.434217 0.390971 -0.868544
C21   C     C_3   0.206998 0.451907 0.579916 -0.400272
C22   C     C_3   0.261060 0.434040 0.608920 -0.868488
C23   C     C_3   0.793007 0.451800 0.420150 -0.400319
C24   C     C_1   0.499996 0.499978 0.270576 0.003735
C25   C     C_3   0.738948 0.433893 0.391168 -0.868426
C26   C     C_1   0.000005 0.999977 0.271624 0.003223
C27   C     C_1   0.999995 0.999977 0.728376 0.003222
C28   C     C_1   0.500004 0.499977 0.771624 0.003222
C29   C     C_1   0.499995 0.499977 0.228376 0.003223
C30   C     C_1   0.000005 0.999980 0.321447 0.001540
C31   C     C_1   0.999995 0.999980 0.678553 0.001539
C32   C     C_1   0.500005 0.499980 0.821447 0.001539
C33   C     C_R   1.000000 0.999993 0.913261 0.905818
C34   C     C_1   0.499995 0.499980 0.178553 0.001540
C35   C     C_1   0.000004 0.999984 0.363649 -0.203458
C36   C     C_1   0.999996 0.999984 0.636351 -0.203459
C37   C     C_1   0.500004 0.499984 0.863649 -0.203459
C38   C     C_1   0.499996 0.499984 0.136351 -0.203458
C39   C     C_R   0.500000 0.086704 1.000000 0.920129
C40   C     C_R   1.000000 0.586704 0.500000 0.920130
C41   C     C_R   0.377342 0.997743 0.000002 0.893636
C42   C     C_R   0.622658 0.997743 0.999998 0.893640
C43   C     C_R   0.877342 0.497743 0.500002 0.893636
C44   C     C_R   0.500000 0.499993 0.586739 0.905816
C45   C     C_R   0.122658 0.497743 0.499999 0.893639
C46   C     C_R   0.500000 0.913186 0.000000 0.891212
C47   C     C_R   1.000000 0.413186 0.500000 0.891211
C48   C     C_R   1.000000 0.085654 0.500000 0.878820
C49   C     C_R   0.500000 0.585654 0.000000 0.878820
C50   C     C_R   0.000001 0.999988 0.414323 0.878936
C51   C     C_R   0.999999 0.999988 0.585677 0.878935
C52   C     C_R   0.500001 0.499988 0.914323 0.878935
C53   C     C_R   0.499999 0.499988 0.085677 0.878935
C54   C     C_R   0.122718 0.999945 0.999999 0.914215
C55   C     C_R   0.500000 0.499993 0.413261 0.905808
C56   C     C_R   0.877281 0.999945 0.000003 0.914214
C57   C     C_R   0.622718 0.499945 0.499999 0.914215
C58   C     C_R   0.377281 0.499945 0.500000 0.914214
C59   C     C_R   1.000000 0.914314 0.500000 0.878922
C60   C     C_R   0.500000 0.414314 0.000000 0.878922
C61   C     C_1   0.500000 0.137378 1.000000 -0.233126
C62   C     C_1   1.000000 0.637378 0.500000 -0.233126
C63   C     C_1   0.500000 0.179578 1.000000 0.000800
C64   C     C_1   1.000000 0.679578 0.500000 0.000800
C65   C     C_1   0.500000 0.229405 1.000000 0.004215
C66   C     C_1   0.000003 0.999985 0.179603 -0.001373
C67   C     C_1   1.000000 0.729405 0.500000 0.004215
C68   C     C_1   1.000000 0.771606 0.500000 0.003310
C69   C     C_1   0.500000 0.271606 1.000000 0.003310
C70   C     C_1   1.000000 0.821434 0.500000 0.001889
C71   C     C_1   0.500000 0.321434 1.000000 0.001889
C72   C     C_1   1.000000 0.863636 0.500000 -0.203421
C73   C     C_1   0.500000 0.363636 1.000000 -0.203421
C74   C     C_1   0.500000 0.862531 0.000000 -0.233528
C75   C     C_1   1.000000 0.362531 0.500000 -0.233528
C76   C     C_1   0.500000 0.820339 0.000000 -0.002218
C77   C     C_1   0.999997 0.999985 0.820397 -0.001370
C78   C     C_1   1.000000 0.320339 0.500000 -0.002218
C79   C     C_1   0.500000 0.770525 0.000000 0.003014
C80   C     C_1   1.000000 0.270525 0.500000 0.003014
C81   C     C_3   0.229587 0.021015 0.037785 -0.160588
C82   C     C_3   0.770413 0.021082 0.962253 -0.160605
C83   C     C_3   0.770405 0.020786 0.037912 -0.160535
C84   C     C_3   0.229595 0.020854 0.962126 -0.160553
C85   C     C_3   0.729587 0.521016 0.537785 -0.160588
C86   C     C_3   0.270412 0.520965 0.462186 -0.160579
C87   C     C_3   0.270406 0.520904 0.537845 -0.160563
C88   C     C_1   0.500003 0.499985 0.679603 -0.001370
C89   C     C_3   0.729595 0.520853 0.462126 -0.160553
C90   C     C_1   1.000000 0.228332 0.500000 0.002835
C91   C     C_1   0.500000 0.728332 0.000000 0.002835
C92   C     C_1   1.000000 0.178516 0.500000 0.001377
C93   C     C_1   0.500000 0.678516 0.000000 0.001377
C94   C     C_1   0.000000 0.136321 0.500000 -0.203565
C95   C     C_1   0.500000 0.636321 0.000000 -0.203565
C96   C     C_3   0.271421 0.042076 0.999911 -0.209752
C97   C     C_3   0.728579 0.042076 0.000166 -0.209755
C98   C     C_3   0.771421 0.542076 0.499910 -0.209752
C99   C     C_1   0.499997 0.499985 0.320397 -0.001373
C100  C     C_3   0.228579 0.542076 0.500032 -0.209751
C101  C     C_3   0.310433 0.997970 0.000006 -0.112998
C102  C     C_3   0.689567 0.997970 0.999991 -0.112998
C103  C     C_3   0.810433 0.497970 0.500006 -0.112998
C104  C     C_3   0.189567 0.497970 0.499996 -0.112998
C105  C     C_3   0.269330 0.977031 0.037386 0.176290
C106  C     C_3   0.730671 0.977097 0.962574 0.176283
C107  C     C_3   0.730662 0.976805 0.037244 0.176325
C108  C     C_3   0.269337 0.976871 0.962715 0.176315
C109  C     C_3   0.769330 0.477032 0.537386 0.176291
C110  C     C_1   0.000004 0.999978 0.229424 0.003735
C111  C     C_3   0.230669 0.476981 0.462644 0.176297
C112  C     C_3   0.230663 0.476921 0.537314 0.176309
C113  C     C_3   0.769337 0.476870 0.462716 0.176314
C114  C     C_3   0.228030 0.955244 0.000096 -0.186049
C115  C     C_3   0.771970 0.955244 0.999826 -0.186048
C116  C     C_3   0.728030 0.455244 0.500097 -0.186049
C117  C     C_3   0.271970 0.455243 0.499962 -0.186049
C118  C     C_3   0.189418 0.999575 0.000001 -0.052416
C119  C     C_3   0.810581 0.999575 0.000000 -0.052417
C120  C     C_3   0.689418 0.499575 0.500001 -0.052416
H1    H     H_    0.291017 0.077291 0.999836 0.146957
H2    H     H_    0.288793 0.538870 0.431446 0.136450
H3    H     H_    0.288782 0.538759 0.568614 0.136423
H4    H     H_    0.711218 0.538666 0.431332 0.136401
H5    H     H_    0.208888 0.919886 0.000171 0.146732
H6    H     H_    0.791112 0.919887 0.999688 0.146731
H7    H     H_    0.708888 0.419886 0.500173 0.146732
H8    H     H_    0.291112 0.419886 0.499934 0.146732
H9    H     H_    0.208695 0.963183 0.120389 0.257255
H10   H     H_    0.210408 0.909519 0.089264 0.259317
H11   H     H_    0.257623 0.916794 0.139938 0.254261
H12   H     H_    0.708983 0.077291 0.000303 0.146957
H13   H     H_    0.322905 0.922925 0.069405 0.203003
H14   H     H_    0.321544 0.976126 0.100897 0.222209
H15   H     H_    0.791319 0.963397 0.879552 0.257258
H16   H     H_    0.789598 0.909676 0.910581 0.259317
H17   H     H_    0.742392 0.917044 0.859915 0.254271
H18   H     H_    0.677100 0.923049 0.930455 0.203035
H19   H     H_    0.678466 0.976306 0.899057 0.222206
H20   H     H_    0.789548 0.908978 0.088723 0.259320
H21   H     H_    0.791250 0.962452 0.120174 0.257250
H22   H     H_    0.742308 0.915948 0.139432 0.254229
H23   H     H_    0.791017 0.577291 0.499834 0.146957
H24   H     H_    0.678412 0.975518 0.100737 0.222222
H25   H     H_    0.677063 0.922510 0.068923 0.202899
H26   H     H_    0.210444 0.909134 0.911120 0.259317
H27   H     H_    0.208735 0.962665 0.879766 0.257251
H28   H     H_    0.257677 0.916196 0.860421 0.254238
H29   H     H_    0.321577 0.975698 0.899216 0.222217
H30   H     H_    0.322932 0.922633 0.930936 0.202928
H31   H     H_    0.708695 0.463186 0.620390 0.257255
H32   H     H_    0.710408 0.409521 0.589266 0.259318
H33   H     H_    0.757623 0.416797 0.639940 0.254261
H34   H     H_    0.208983 0.577291 0.500061 0.146957
H35   H     H_    0.822905 0.422927 0.569407 0.203004
H36   H     H_    0.821544 0.476128 0.600898 0.222209
H37   H     H_    0.291298 0.463022 0.379658 0.257254
H38   H     H_    0.289583 0.409398 0.410854 0.259317
H39   H     H_    0.242365 0.416609 0.360171 0.254254
H40   H     H_    0.177088 0.422835 0.430699 0.202980
H41   H     H_    0.178450 0.475994 0.399136 0.222210
H42   H     H_    0.289563 0.409253 0.588997 0.259318
H43   H     H_    0.291272 0.462825 0.620281 0.257253
H44   H     H_    0.242334 0.416381 0.639690 0.254245
H45   H     H_    0.211206 0.038961 0.068501 0.136472
H46   H     H_    0.178429 0.475830 0.600818 0.222217
H47   H     H_    0.177073 0.422723 0.569169 0.202952
H48   H     H_    0.710444 0.409132 0.411122 0.259318
H49   H     H_    0.708736 0.462662 0.379766 0.257251
H50   H     H_    0.757677 0.416193 0.360422 0.254237
H51   H     H_    0.821577 0.475695 0.399217 0.222217
H52   H     H_    0.822932 0.422631 0.430938 0.202928
H53   H     H_    0.788795 0.039083 0.931570 0.136501
H54   H     H_    0.788781 0.038545 0.068737 0.136372
H55   H     H_    0.211218 0.038668 0.931333 0.136401
H56   H     H_    0.711206 0.538963 0.568500 0.136471
O1    O     O_R   1.000000 0.964340 0.063140 -0.600945
O2    O     O_R   1.000000 0.035640 0.936880 -0.602132
O3    O     O_R   0.500000 0.535640 0.563120 -0.602131
O4    O     O_R   0.500000 0.535640 0.436880 -0.602127
O5    O     O_R   0.093030 0.964340 0.000000 -0.624987
O6    O     O_R   0.906970 0.964340 0.000000 -0.624987
O7    O     O_R   0.593030 0.464340 0.500000 -0.624987
O8    O     O_R   0.406970 0.464340 0.500000 -0.624987
O9    O     O_R   0.093040 0.035640 0.000000 -0.620266
O10   O     O_R   0.906960 0.035640 0.000000 -0.620265
O11   O     O_R   0.593040 0.535640 0.500000 -0.620266
O12   O     O_R   1.000000 0.964340 0.936860 -0.600947
O13   O     O_R   0.406960 0.535640 0.500000 -0.620265
O14   O     O_R   0.500000 0.063090 0.964350 -0.596481
O15   O     O_R   0.500000 0.063090 0.035650 -0.596478
O16   O     O_R   1.000000 0.563090 0.464350 -0.596479
O17   O     O_R   1.000000 0.563090 0.535650 -0.596480
O18   O     O_R   0.406990 0.999940 0.964350 -0.624761
O19   O     O_R   0.593010 0.999940 0.035650 -0.624733
O20   O     O_R   0.593010 0.999940 0.964350 -0.624859
O21   O     O_R   0.406990 0.999940 0.035650 -0.624828
O22   O     O_R   0.906990 0.499940 0.464350 -0.624761
O23   O     O_R   0.500000 0.464340 0.563140 -0.600947
O24   O     O_R   0.093010 0.499940 0.535650 -0.624783
O25   O     O_R   0.093010 0.499940 0.464350 -0.624808
O26   O     O_R   0.906990 0.499940 0.535650 -0.624828
O27   O     O_R   0.500000 0.936790 0.964340 -0.605877
O28   O     O_R   0.500000 0.936790 0.035660 -0.605879
O29   O     O_R   1.000000 0.436790 0.464340 -0.605879
O30   O     O_R   1.000000 0.436790 0.535660 -0.605877
O31   O     O_R   0.052540 0.063140 0.500000 -0.592689
O32   O     O_R   0.947460 0.063140 0.500000 -0.592689
O33   O     O_R   0.552540 0.563140 0.000000 -0.592689
O34   O     O_R   0.500000 0.464340 0.436860 -0.600945
O35   O     O_R   0.447460 0.563140 0.000000 -0.592689
O36   O     O_R   0.052540 0.999990 0.436840 -0.592654
O37   O     O_R   0.947460 0.999990 0.563160 -0.592654
O38   O     O_R   0.947460 0.999990 0.436840 -0.592653
O39   O     O_R   0.052540 0.999990 0.563160 -0.592653
O40   O     O_R   0.552540 0.499990 0.936840 -0.592655
O41   O     O_R   0.447460 0.499990 0.063160 -0.592654
O42   O     O_R   0.447460 0.499990 0.936840 -0.592653
O43   O     O_R   0.552540 0.499990 0.063160 -0.592652
O44   O     O_R   0.052520 0.936840 0.500000 -0.592589
O45   O     O_R   0.947480 0.936840 0.500000 -0.592589
O46   O     O_R   0.552520 0.436840 0.000000 -0.592589
O47   O     O_R   0.447480 0.436840 0.000000 -0.592589
O48   O     O_R   1.000000 0.035640 0.063120 -0.602126
Zn1   Zn    Zn3+2 1.000000 0.952380 0.000000 0.948245
Zn2   Zn    Zn3+2 0.929860 0.999990 0.500000 0.965893
Zn3   Zn    Zn3+2 0.570140 0.499990 0.000000 0.965893
Zn4   Zn    Zn3+2 0.429860 0.499990 0.000000 0.965893
Zn5   Zn    Zn3+2 0.500000 0.452380 0.500000 0.948245
Zn6   Zn    Zn3+2 0.000000 0.047600 0.000000 0.955607
Zn7   Zn    Zn3+2 0.500000 0.547600 0.500000 0.955607
Zn8   Zn    Zn3+2 0.500000 0.999950 0.952390 0.939698
Zn9   Zn    Zn3+2 0.500000 0.999950 0.047610 0.939729
Zn10  Zn    Zn3+2 0.000000 0.499950 0.452390 0.939724
Zn11  Zn    Zn3+2 1.000000 0.499950 0.547610 0.939702
Zn12  Zn    Zn3+2 0.070140 0.999990 0.500000 0.965893

loop_
_geom_bond_atom_site_label_1
_geom_bond_atom_site_label_2
_ccdc_geom_bond_type
C25   H50   S    
C53   O43   A    
C87   H3    S    
C63   C65   S    
O4    Zn7   S    
C11   H15   S    
C98   H23   S    
C24   C99   S    
C55   O4    A    
C19   C20   S    
O24   Zn11  S    
C7    C55   S    
C8    C105  S    
C14   H22   S    
O25   Zn10  S    
C6    C88   T    
C9    H10   S    
C45   O24   A    
O9    Zn6   S    
C41   O18   A    
C115  H6    S    
C48   C94   S    
C96   H1    S    
C1    O48   A    
C19   H40   S    
C58   O8    A    
O29   Zn10  S    
C103  C113  S    
O8    Zn5   S    
O2    Zn6   S    
C85   C109  S    
C59   O44   A    
C84   C96   S    
O27   Zn8   S    
C22   H42   S    
C78   C80   S    
C91   C93   S    
C50   O38   A    
C100  H34   S    
C15   C16   S    
C60   C73   S    
C52   O40   A    
C85   H56   S    
C40   C62   S    
C48   O31   A    
C16   H26   S    
C19   H41   S    
C83   C119  S    
C69   C71   S    
C24   C29   T    
C16   H27   S    
C62   C64   T    
C85   C98   S    
C3    C117  S    
C109  C116  S    
O32   Zn2   S    
O26   Zn11  S    
C43   O26   A    
C1    O1    A    
C100  C104  S    
C23   H52   S    
O20   Zn8   S    
C41   C101  S    
C8    C9    S    
C54   O9    A    
C5    C33   S    
C86   H2    S    
C82   H53   S    
C13   C28   T    
C102  C106  S    
C2    C27   T    
O37   Zn2   S    
C33   O12   A    
C84   H55   S    
C86   C100  S    
O7    Zn5   S    
C79   C91   T    
C97   C102  S    
C59   C72   S    
C113  C116  S    
O11   Zn7   S    
C19   C111  S    
C51   O37   A    
C101  C108  S    
C46   O28   A    
C33   O2    A    
C14   H21   S    
C50   O36   A    
C93   C95   T    
C6    C44   S    
C21   C22   S    
C3    C86   S    
C101  C105  S    
C49   O35   A    
C82   C119  S    
C35   C50   S    
C18   H32   S    
C42   C102  S    
C44   O3    A    
O42   Zn4   S    
O36   Zn12  S    
O31   Zn12  S    
C81   C105  S    
C40   O17   A    
C9    H11   S    
C25   H48   S    
C53   O41   A    
C39   C61   S    
C89   C113  S    
O40   Zn3   S    
C47   O29   A    
C3    C87   S    
C67   C68   T    
C64   C67   S    
O18   Zn8   S    
C105  C114  S    
C28   C32   S    
C96   C101  S    
C41   O21   A    
O12   Zn1   S    
O22   Zn10  S    
C71   C73   T    
C39   O14   A    
O21   Zn9   S    
O47   Zn4   S    
C87   C112  S    
O5    Zn1   S    
C75   C78   T    
C27   C31   S    
C81   C118  S    
C116  H7    S    
C66   C110  S    
C21   H46   S    
C12   H24   S    
C60   O46   A    
O30   Zn11  S    
C16   H28   S    
C15   C108  S    
C85   C120  S    
C108  C114  S    
C29   C34   S    
O28   Zn9   S    
C45   C104  S    
O48   Zn6   S    
C23   C113  S    
C39   O15   A    
C90   C92   S    
C40   O16   A    
C89   C120  S    
C48   O32   A    
C58   O13   A    
C61   C63   T    
C17   C18   S    
C54   O5    A    
C102  C107  S    
C12   C107  S    
C32   C37   T    
C49   C95   S    
C42   O20   A    
C36   C51   S    
C46   C74   S    
C107  C115  S    
C114  C118  S    
C18   H33   S    
C7    C99   T    
C57   C120  S    
C30   C35   T    
C56   O10   A    
C84   C118  S    
C46   O27   A    
C14   H20   S    
C26   C30   S    
C115  C119  S    
O35   Zn4   S    
C54   C118  S    
C83   C97   S    
C37   C52   S    
C82   C97   S    
C10   C106  S    
C10   H19   S    
C74   C76   T    
O3    Zn7   S    
C18   H31   S    
C17   H35   S    
C60   O47   A    
C15   H29   S    
C21   C112  S    
C76   C79   S    
C104  C112  S    
C87   C100  S    
C20   H39   S    
C51   O39   A    
C114  H5    S    
C26   C110  T    
C47   O30   A    
O13   Zn7   S    
C8    H13   S    
C34   C38   T    
C59   O45   A    
O44   Zn12  S    
O39   Zn12  S    
C97   H12   S    
C12   C14   S    
C17   C109  S    
C8    H14   S    
C104  C111  S    
C70   C72   T    
O6    Zn1   S    
O16   Zn10  S    
O10   Zn6   S    
C89   H4    S    
C9    H9    S    
O15   Zn9   S    
O33   Zn3   S    
C89   C98   S    
C52   O42   A    
C21   H47   S    
C103  C109  S    
C106  C115  S    
C111  C117  S    
C1    C4    S    
C25   H49   S    
C22   H44   S    
O23   Zn5   S    
C47   C75   S    
C2    C77   S    
C20   H37   S    
C55   O34   A    
C4    C66   T    
C22   H43   S    
C57   O7    A    
C12   H25   S    
C92   C94   T    
C112  C117  S    
C38   C53   S    
C56   O6    A    
O46   Zn3   S    
C65   C69   T    
O45   Zn2   S    
C13   C88   S    
C56   C119  S    
O34   Zn5   S    
C83   C107  S    
C86   C111  S    
C43   O22   A    
O14   Zn8   S    
C82   C106  S    
C11   H17   S    
C42   O19   A    
O38   Zn2   S    
C117  H8    S    
C43   C103  S    
C57   O11   A    
C10   C11   S    
O41   Zn4   S    
O1    Zn1   S    
C3    C58   S    
C116  C120  S    
C84   C108  S    
C23   C25   S    
C23   H51   S    
C44   O23   A    
C45   O25   A    
C81   C96   S    
C83   H54   S    
C49   O33   A    
C68   C70   S    
C81   H45   S    
C31   C36   T    
O19   Zn9   S    
C20   H38   S    
C10   H18   S    
O43   Zn3   S    
C11   H16   S    
C17   H36   S    
C5    C77   T    
C80   C90   T    
O17   Zn11  S    
C15   H30   S    
C98   C103  S    
