data_mof_unit_38017.cif
_audit_creation_date              2012-12-11T15:59:49-0500
_audit_creation_method            fapswitch 2.2
_symmetry_space_group_name_H-M    P1
_symmetry_Int_Tables_number       1
_space_group_crystal_system       triclinic
_cell_length_a                    10.734732
_cell_length_b                    10.694547
_cell_length_c                    17.104599
_cell_angle_alpha                 99.986677
_cell_angle_beta                  99.743164
_cell_angle_gamma                 60.395861
_cell_volume                      1673.42843066

loop_
_atom_site_label
_atom_site_type_symbol
_atom_type_description
_atom_site_fract_x
_atom_site_fract_y
_atom_site_fract_z
_atom_type_partial_charge
C1    C     C_R   0.354527 0.777878 0.401803 0.543127
C2    C     C_R   0.862121 0.312983 0.335379 -0.009553
C3    C     C_R   0.318882 0.859873 0.168596 0.009427
C4    C     C_R   0.399090 0.368299 0.354054 0.573229
C5    C     C_R   0.454218 0.813980 0.212788 0.012295
C6    C     C_R   0.461212 0.823052 0.296538 0.022498
C7    C     C_R   0.205345 0.895597 0.287126 -0.144218
C8    C     C_R   0.195476 0.903425 0.207251 -0.137811
C9    C     C_R   0.582173 0.757933 0.176030 -0.125232
C10   C     C_R   0.712571 0.725785 0.221804 -0.106843
C11   C     C_R   0.716684 0.756239 0.304893 0.007445
C12   C     C_R   0.832076 0.231463 0.195490 0.016693
C13   C     C_R   0.591132 0.805698 0.341704 -0.091077
C14   C     C_R   0.338203 0.846743 0.331538 0.000584
C15   C     C_R   0.300386 0.276708 0.799671 -0.004052
C16   C     C_R   0.782351 0.371443 0.405816 0.555636
C17   C     C_R   0.426941 0.174718 0.762666 0.035181
C18   C     C_R   0.478864 0.222582 0.711322 0.035028
C19   C     C_R   0.249441 0.446850 0.707364 -0.145223
C20   C     C_R   0.211540 0.411345 0.770538 -0.141526
C21   C     C_R   0.507159 0.027989 0.778287 -0.087234
C22   C     C_R   0.645104 0.939119 0.754918 -0.110841
C23   C     C_R   0.834234 0.217108 0.275908 0.006870
C24   C     C_R   0.706323 0.995054 0.715773 -0.114707
C25   C     C_R   0.624486 0.135224 0.694253 -0.089254
C26   C     C_R   0.381632 0.352775 0.676417 -0.008341
C27   C     C_1   0.771482 0.367956 0.714797 -0.064403
C28   C     C_R   0.357938 0.769248 0.627507 0.540605
C29   C     C_1   0.815890 0.328989 0.780596 -0.050003
C30   C     C_1   0.339157 0.808873 0.709550 -0.057068
C31   C     C_1   0.313402 0.836266 0.777582 -0.064584
C32   C     C_R   0.944959 0.288820 0.099537 0.530902
C33   C     C_R   0.297237 0.269080 0.124585 0.549317
C34   C     C_R   0.930722 0.384483 0.317121 -0.129546
C35   C     C_R   0.292065 0.894845 0.086966 0.532370
C36   C     C_R   0.880278 0.300412 0.860166 0.555200
C37   C     C_R   0.279368 0.252537 0.876951 0.550544
C38   C     C_R   0.279468 0.883786 0.857369 0.545677
C39   C     C_R   0.407566 0.375715 0.600208 0.530020
C40   C     C_R   0.719777 0.411373 0.635888 0.534538
C41   C     C_1   0.355738 0.342190 0.273300 -0.013935
C42   C     C_1   0.324685 0.313027 0.205089 -0.032382
C43   C     C_R   0.899604 0.306908 0.177667 -0.001394
C44   C     C_2   0.849796 0.741896 0.353874 0.186017
C45   C     C_R   0.953333 0.377629 0.239072 -0.153549
C46   C     C_R   0.763363 0.169023 0.136438 -0.082919
C47   C     C_R   0.724432 0.072741 0.155535 -0.110175
C48   C     C_R   0.745918 0.043164 0.233783 -0.108671
C49   C     C_R   0.802002 0.112439 0.293522 -0.087580
Cr1   Cr    Cr6+3 0.608100 0.610860 0.522250 1.004705
Cr2   Cr    Cr6+3 0.288890 0.599990 0.488420 1.049554
Cr3   Cr    Cr6+3 0.603040 0.289190 0.489390 0.992865
Cr4   Cr    Cr6+3 0.053960 0.052250 0.967380 1.014476
Cr5   Cr    Cr6+3 0.059890 0.373160 0.992710 1.022042
Cr6   Cr    Cr6+3 0.373370 0.061690 0.991710 0.987075
H1    H     H_    0.961330 0.450476 0.362971 0.165095
H2    H     H_    0.735896 0.195212 0.075562 0.157294
H3    H     H_    0.010407 0.430569 0.226315 0.155865
H4    H     H_    0.679085 0.019651 0.109408 0.144571
H5    H     H_    0.714845 0.970076 0.248792 0.146047
H6    H     H_    0.822761 0.080080 0.352830 0.148560
H7    H     H_    0.109864 0.918959 0.313164 0.159283
H8    H     H_    0.582987 0.736797 0.111900 0.138719
H9    H     H_    0.088732 0.943634 0.175751 0.163270
H10   H     H_    0.851368 0.764016 0.418311 0.097553
H11   H     H_    0.808646 0.685019 0.191880 0.162817
H12   H     H_    0.595172 0.835494 0.405438 0.127891
H13   H     H_    0.175414 0.548023 0.682815 0.144734
H14   H     H_    0.465089 0.981194 0.809471 0.152474
H15   H     H_    0.113259 0.489548 0.796848 0.145895
H16   H     H_    0.705683 0.828321 0.769231 0.121979
H17   H     H_    0.815854 0.928905 0.700238 0.119052
H18   H     H_    0.676530 0.172754 0.663444 0.152626
O1    O     O_R   0.749810 0.499790 0.438040 -0.511977
O2    O     O_R   0.411730 0.181020 0.091530 -0.512302
O3    O     O_R   0.365010 0.944360 0.063320 -0.521783
O4    O     O_R   0.477660 0.726260 0.439290 -0.511371
O5    O     O_R   0.159380 0.906670 0.876210 -0.495270
O6    O     O_R   0.930820 0.177420 0.886730 -0.485391
O7    O     O_R   0.910360 0.395420 0.895720 -0.518363
O8    O     O_R   0.186010 0.361730 0.919870 -0.485669
O9    O     O_R   0.400000 0.173010 0.914630 -0.511730
O10   O     O_R   0.354140 0.936940 0.899340 -0.534475
O11   O     O_3   0.162410 0.162370 0.983930 -0.290708
O12   O     O_R   0.298970 0.468800 0.557390 -0.488113
O13   O     O_R   0.260150 0.743000 0.412270 -0.489968
O14   O     O_R   0.297740 0.466550 0.394720 -0.456426
O15   O     O_R   0.488080 0.253500 0.386430 -0.515368
O16   O     O_R   0.722670 0.303800 0.421940 -0.520436
O17   O     O_R   0.751130 0.502220 0.613520 -0.493258
O18   O     O_R   0.478890 0.728510 0.601960 -0.506868
O19   O     O_R   0.261470 0.745430 0.587750 -0.521460
O20   O     O_2   0.958922 0.705937 0.323046 -0.522602
O21   O     O_R   0.489400 0.255930 0.561910 -0.516754
O22   O     O_R   0.723890 0.306050 0.584610 -0.526370
O23   O     O_3   0.500010 0.500010 0.500020 -0.295442
O24   O     O_R   0.171100 0.914680 0.053100 -0.518914
O25   O     O_R   0.941680 0.184840 0.050710 -0.513076
O26   O     O_R   0.922080 0.403420 0.072610 -0.522963
O27   O     O_R   0.196880 0.369150 0.083850 -0.488462

loop_
_geom_bond_atom_site_label_1
_geom_bond_atom_site_label_2
_ccdc_geom_bond_type
C34   H1    S    
C38   O10   A    
C27   C29   T    
C1    O4    A    
C41   C42   T    
C19   C20   A    
C18   C26   A    
C20   H15   S    
Cr2   O12   S    
Cr5   O11   S    
C44   H10   S    
C7    C8    A    
C7    H7    S    
C4    O14   A    
C29   C36   S    
Cr4   O11   S    
C16   O1    A    
C33   C42   S    
Cr4   O6    S    
C12   C43   A    
Cr1   O1    S    
C30   C31   T    
C26   C39   S    
C23   C49   A    
C4    C41   S    
Cr3   O22   S    
C19   C26   A    
C15   C37   S    
C44   O20   D    
Cr1   O17   S    
C7    C14   A    
Cr3   O21   S    
C2    C16   S    
C9    C10   A    
Cr2   O23   S    
Cr6   O2    S    
C2    C34   A    
C16   O16   A    
C21   C22   A    
C37   O8    A    
Cr3   O16   S    
C18   C25   A    
Cr2   O13   S    
C33   O2    A    
C48   H5    S    
Cr5   O7    S    
C10   H11   S    
C15   C20   A    
C45   H3    S    
C35   O3    A    
C49   H6    S    
C19   H13   S    
C24   C25   A    
C12   C46   A    
C3    C8    A    
C36   O7    A    
Cr2   O14   S    
C38   O5    A    
Cr4   O24   S    
C17   C21   A    
C21   H14   S    
C39   O21   A    
C5    C9    A    
Cr2   O19   S    
C6    C14   A    
C47   C48   A    
C12   C23   A    
C3    C35   S    
C27   C40   S    
C17   C18   A    
C11   C44   S    
C28   O19   A    
C34   C45   A    
Cr6   O9    S    
C43   C45   A    
C8    H9    S    
Cr6   O3    S    
C48   C49   A    
C46   H2    S    
C22   C24   A    
Cr5   O26   S    
C39   O12   A    
C40   O22   A    
Cr6   O10   S    
Cr1   O4    S    
C22   H16   S    
C24   H17   S    
C13   H12   S    
C1    O13   A    
C15   C17   A    
C46   C47   A    
C9    H8    S    
C3    C5    A    
C36   O6    A    
C32   O26   A    
C4    O15   A    
Cr4   O25   S    
C31   C38   S    
C33   O27   A    
C28   C30   S    
Cr4   O5    S    
C6    C13   A    
C11   C13   A    
Cr1   O23   S    
C5    C6    A    
Cr5   O27   S    
C32   C43   S    
C32   O25   A    
Cr3   O23   S    
C28   O18   A    
C25   H18   S    
C37   O9    A    
Cr3   O15   S    
C10   C11   A    
C47   H4    S    
Cr1   O18   S    
C2    C23   A    
C1    C14   S    
C40   O17   A    
Cr6   O11   S    
C35   O24   A    
Cr5   O8    S    
