data_mof_unit_21289.cif
_audit_creation_date              2012-12-11T14:44:19-0500
_audit_creation_method            fapswitch 2.2
_symmetry_space_group_name_H-M    P1
_symmetry_Int_Tables_number       1
_space_group_crystal_system       triclinic
_cell_length_a                    19.344175
_cell_length_b                    10.974328
_cell_length_c                    18.709739
_cell_angle_alpha                 89.832043
_cell_angle_beta                  89.916843
_cell_angle_gamma                 90.359493
_cell_volume                      3971.7782588

loop_
_atom_site_label
_atom_site_type_symbol
_atom_type_description
_atom_site_fract_x
_atom_site_fract_y
_atom_site_fract_z
_atom_type_partial_charge
C1    C     C_R   0.710519 0.327724 0.139109 0.579477
C2    C     C_R   0.269204 0.383560 0.851235 0.591432
C3    C     C_R   0.230827 0.883454 0.148739 0.586427
C4    C     C_R   0.789385 0.827407 0.861136 0.580117
C5    C     C_R   0.484595 0.391355 0.933387 -0.060836
C6    C     C_R   0.472423 0.361442 0.079759 -0.089892
C7    C     C_R   0.027599 0.862924 0.919875 -0.089433
C8    C     C_R   0.015664 0.891423 0.066260 -0.061648
C9    C     C_R   0.029818 0.977716 0.948977 -0.056672
C10   C     C_R   0.028219 0.991771 0.022354 -0.063082
C11   C     C_R   0.472079 0.491130 0.977208 -0.063424
C12   C     C_R   0.470304 0.476409 0.050587 -0.056626
C13   C     C_R   0.716116 0.836628 0.045508 0.196030
C14   C     C_R   0.324135 0.947361 0.979509 0.144989
C15   C     C_R   0.175852 0.447598 0.020211 0.144053
C16   C     C_R   0.783543 0.337716 0.954891 0.195581
C17   C     C_R   0.717475 0.851519 0.971190 0.250613
C18   C     C_R   0.317258 0.937587 0.054371 0.203792
C19   C     C_R   0.182894 0.438024 0.945355 0.204067
C20   C     C_R   0.782339 0.352915 0.029097 0.249532
C21   C     C_R   0.782466 0.839881 0.939320 -0.011506
C22   C     C_R   0.252672 0.950423 0.084436 -0.016029
C23   C     C_R   0.247740 0.450236 0.915508 -0.014526
C24   C     C_R   0.717330 0.340263 0.060994 -0.012172
C25   C     C_R   0.839000 0.885882 0.978412 -0.108771
C26   C     C_R   0.204653 0.021899 0.048511 -0.125819
C27   C     C_R   0.296278 0.521373 0.951486 -0.125690
C28   C     C_R   0.660877 0.385588 0.021902 -0.109999
C29   C     C_R   0.827153 0.936221 0.046008 0.153689
C30   C     C_R   0.215244 0.053376 0.978046 0.105925
C31   C     C_R   0.285668 0.552975 0.021841 0.106992
C32   C     C_R   0.672821 0.436120 0.954200 0.152847
C33   C     C_R   0.764548 0.904711 0.083022 0.027179
C34   C     C_R   0.270603 0.003476 0.939221 -0.016810
C35   C     C_R   0.229710 0.503399 0.060582 -0.016664
C36   C     C_R   0.735203 0.404943 0.917189 0.027393
C37   C     C_R   0.535782 0.057015 0.477406 0.183784
C38   C     C_R   0.537128 0.072574 0.550988 0.178962
C39   C     C_R   0.035793 0.557019 0.477417 0.184738
C40   C     C_R   0.037146 0.572583 0.551000 0.178865
C41   C     C_R   0.505179 0.173605 0.580241 -0.000432
C42   C     C_R   0.518935 0.157887 0.432459 -0.001392
C43   C     C_R   0.005192 0.673611 0.580250 -0.001887
C44   C     C_R   0.018946 0.657887 0.432468 0.000019
C45   C     C_R   0.535772 0.152359 0.144202 0.555367
C46   C     C_R   0.470200 0.156316 0.851257 0.567763
C47   C     C_R   0.029819 0.656095 0.148707 0.566917
C48   C     C_R   0.964453 0.652496 0.855686 0.556608
C49   C     C_R   0.490096 0.274599 0.537062 -0.187358
C50   C     C_R   0.498233 0.267578 0.463469 -0.194942
C51   C     C_R   0.990109 0.774604 0.537070 -0.188103
C52   C     C_R   0.998244 0.767580 0.463476 -0.194210
C53   C     C_R   0.820294 0.945635 0.455436 -0.130741
C54   C     C_R   0.177184 0.902308 0.551805 -0.098020
C55   C     C_R   0.320276 0.445697 0.455454 -0.131799
C56   C     C_R   0.677170 0.402298 0.551814 -0.096577
C57   C     C_R   0.827842 0.919226 0.526752 -0.162010
C58   C     C_R   0.168588 0.880261 0.479431 -0.145857
C59   C     C_R   0.327829 0.419269 0.526765 -0.162190
C60   C     C_R   0.668576 0.380255 0.479438 -0.146470
C61   C     C_R   0.778358 0.848435 0.562694 0.027020
C62   C     C_R   0.225340 0.850228 0.436573 0.022039
C63   C     C_R   0.278351 0.348459 0.562702 0.028984
C64   C     C_R   0.725326 0.350183 0.436584 0.020295
C65   C     C_R   0.723588 0.794753 0.522488 0.180974
C66   C     C_R   0.290867 0.831981 0.469224 0.151643
C67   C     C_R   0.223580 0.294779 0.522499 0.182084
C68   C     C_R   0.790843 0.331876 0.469250 0.151628
C69   C     C_R   0.716956 0.822086 0.450181 -0.068804
C70   C     C_R   0.299137 0.859064 0.541052 -0.096695
C71   C     C_R   0.216946 0.322120 0.450194 -0.071338
C72   C     C_R   0.799111 0.358960 0.541079 -0.094463
C73   C     C_R   0.761510 0.905467 0.418357 -0.004892
C74   C     C_R   0.243584 0.902071 0.581276 0.001679
C75   C     C_R   0.261499 0.405507 0.418372 -0.007415
C76   C     C_R   0.743568 0.402028 0.581292 0.004692
C77   C     C_R   0.743411 0.966890 0.148923 0.565890
C78   C     C_R   0.272340 0.019667 0.860044 0.577502
C79   C     C_R   0.227791 0.519831 0.139735 0.578552
C80   C     C_R   0.756506 0.467073 0.851092 0.564353
C81   C     C_R   0.712842 0.333658 0.359943 0.557846
C82   C     C_R   0.288125 0.331956 0.640073 0.568302
C83   C     C_R   0.212848 0.833672 0.359942 0.556428
C84   C     C_R   0.788128 0.831950 0.640072 0.569250
C85   C     C_R   0.536487 0.155136 0.356385 0.559124
C86   C     C_R   0.469881 0.158840 0.648328 0.569366
C87   C     C_R   0.036495 0.655135 0.356391 0.559703
C88   C     C_R   0.969888 0.658841 0.648335 0.569576
C89   C     C_R   0.743027 0.967430 0.352298 0.538813
C90   C     C_R   0.257587 0.967279 0.647569 0.544680
C91   C     C_R   0.243023 0.467443 0.352303 0.544032
C92   C     C_R   0.757583 0.467267 0.647573 0.539591
C93   C     C_R   0.504673 0.167564 0.920008 -0.023537
C94   C     C_R   0.513569 0.151895 0.069065 -0.017894
C95   C     C_R   0.986821 0.652100 0.930787 -0.017642
C96   C     C_R   0.995451 0.667198 0.079874 -0.023267
C97   C     C_R   0.493944 0.273269 0.962676 -0.028309
C98   C     C_R   0.492131 0.261128 0.037582 -0.043487
C99   C     C_R   0.008033 0.761782 0.962162 -0.043143
C100  C     C_R   0.006253 0.773377 0.037080 -0.028184
C101  C     C_R   0.529350 0.049132 0.024983 0.207343
C102  C     C_R   0.527705 0.058574 0.950941 0.218687
C103  C     C_R   0.972440 0.557961 0.049039 0.218600
C104  C     C_R   0.971112 0.548753 0.975019 0.207699
Cr1   Cr    Cr6+3 0.772000 0.169640 0.250110 1.145915
Cr2   Cr    Cr6+3 0.228000 0.169640 0.749890 1.151341
Cr3   Cr    Cr6+3 0.272000 0.669640 0.250110 1.136723
Cr4   Cr    Cr6+3 0.728000 0.669640 0.749890 1.160674
Cr5   Cr    Cr6+3 0.614960 0.323350 0.249260 1.051910
Cr6   Cr    Cr6+3 0.385040 0.323350 0.750740 1.026426
Cr7   Cr    Cr6+3 0.114960 0.823350 0.249260 1.031332
Cr8   Cr    Cr6+3 0.885040 0.823350 0.750740 1.046566
Cr9   Cr    Cr6+3 0.616670 0.010620 0.250840 1.145231
Cr10  Cr    Cr6+3 0.383330 0.010620 0.749160 1.126145
Cr11  Cr    Cr6+3 0.116670 0.510620 0.250840 1.138046
Cr12  Cr    Cr6+3 0.883330 0.510620 0.749160 1.133885
H1    H     H_    0.858244 0.005805 0.431232 0.192691
H2    H     H_    0.132848 0.929726 0.583165 0.178417
H3    H     H_    0.358219 0.505889 0.431257 0.192577
H4    H     H_    0.632838 0.429748 0.583170 0.178824
H5    H     H_    0.870917 0.960893 0.554354 0.156482
H6    H     H_    0.117864 0.891085 0.456274 0.153683
H7    H     H_    0.370905 0.460935 0.554368 0.156531
H8    H     H_    0.617857 0.391116 0.456276 0.153045
H9    H     H_    0.674793 0.783487 0.419683 0.197207
H10   H     H_    0.350487 0.854574 0.563949 0.183722
H11   H     H_    0.174784 0.283517 0.419696 0.195306
H12   H     H_    0.850456 0.354427 0.563985 0.184448
H13   H     H_    0.493653 0.411909 0.877731 0.176538
H14   H     H_    0.461509 0.353931 0.136234 0.159821
H15   H     H_    0.038475 0.856099 0.863396 0.159593
H16   H     H_    0.006730 0.911362 0.121915 0.176957
H17   H     H_    0.031709 0.055562 0.913696 0.215640
H18   H     H_    0.032468 0.082005 0.045223 0.219328
H19   H     H_    0.468102 0.581509 0.954288 0.218310
H20   H     H_    0.468616 0.553854 0.085858 0.216029
H21   H     H_    0.887446 0.904139 0.951643 0.180322
H22   H     H_    0.157778 0.051581 0.074606 0.190777
H23   H     H_    0.343473 0.550886 0.925467 0.190118
H24   H     H_    0.612591 0.403513 0.048734 0.181239
H25   H     H_    0.469776 0.357015 0.560028 0.151790
H26   H     H_    0.486999 0.346673 0.430798 0.154115
H27   H     H_    0.969792 0.857021 0.560035 0.151423
H28   H     H_    0.987010 0.846673 0.430804 0.154535
O1    O     O_R   0.787540 0.042690 0.170470 -0.475333
O2    O     O_R   0.212460 0.042690 0.829530 -0.461917
O3    O     O_R   0.287540 0.542690 0.170470 -0.460216
O4    O     O_R   0.712460 0.542690 0.829530 -0.477444
O5    O     O_R   0.556540 0.252920 0.323970 -0.531297
O6    O     O_R   0.443460 0.252920 0.676030 -0.534036
O7    O     O_R   0.056540 0.752920 0.323970 -0.529365
O8    O     O_R   0.943460 0.752920 0.676030 -0.536165
O9    O     O_R   0.545870 0.051100 0.330840 -0.440583
O10   O     O_R   0.454130 0.051100 0.669160 -0.455334
O11   O     O_R   0.045870 0.551100 0.330840 -0.442757
O12   O     O_R   0.954130 0.551100 0.669160 -0.452745
O13   O     O_R   0.681340 0.959300 0.325510 -0.488219
O14   O     O_R   0.318660 0.959300 0.674490 -0.510576
O15   O     O_R   0.181340 0.459300 0.325510 -0.488083
O16   O     O_R   0.818660 0.459300 0.674490 -0.510468
O17   O     O_3   0.667880 0.167870 0.250070 -0.353660
O18   O     O_3   0.332120 0.167870 0.749930 -0.339863
O19   O     O_3   0.167880 0.667870 0.250070 -0.339176
O20   O     O_3   0.832120 0.667870 0.749930 -0.353872
O21   O     O_R   0.765660 0.292160 0.175050 -0.420003
O22   O     O_R   0.234340 0.292160 0.824950 -0.434253
O23   O     O_R   0.265660 0.792160 0.175050 -0.435566
O24   O     O_R   0.734340 0.792160 0.824950 -0.417860
O25   O     O_R   0.670190 0.408980 0.168550 -0.454085
O26   O     O_R   0.329810 0.408980 0.831450 -0.534084
O27   O     O_R   0.170190 0.908980 0.168550 -0.533032
O28   O     O_R   0.829810 0.908980 0.831450 -0.454506
O29   O     O_R   0.556580 0.251450 0.175160 -0.549243
O30   O     O_R   0.443420 0.251450 0.824840 -0.532977
O31   O     O_R   0.056580 0.751450 0.175160 -0.530458
O32   O     O_R   0.943420 0.751450 0.824840 -0.551471
O33   O     O_R   0.545920 0.049510 0.170320 -0.425823
O34   O     O_R   0.454080 0.049510 0.829680 -0.432022
O35   O     O_R   0.045920 0.549510 0.170320 -0.434949
O36   O     O_R   0.954080 0.549510 0.829680 -0.423282
O37   O     O_R   0.681390 0.957840 0.176710 -0.462965
O38   O     O_R   0.318610 0.957840 0.823290 -0.458936
O39   O     O_R   0.181390 0.457840 0.176710 -0.460432
O40   O     O_R   0.818610 0.457840 0.823290 -0.461631
O41   O     O_R   0.787500 0.044280 0.330990 -0.507022
O42   O     O_R   0.212500 0.044280 0.669010 -0.477341
O43   O     O_R   0.287500 0.544280 0.330990 -0.503481
O44   O     O_R   0.712500 0.544280 0.669010 -0.481013
O45   O     O_R   0.765610 0.293630 0.323860 -0.431028
O46   O     O_R   0.234390 0.293630 0.676140 -0.417265
O47   O     O_R   0.265610 0.793630 0.323860 -0.436857
O48   O     O_R   0.734390 0.793630 0.676140 -0.411278
O49   O     O_R   0.670140 0.410570 0.329080 -0.488663
O50   O     O_R   0.329860 0.410570 0.670920 -0.513154
O51   O     O_R   0.170140 0.910570 0.329080 -0.500988
O52   O     O_R   0.829860 0.910570 0.670920 -0.500748
Br1   Br    Br    0.548434 0.887703 0.060683 -0.249308
Br2   Br    Br    0.554621 0.917044 0.891212 -0.238791
Br3   Br    Br    0.944700 0.416052 0.108959 -0.245628
Br4   Br    Br    0.952286 0.387055 0.939641 -0.248068
Br5   Br    Br    0.650974 0.694167 0.559469 -0.400257
Br6   Br    Br    0.373982 0.780979 0.421483 -0.406845
Br7   Br    Br    0.150969 0.194183 0.559478 -0.400107
Br8   Br    Br    0.873950 0.280786 0.421530 -0.405353
Br9   Br    Br    0.673255 0.700260 0.092700 -0.321932
Br10  Br    Br    0.396439 0.857368 0.935850 -0.356104
Br11  Br    Br    0.102800 0.357436 0.063871 -0.356928
Br12  Br    Br    0.825880 0.201722 0.908233 -0.319329
Br13  Br    Br    0.693247 0.018008 0.949079 -0.439113
Br14  Br    Br    0.392926 0.933164 0.119930 -0.350232
Br15  Br    Br    0.107434 0.433151 0.879505 -0.340381
Br16  Br    Br    0.807027 0.519908 0.050605 -0.446063
Br17  Br    Br    0.885004 0.074295 0.069248 -0.404977
Br18  Br    Br    0.150549 0.162517 0.939821 -0.448808
Br19  Br    Br    0.350998 0.661961 0.060277 -0.444343
Br20  Br    Br    0.615963 0.574602 0.931149 -0.407283
Br21  Br    Br    0.547483 0.891994 0.444523 -0.349515
Br22  Br    Br    0.583319 0.959114 0.613208 -0.335116
Br23  Br    Br    0.047463 0.391992 0.444538 -0.350716
Br24  Br    Br    0.083349 0.459145 0.613228 -0.339814

loop_
_geom_bond_atom_site_label_1
_geom_bond_atom_site_label_2
_ccdc_geom_bond_type
C58   C62   A    
Cr9   O33   S    
C62   C83   S    
C101  C102  A    
C56   C76   A    
C48   C95   S    
C55   C59   A    
C68   Br8   S    
C88   O8    A    
C14   C18   A    
C25   H21   S    
C28   H24   S    
C37   Br21  S    
C6    H14   S    
C3    O27   A    
C97   C98   A    
Cr6   O18   S    
C3    O23   A    
C55   H3    S    
C15   C19   A    
C41   C86   S    
Cr4   O20   S    
C70   H10   S    
C52   H28   S    
C57   C61   A    
C7    C99   A    
C46   O34   A    
C72   H12   S    
Cr7   O31   S    
C43   C88   S    
C32   C36   A    
C83   O47   A    
C18   Br14  S    
C4    C21   S    
C5    C11   A    
C17   Br13  S    
C86   O6    A    
C6    C12   A    
C53   H1    S    
Cr10  O18   S    
C67   C71   A    
C31   Br19  S    
C94   C98   A    
C95   C99   A    
C29   C33   A    
C101  Br1   S    
Cr1   O41   S    
C37   C42   A    
C60   H8    S    
C38   Br22  S    
Cr8   O52   S    
C20   Br16  S    
C47   O35   A    
C103  C104  A    
C54   C74   A    
C40   C43   A    
Cr9   O37   S    
C20   C24   A    
C94   C101  A    
C79   O39   A    
Cr10  O34   S    
C49   H25   S    
C8    H16   S    
C77   O37   A    
C47   C96   S    
Cr8   O8    S    
Cr5   O49   S    
C23   C27   A    
C44   C87   S    
C9    C10   A    
C2    O22   A    
C91   O15   A    
C72   C76   A    
C55   C75   A    
C44   C52   A    
Cr4   O44   S    
C5    H13   S    
Cr4   O24   S    
C69   H9    S    
C87   O7    A    
C40   Br24  S    
C59   H7    S    
C104  Br4   S    
C71   H11   S    
C84   O52   A    
Cr8   O28   S    
C81   O49   A    
Cr10  O14   S    
C45   C94   S    
C13   Br9   S    
C41   C49   A    
Cr5   O25   S    
C56   H4    S    
Cr3   O23   S    
Cr6   O30   S    
C25   C29   A    
Cr8   O20   S    
C63   C67   A    
C58   H6    S    
C82   O50   A    
C30   C34   A    
C63   C82   S    
C27   C31   A    
C51   C52   A    
C6    C98   A    
C10   H18   S    
Cr6   O50   S    
C28   C32   A    
Cr7   O19   S    
Cr2   O42   S    
C38   C41   A    
Cr1   O17   S    
C36   C80   S    
C84   O48   A    
C39   C40   A    
C83   O51   A    
C62   C66   A    
C79   O3    A    
C90   O42   A    
C3    C22   S    
C26   H22   S    
Cr10  O38   S    
C57   H5    S    
C17   C21   A    
C56   C60   A    
Cr11  O15   S    
C68   C72   A    
C78   O38   A    
C66   Br6   S    
C90   O14   A    
C19   C23   A    
C70   C74   A    
C37   C38   A    
C11   H19   S    
C30   Br18  S    
Cr3   O3    S    
C103  Br3   S    
C93   C97   A    
C29   Br17  S    
C99   C100  A    
C1    O21   A    
Cr5   O5    S    
C16   C20   A    
Cr1   O1    S    
C46   O30   A    
C42   C85   S    
C85   O9    A    
C69   C73   A    
C81   O45   A    
C76   C92   S    
Cr6   O26   S    
C34   C78   S    
Cr8   O32   S    
C42   C50   A    
C26   C30   A    
C51   H27   S    
C14   Br10  S    
Cr12  O16   S    
C12   H20   S    
C49   C50   A    
C19   Br15  S    
C27   H23   S    
Cr2   O46   S    
Cr3   O47   S    
C88   O12   A    
C64   C68   A    
C77   O1    A    
C48   O36   A    
C95   C104  A    
C54   C58   A    
C39   Br23  S    
C7    C9    A    
Cr12  O36   S    
C21   C25   A    
C53   C57   A    
C4    O28   A    
Cr11  O11   S    
C18   C22   A    
C4    O24   A    
C89   O41   A    
Cr12  O20   S    
C53   C73   A    
C24   C28   A    
C80   O40   A    
Cr9   O9    S    
Cr6   O6    S    
C61   C84   S    
Cr7   O7    S    
C93   C102  A    
C14   C34   A    
Cr11  O39   S    
C11   C12   A    
C92   O44   A    
C89   O13   A    
C39   C44   A    
C87   O11   A    
C75   C91   S    
C85   O5    A    
C15   C35   A    
C96   C100  A    
C59   C63   A    
Cr2   O2    S    
C60   C64   A    
C33   C77   S    
C92   O16   A    
C74   C90   S    
C54   H2    S    
C86   O10   A    
C73   C89   S    
C7    H15   S    
C2    O26   A    
Cr11  O19   S    
Cr5   O17   S    
C16   C36   A    
C71   C75   A    
C45   O33   A    
C43   C51   A    
C66   C70   A    
C46   C93   S    
Cr2   O22   S    
C65   C69   A    
Cr12  O40   S    
C31   C35   A    
C35   C79   S    
Cr1   O45   S    
Cr1   O21   S    
C102  Br2   S    
C5    C97   A    
Cr5   O29   S    
Cr2   O18   S    
C8    C100  A    
C82   O46   A    
C15   Br11  S    
C64   C81   S    
Cr12  O12   S    
C67   Br7   S    
C78   O2    A    
C47   O31   A    
Cr9   O17   S    
C13   C17   A    
C32   Br20  S    
C61   C65   A    
C45   O29   A    
C80   O4    A    
C65   Br5   S    
C1    C24   S    
C8    C10   A    
C13   C33   A    
C22   C26   A    
C96   C103  A    
C1    O25   A    
C2    C23   S    
C16   Br12  S    
Cr4   O48   S    
Cr3   O43   S    
Cr3   O19   S    
Cr9   O13   S    
C91   O43   A    
Cr10  O10   S    
Cr11  O35   S    
C50   H26   S    
Cr7   O51   S    
C48   O32   A    
Cr4   O4    S    
Cr7   O27   S    
C9    H17   S    
