data_mof_unit_57260.cif
_audit_creation_date              2012-12-11T14:30:02-0500
_audit_creation_method            fapswitch 2.2
_symmetry_space_group_name_H-M    P1
_symmetry_Int_Tables_number       1
_space_group_crystal_system       triclinic
_cell_length_a                    12.614611
_cell_length_b                    12.613378
_cell_length_c                    27.119501
_cell_angle_alpha                 90.187241
_cell_angle_beta                  89.847148
_cell_angle_gamma                 120.011749
_cell_volume                      3736.48757697

loop_
_atom_site_label
_atom_site_type_symbol
_atom_type_description
_atom_site_fract_x
_atom_site_fract_y
_atom_site_fract_z
_atom_type_partial_charge
C1    C     C_R   0.556989 0.457273 0.821983 0.589634
C2    C     C_R   0.899992 0.442649 0.677971 0.587857
C3    C     C_R   0.542651 0.100039 0.822047 0.585043
C4    C     C_R   0.557349 0.457116 0.677945 0.586257
C5    C     C_R   0.900685 0.443697 0.821800 0.584060
C6    C     C_R   0.542774 0.099872 0.677987 0.587883
C7    C     C_R   0.457141 0.557393 0.322058 0.586757
C8    C     C_R   0.442937 0.899850 0.177991 0.587830
C9    C     C_R   0.099924 0.542818 0.322019 0.586614
C10   C     C_R   0.457184 0.557188 0.177868 0.588756
C11   C     C_R   0.442701 0.900062 0.322020 0.586509
C12   C     C_R   0.100848 0.543003 0.177721 0.588003
C13   C     C_R   0.999701 0.503493 0.973006 0.001334
C14   C     C_R   0.504355 0.003851 0.526082 0.000821
C15   C     C_R   0.498621 0.494319 0.973768 0.005618
C16   C     C_R   0.995695 0.500143 0.526039 0.000889
C17   C     C_R   0.505647 0.006310 0.974180 0.000831
C18   C     C_R   0.499792 0.495481 0.526060 0.000865
C19   C     C_R   0.500211 0.995802 0.473954 0.000858
C20   C     C_R   0.009406 0.507630 0.025083 0.001952
C21   C     C_R   0.495455 0.499868 0.473953 0.000873
C22   C     C_R   0.501429 0.996552 0.026241 0.001492
C23   C     C_R   0.003871 0.504376 0.473914 0.000806
C24   C     C_R   0.495473 0.497541 0.025957 0.003100
C25   C     C_R   0.005589 0.698783 0.974122 -0.116833
C26   C     C_R   0.698196 0.006614 0.525273 -0.118209
C27   C     C_R   0.303587 0.304604 0.973952 -0.118720
C28   C     C_R   0.994428 0.692001 0.525980 -0.118218
C29   C     C_R   0.683921 0.980710 0.972908 -0.125306
C30   C     C_R   0.308431 0.301868 0.525501 -0.117713
C31   C     C_R   0.691963 0.994357 0.474087 -0.118272
C32   C     C_R   0.019716 0.705102 0.025162 -0.123003
C33   C     C_R   0.301999 0.308344 0.474361 -0.117692
C34   C     C_R   0.678249 0.968514 0.024042 -0.118197
C35   C     C_R   0.006808 0.698318 0.474802 -0.118057
C36   C     C_R   0.297777 0.310768 0.025170 -0.119765
C37   C     C_R   0.965893 0.583112 0.896160 0.189340
C38   C     C_R   0.610562 0.025885 0.604253 0.179630
C39   C     C_R   0.413624 0.389574 0.895289 0.178586
C40   C     C_R   0.974469 0.584423 0.604565 0.179613
C41   C     C_R   0.610325 0.026350 0.895568 0.183121
C42   C     C_R   0.415922 0.389162 0.604301 0.180041
C43   C     C_R   0.584531 0.974612 0.395454 0.179615
C44   C     C_R   0.031882 0.613283 0.103700 0.181496
C45   C     C_R   0.389296 0.415953 0.395638 0.179965
C46   C     C_R   0.581550 0.965544 0.103656 0.182125
C47   C     C_R   0.026150 0.610743 0.395792 0.179662
C48   C     C_R   0.388039 0.415508 0.104149 0.179561
C49   C     C_R   0.043941 0.521057 0.127988 0.071270
C50   C     C_R   0.479017 0.959735 0.371232 0.071841
C51   C     C_R   0.480269 0.519749 0.128676 0.073665
C52   C     C_R   0.040156 0.519702 0.371204 0.071805
C53   C     C_R   0.480510 0.959283 0.128885 0.072151
C54   C     C_R   0.480115 0.521314 0.371292 0.071497
C55   C     C_R   0.519581 0.039998 0.628804 0.071872
C56   C     C_R   0.962968 0.484056 0.870372 0.073973
C57   C     C_R   0.521186 0.480062 0.628720 0.071742
C58   C     C_R   0.519309 0.040699 0.871327 0.070868
C59   C     C_R   0.959509 0.478853 0.628749 0.071782
C60   C     C_R   0.519492 0.480159 0.871070 0.078170
C61   C     C_R   0.990680 0.596271 0.947510 0.005269
C62   C     C_R   0.604332 0.009953 0.552210 0.005017
C63   C     C_R   0.402826 0.396485 0.947293 0.006555
C64   C     C_R   0.990351 0.594285 0.552538 0.005022
C65   C     C_R   0.601008 0.004341 0.947266 0.001430
C66   C     C_R   0.405966 0.395528 0.552303 0.005310
C67   C     C_R   0.594340 0.990421 0.447490 0.005071
C68   C     C_R   0.017490 0.608253 0.051677 0.005349
C69   C     C_R   0.395612 0.405977 0.447634 0.005391
C70   C     C_R   0.589776 0.979829 0.051655 0.004260
C71   C     C_R   0.010123 0.604447 0.447827 0.005168
C72   C     C_R   0.393669 0.405905 0.052087 0.004513
C73   C     C_R   0.995551 0.405966 0.894764 0.190021
C74   C     C_R   0.412258 0.016060 0.603311 0.189230
C75   C     C_R   0.600566 0.588515 0.896502 0.186501
C76   C     C_R   0.982303 0.394848 0.602880 0.188772
C77   C     C_R   0.414342 0.021821 0.897623 0.191862
C78   C     C_R   0.604965 0.587122 0.603102 0.188557
C79   C     C_R   0.395115 0.982700 0.397065 0.188867
C80   C     C_R   0.021748 0.414665 0.101822 0.189349
C81   C     C_R   0.587065 0.605216 0.396986 0.188442
C82   C     C_R   0.400924 0.989480 0.104014 0.191348
C83   C     C_R   0.016152 0.412334 0.396657 0.189154
C84   C     C_R   0.589115 0.600802 0.103269 0.193106
C85   C     C_R   0.001983 0.407847 0.946512 0.008298
C86   C     C_R   0.407389 0.004763 0.551915 0.012500
C87   C     C_R   0.598289 0.589512 0.948191 -0.003228
C88   C     C_R   0.993873 0.401655 0.551489 0.012212
C89   C     C_R   0.412008 0.014470 0.949139 0.013000
C90   C     C_R   0.598085 0.592171 0.551749 0.012364
C91   C     C_R   0.401831 0.994151 0.448464 0.012314
C92   C     C_R   0.010780 0.410579 0.050303 0.011407
C93   C     C_R   0.592084 0.598277 0.448340 0.012408
C94   C     C_R   0.408073 0.003073 0.052645 0.012233
C95   C     C_R   0.004763 0.407406 0.448045 0.012625
C96   C     C_R   0.595355 0.592123 0.051829 0.010719
C97   C     C_R   0.005774 0.312951 0.023373 -0.114756
C98   C     C_R   0.308882 0.999327 0.474936 -0.118477
C99   C     C_R   0.698920 0.678103 0.025612 -0.118530
C100  C     C_R   0.998934 0.308817 0.474127 -0.118293
C101  C     C_R   0.319776 0.017572 0.027002 -0.119684
C102  C     C_R   0.690534 0.691028 0.474657 -0.118561
C103  C     C_R   0.308888 0.999069 0.525790 -0.118284
C104  C     C_R   0.007954 0.314837 0.972409 -0.121567
C105  C     C_R   0.690794 0.690712 0.525509 -0.118544
C106  C     C_R   0.318419 0.017363 0.976106 -0.113188
C107  C     C_R   0.999039 0.308705 0.524981 -0.118541
C108  C     C_R   0.698925 0.678864 0.974652 -0.134174
Cr1   Cr    Cr6+3 0.487630 0.241180 0.750000 1.148110
Cr2   Cr    Cr6+3 0.753550 0.512370 0.750000 1.156397
Cr3   Cr    Cr6+3 0.758820 0.246450 0.750000 1.142599
Cr4   Cr    Cr6+3 0.241180 0.487630 0.250000 1.147324
Cr5   Cr    Cr6+3 0.512370 0.753550 0.250000 1.148913
Cr6   Cr    Cr6+3 0.246450 0.758820 0.250000 1.146761
H1    H     H_    0.034445 0.787997 0.043165 0.104624
H2    H     H_    0.764499 0.986960 0.456044 0.104733
H3    H     H_    0.216402 0.240055 0.043022 0.100706
H4    H     H_    0.014791 0.778616 0.457072 0.104434
H5    H     H_    0.742428 0.947036 0.041260 0.105785
H6    H     H_    0.221823 0.235959 0.456463 0.105218
H7    H     H_    0.778426 0.014490 0.543041 0.104390
H8    H     H_    0.009175 0.776640 0.955882 0.122570
H9    H     H_    0.236094 0.221621 0.543338 0.105172
H10   H     H_    0.752629 0.968445 0.954039 0.103138
H11   H     H_    0.987058 0.764553 0.544047 0.104940
H12   H     H_    0.229362 0.226033 0.955981 0.101573
H13   H     H_    0.003778 0.235287 0.041065 0.116300
H14   H     H_    0.233130 0.000626 0.456956 0.117047
H15   H     H_    0.780684 0.747207 0.043875 0.114205
H16   H     H_    0.997275 0.231694 0.455832 0.117335
H17   H     H_    0.248204 0.025535 0.045677 0.115469
H18   H     H_    0.767485 0.766837 0.456560 0.117636
H19   H     H_    0.231761 0.997409 0.544052 0.117293
H20   H     H_    0.010601 0.239973 0.954154 0.099976
H21   H     H_    0.766534 0.767687 0.543669 0.117732
H22   H     H_    0.244129 0.022145 0.958515 0.121418
H23   H     H_    0.000232 0.232880 0.542931 0.117180
H24   H     H_    0.780918 0.747559 0.956325 0.107294
O1    O     O_R   0.460870 0.120930 0.805240 -0.449375
O2    O     O_R   0.660060 0.539130 0.694760 -0.449543
O3    O     O_R   0.879070 0.339940 0.805240 -0.457653
O4    O     O_R   0.460870 0.120930 0.694760 -0.448737
O5    O     O_R   0.660060 0.539130 0.805240 -0.433288
O6    O     O_R   0.879070 0.339940 0.694760 -0.447817
O7    O     O_R   0.120930 0.460870 0.305240 -0.450005
O8    O     O_R   0.539130 0.660060 0.194760 -0.442732
O9    O     O_R   0.339940 0.879070 0.305240 -0.449019
O10   O     O_R   0.120930 0.460870 0.194760 -0.446740
O11   O     O_R   0.539130 0.660060 0.305240 -0.449348
O12   O     O_R   0.339940 0.879070 0.194760 -0.448733
O13   O     O_R   0.498910 0.350470 0.801870 -0.460016
O14   O     O_R   0.851560 0.501090 0.698130 -0.456027
O15   O     O_R   0.649530 0.148440 0.801870 -0.460482
O16   O     O_R   0.498910 0.350470 0.698130 -0.456413
O17   O     O_R   0.851560 0.501090 0.801870 -0.454328
O18   O     O_R   0.649530 0.148440 0.698130 -0.455097
O19   O     O_R   0.350470 0.498910 0.301870 -0.456464
O20   O     O_R   0.501090 0.851560 0.198130 -0.453770
O21   O     O_R   0.148440 0.649530 0.301870 -0.456160
O22   O     O_R   0.350470 0.498910 0.198130 -0.455966
O23   O     O_R   0.501090 0.851560 0.301870 -0.456778
O24   O     O_R   0.148440 0.649530 0.198130 -0.455301
O25   O     O_3   0.666667 0.333333 0.750000 -0.332466
O26   O     O_3   0.333333 0.666667 0.250000 -0.332363
O27   O     O_3   0.037525 0.707844 0.131513 -0.675574
H25   H     H_    0.978435 0.729838 0.117811 0.335354
O28   O     O_3   0.673906 0.970152 0.367571 -0.678350
H26   H     H_    0.754853 0.031514 0.380754 0.340046
O29   O     O_3   0.292953 0.327227 0.131769 -0.677508
H27   H     H_    0.270998 0.245876 0.118175 0.337112
O30   O     O_3   0.031634 0.705196 0.368265 -0.679092
H28   H     H_    0.970751 0.725407 0.381581 0.339227
O31   O     O_3   0.667933 0.953767 0.130483 -0.673445
H29   H     H_    0.749542 0.008541 0.115983 0.333022
O32   O     O_3   0.294992 0.326861 0.367929 -0.679070
H30   H     H_    0.275202 0.245782 0.380932 0.339689
O33   O     O_3   0.704896 0.031182 0.631824 -0.678125
H31   H     H_    0.725035 0.970255 0.618483 0.339642
O34   O     O_3   0.942035 0.663316 0.870520 -0.633693
H32   H     H_    0.896442 0.689638 0.892304 0.340080
O35   O     O_3   0.326914 0.294743 0.631940 -0.678602
H33   H     H_    0.245813 0.274828 0.618902 0.339776
O36   O     O_3   0.706423 0.035343 0.867791 -0.664296
H34   H     H_    0.780660 0.069958 0.888456 0.307865
O37   O     O_3   0.970021 0.673814 0.632473 -0.677350
H35   H     H_    0.031464 0.754765 0.619359 0.340543
O38   O     O_3   0.324582 0.295731 0.867386 -0.679434
H36   H     H_    0.243468 0.276634 0.880238 0.340799
O39   O     O_3   0.012357 0.315652 0.127182 -0.651081
H37   H     H_    0.075699 0.298985 0.113798 0.348260
O40   O     O_3   0.305469 0.991783 0.371573 -0.654428
H38   H     H_    0.225468 0.926597 0.384193 0.349375
O41   O     O_3   0.687860 0.689373 0.129324 -0.651061
H39   H     H_    0.712717 0.769414 0.113776 0.342546
O42   O     O_3   0.005985 0.313248 0.370810 -0.654846
H40   H     H_    0.071149 0.298092 0.383071 0.349390
O43   O     O_3   0.314804 0.003106 0.130428 -0.653806
H41   H     H_    0.233344 0.942896 0.117122 0.344799
O44   O     O_3   0.685722 0.695115 0.371424 -0.653818
H42   H     H_    0.700145 0.774988 0.384147 0.348904
O45   O     O_3   0.313181 0.005884 0.629130 -0.653742
H43   H     H_    0.297982 0.071018 0.616877 0.349437
O46   O     O_3   0.020660 0.329041 0.867083 -0.655026
H44   H     H_    0.968505 0.244716 0.879296 0.319275
O47   O     O_3   0.694695 0.685864 0.628739 -0.653008
H45   H     H_    0.774636 0.700376 0.616095 0.348912
O48   O     O_3   0.315286 0.012965 0.872481 -0.633846
H46   H     H_    0.303990 0.081264 0.883995 0.350861
O49   O     O_3   0.991117 0.305010 0.628325 -0.653473
H47   H     H_    0.925872 0.225090 0.615619 0.349233
O50   O     O_3   0.684280 0.689978 0.870167 -0.653548
H48   H     H_    0.698320 0.764666 0.887966 0.334568

loop_
_geom_bond_atom_site_label_1
_geom_bond_atom_site_label_2
_ccdc_geom_bond_type
C44   C49   A    
C76   O49   S    
C4    O16   A    
O46   H44   S    
C29   H10   S    
C80   C92   A    
O27   H25   S    
C82   C94   A    
C18   C21   A    
C2    O6    A    
C80   O39   S    
C5    C56   S    
C3    O15   A    
C6    C55   S    
O30   H28   S    
C8    O20   A    
C50   C79   A    
C12   C49   S    
Cr2   O2    S    
O31   H29   S    
C78   C90   A    
C31   C67   A    
C99   C108  A    
C20   C92   A    
C77   C89   A    
C104  H20   S    
Cr1   O13   S    
C102  H18   S    
C41   C58   A    
Cr2   O14   S    
C77   O48   S    
C27   H12   S    
C100  H16   S    
C98   H14   S    
Cr6   O24   S    
C9    O21   A    
C98   C103  A    
C14   C62   A    
C96   C99   A    
C11   O23   A    
Cr4   O7    S    
C102  C105  A    
C84   C96   A    
Cr2   O17   S    
C58   C77   A    
C7    O11   A    
C55   C74   A    
Cr6   O26   S    
C48   C51   A    
C87   C108  A    
O50   H48   S    
C94   C101  A    
C89   C106  A    
Cr2   O5    S    
C19   C67   A    
Cr1   O4    S    
C26   H7    S    
Cr5   O20   S    
C6    O4    A    
C25   H8    S    
C76   C88   A    
C79   C91   A    
C13   C20   A    
C33   C69   A    
C32   C68   A    
C39   O38   S    
C25   C32   A    
C106  H22   S    
C35   C71   A    
O44   H42   S    
C91   C98   A    
C40   C59   A    
C79   O40   S    
C83   O42   S    
C22   C94   A    
O43   H41   S    
C9    C52   S    
C48   C72   A    
Cr4   O26   S    
C86   C103  A    
C14   C19   A    
C42   C57   A    
C92   C97   A    
C42   O35   S    
C2    O14   A    
C37   O34   S    
C16   C88   A    
Cr4   O19   S    
C38   C55   A    
C45   C69   A    
O48   H46   S    
C18   C90   A    
O29   H27   S    
Cr5   O11   S    
C17   C89   A    
C28   C35   A    
C82   O43   S    
Cr1   O25   S    
C1    C60   S    
O28   H26   S    
C88   C107  A    
C99   H15   S    
C2    C59   S    
C41   C65   A    
C40   O37   S    
O35   H33   S    
Cr5   O23   S    
C29   C34   A    
O40   H38   S    
C21   C69   A    
C53   C82   A    
Cr5   O8    S    
C107  H23   S    
C52   C83   A    
C8    O12   A    
O36   H34   S    
C81   O44   S    
C1    O5    A    
C23   C71   A    
C4    O2    A    
C81   C93   A    
C5    O3    A    
O32   H30   S    
C84   O41   S    
C75   O50   S    
C24   C96   A    
O49   H47   S    
C46   O31   S    
Cr3   O25   S    
C25   C61   A    
C83   C95   A    
C74   C86   A    
C36   H3    S    
Cr3   O15   S    
C14   C86   A    
C30   C66   A    
C85   C104  A    
C27   C63   A    
Cr3   O6    S    
C10   O8    A    
C29   C65   A    
C101  H17   S    
C75   C87   A    
C15   C24   A    
C59   C76   A    
C45   C54   A    
O33   H31   S    
C16   C23   A    
C44   C68   A    
C3    O1    A    
C47   C71   A    
C13   C85   A    
C10   O22   A    
C31   H2    S    
C101  C106  A    
C28   H11   S    
C24   C72   A    
C15   C87   A    
Cr3   O18   S    
C34   H5    S    
O47   H45   S    
C100  C107  A    
C15   C63   A    
C56   C73   A    
Cr4   O22   S    
C30   C33   A    
C95   C100  A    
C93   C102  A    
C57   C78   A    
C20   C68   A    
Cr1   O16   S    
C90   C105  A    
C8    C53   S    
Cr6   O9    S    
C47   O30   S    
Cr2   O25   S    
C49   C80   A    
C43   C50   A    
C28   C64   A    
C97   H13   S    
C7    O19   A    
C74   O45   S    
C43   O28   S    
C27   C36   A    
C18   C66   A    
C39   C63   A    
C60   C75   A    
C17   C65   A    
C17   C22   A    
C40   C64   A    
O45   H43   S    
C105  H21   S    
Cr1   O1    S    
C10   C51   S    
C12   O10   A    
C45   O32   S    
C26   C62   A    
C78   O47   S    
C73   C85   A    
C11   C50   S    
C5    O17   A    
Cr5   O26   S    
C108  H24   S    
C11   O9    A    
O37   H35   S    
C21   C93   A    
C39   C60   A    
C51   C84   A    
C46   C53   A    
C9    O7    A    
C42   C66   A    
C23   C95   A    
C1    O13   A    
C44   O27   S    
C32   H1    S    
C103  H19   S    
O39   H37   S    
Cr6   O21   S    
C46   C70   A    
C97   C104  A    
C19   C91   A    
Cr3   O3    S    
C12   O24   A    
O42   H40   S    
C3    C58   S    
Cr4   O10   S    
C26   C31   A    
C37   C61   A    
C13   C61   A    
C30   H9    S    
C73   O46   S    
C33   H6    S    
C43   C67   A    
O41   H39   S    
C47   C52   A    
C37   C56   A    
C38   O33   S    
O34   H32   S    
Cr6   O12   S    
C41   O36   S    
C35   H4    S    
O38   H36   S    
C48   O29   S    
C16   C64   A    
C7    C54   S    
C34   C70   A    
C22   C70   A    
C54   C81   A    
C6    O18   A    
C36   C72   A    
C4    C57   S    
C38   C62   A    
