data_mof_unit_54741.cif
_audit_creation_date              2013-03-05T16:18:42-0500
_audit_creation_method            fapswitch 2.2
_symmetry_space_group_name_H-M    P1
_symmetry_Int_Tables_number       1
_space_group_crystal_system       triclinic
_cell_length_a                    15.717191
_cell_length_b                    10.634352
_cell_length_c                    9.699797
_cell_angle_alpha                 89.96024
_cell_angle_beta                  90.033017
_cell_angle_gamma                 90.249511
_cell_volume                      1621.22881364

loop_
_atom_site_label
_atom_site_type_symbol
_atom_site_description
_atom_site_fract_x
_atom_site_fract_y
_atom_site_fract_z
_atom_type_partial_charge
O1    O     O_R   0.499980 0.314910 0.616040 -0.647802
O2    O     O_R   0.500040 0.314680 0.383960 -0.636367
C1    C     C_R   0.499937 0.257557 0.499808 0.901830
O3    O     O_R   0.376750 0.500100 0.616020 -0.629665
O4    O     O_R   0.376810 0.499870 0.383940 -0.622638
C2    C     C_R   0.337738 0.499969 0.499945 0.931727
Zn1   Zn    Zn3+2 0.499960 0.500150 0.654960 0.916752
Zn2   Zn    Zn3+2 0.500040 0.499850 0.345040 0.921130
O5    O     O_R   0.499960 0.685320 0.616040 -0.637852
O6    O     O_R   0.500020 0.685090 0.383960 -0.630383
O7    O     O_R   0.623190 0.500130 0.616060 -0.616427
O8    O     O_R   0.623250 0.499900 0.383980 -0.626214
C3    C     C_R   0.499790 0.742416 0.499680 0.911098
C4    C     C_R   0.662233 0.500476 0.500063 0.960107
C5    C     C_3   0.970980 0.402732 0.564342 -0.171568
C6    C     C_3   0.027185 0.403125 0.433552 -0.162206
H1    H     H_    0.051543 0.318819 0.379170 0.135060
H2    H     H_    0.944568 0.318598 0.617222 0.139321
H3    H     H_    0.946622 0.508919 0.262152 0.136291
C7    C     C_1   0.248761 0.501696 0.499943 -0.211598
C8    C     C_1   0.751177 0.503319 0.500093 -0.137636
C9    C     C_3   0.028053 0.504797 0.630868 -0.175179
C10   C     C_3   0.082510 0.505225 0.500054 0.212331
C11   C     C_3   0.972606 0.609379 0.566436 -0.137236
C12   C     C_3   0.917382 0.507183 0.499897 0.202082
C13   C     C_3   0.028924 0.609837 0.435596 -0.163955
C14   C     C_3   0.971819 0.507659 0.369095 -0.162477
C15   C     C_1   0.173420 0.503470 0.500034 -0.094810
C16   C     C_1   0.826497 0.505806 0.499996 -0.051131
H4    H     H_    0.054853 0.694452 0.382972 0.134663
H5    H     H_    0.948028 0.693671 0.620603 0.155272
H6    H     H_    0.053287 0.503308 0.737785 0.131017
C17   C     C_3   0.421302 0.071547 0.581509 0.368558
H7    H     H_    0.428955 0.103363 0.690876 0.045397
C18   C     C_3   0.421237 0.926438 0.578756 -0.536551
H8    H     H_    0.421512 0.890599 0.686660 0.133681
H9    H     H_    0.362015 0.890154 0.529371 0.200608
H10   H     H_    0.438491 0.107382 0.294245 0.198179
H11   H     H_    0.433121 0.896355 0.300587 0.166673
C19   C     C_3   0.495969 0.071418 0.348438 -0.365407
C20   C     C_3   0.582838 0.073965 0.567124 -0.574292
C21   C     C_3   0.499583 0.121216 0.499133 0.066868
H12   H     H_    0.638798 0.109791 0.508501 0.218962
H13   H     H_    0.588829 0.111456 0.673898 0.153720
C22   C     C_3   0.500204 0.878691 0.498896 0.005772
C23   C     C_3   0.493814 0.928832 0.348479 -0.377337
C24   C     C_3   0.581898 0.929181 0.572493 0.193638
H14   H     H_    0.578090 0.901279 0.683243 0.098938
H15   H     H_    0.552749 0.104179 0.289553 0.182224
H16   H     H_    0.545970 0.892541 0.282517 0.218452
C25   C     C_3   0.427055 0.422802 0.081679 -0.228711
H17   H     H_    0.365199 0.460404 0.118451 0.152812
H18   H     H_    0.431281 0.324923 0.121548 0.143804
C26   C     C_3   0.427444 0.421018 0.919011 -0.241244
H19   H     H_    0.431839 0.322333 0.881762 0.135184
H20   H     H_    0.365791 0.457852 0.880292 0.151052
H21   H     H_    0.429739 0.671685 0.117324 0.139950
H22   H     H_    0.430297 0.669168 0.877919 0.140885
C27   C     C_3   0.489602 0.628062 0.079718 -0.241511
C28   C     C_3   0.578209 0.446100 0.082201 -0.227729
N1    N     N_3   0.498170 0.499750 0.138610 -0.036303
H23   H     H_    0.633641 0.502000 0.119157 0.162552
H24   H     H_    0.587121 0.349013 0.122360 0.144106
N2    N     N_3   0.498850 0.496730 0.861320 -0.034212
C29   C     C_3   0.489995 0.626265 0.917367 -0.227580
C30   C     C_3   0.578605 0.444274 0.919789 -0.232039
H25   H     H_    0.587581 0.346340 0.882392 0.142086
H26   H     H_    0.634172 0.499342 0.881897 0.164502
H27   H     H_    0.542567 0.688757 0.117271 0.157714
H28   H     H_    0.543095 0.686347 0.879101 0.158181
N3    N     N_R   0.660582 0.876352 0.515330 0.210926
O9    O     O_R   0.708116 0.804800 0.591926 -0.423578
O10   O     O_R   0.686412 0.905583 0.391911 -0.422197
O11   O     O_3   0.345205 0.117583 0.521225 -0.647039
C31   C     C_3   0.281429 0.132835 0.622344 0.061136
H29   H     H_    0.294152 0.220441 0.681829 0.145167
H30   H     H_    0.278931 0.051192 0.694591 0.127335
C32   C     C_3   0.195182 0.143092 0.550940 -0.308538
H31   H     H_    0.196140 0.223376 0.477591 0.225765
H32   H     H_    0.182661 0.055504 0.491648 0.218437
C33   C     C_3   0.123769 0.161993 0.655180 -0.978569
H33   H     H_    0.123427 0.084761 0.732342 0.262171
H34   H     H_    0.061689 0.161376 0.600754 0.266417
H35   H     H_    0.131781 0.253530 0.708877 0.267451

loop_
_geom_bond_atom_site_label_1
_geom_bond_atom_site_label_2
_geom_bond_distance
_ccdc_geom_bond_type
C5    H2    1.110090 S    
C30   H26   1.111941 S    
C1    C21   1.449904 S    
C20   C21   1.550470 S    
C18   H8    1.113643 S    
C25   N1    1.488558 S    
C33   H33   1.110798 S    
C22   C23   1.556397 S    
Zn1   O7    1.973456 S    
C13   C14   1.547304 S    
C9    H6    1.110232 S    
C28   H24   1.112633 S    
C17   C21   1.557601 S    
C4    C8    1.398147 S    
C18   H9    1.114165 S    
C11   C13   1.547731 S    
O4    C2    1.282207 A    
O7    C4    1.281911 A    
C32   H32   1.111798 S    
C5    C12   1.529969 S    
C5    C6    1.546313 S    
C28   H23   1.111928 S    
C10   C13   1.531159 S    
O5    C3    1.281256 A    
C5    C9    1.546275 S    
C6    H1    1.110168 S    
H3    C14   1.110232 S    
Zn2   N1    2.002529 S    
C6    C14   1.546202 S    
C19   C21   1.555951 S    
C30   H25   1.112653 S    
C28   C30   1.575515 S    
C20   H12   1.113304 S    
O3    Zn1   1.972793 S    
C33   H34   1.109115 S    
C22   C24   1.562061 S    
C12   C16   1.428456 S    
C26   H20   1.111825 S    
C27   N1    1.485527 S    
O11   C31   1.412762 S    
C25   H17   1.111883 S    
C11   C12   1.530731 S    
O3    C2    1.281724 A    
N3    O10   1.301363 A    
C32   H31   1.111029 S    
C7    C15   1.184392 T    
C8    C16   1.184006 T    
C28   N1    1.488251 S    
O1    C1    1.282196 A    
N2    C30   1.486261 S    
C19   C23   1.516539 S    
C31   H29   1.113473 S    
H22   C29   1.112661 S    
C24   H14   1.115850 S    
Zn2   O8    1.972793 S    
C17   H7    1.119973 S    
C20   C24   1.540536 S    
C10   C15   1.429048 S    
C31   H30   1.115942 S    
C24   N3    1.469604 S    
C27   H27   1.112458 S    
H11   C23   1.114411 S    
O8    C4    1.281587 A    
C13   H4    1.110281 S    
C6    C10   1.530761 S    
C20   H13   1.113831 S    
C9    C11   1.547196 S    
C18   C22   1.550936 S    
C33   H35   1.110984 S    
C3    C22   1.449194 S    
Zn1   O5    2.004767 S    
C26   H19   1.112585 S    
O1    Zn1   2.006014 S    
O2    Zn2   2.004768 S    
O6    C3    1.277716 A    
O4    Zn2   1.973456 S    
C12   C14   1.530699 S    
C2    C7    1.398669 S    
C23   H16   1.110847 S    
C25   C26   1.577987 S    
N2    C29   1.488381 S    
O2    C1    1.277016 A    
C11   H5    1.110261 S    
N3    O9    1.301021 A    
C27   C29   1.574922 S    
H10   C19   1.113956 S    
C32   C33   1.525160 S    
C26   N2    1.487684 S    
C17   C18   1.543378 S    
C31   C32   1.526188 S    
Zn1   N2    2.002039 S    
H21   C27   1.112641 S    
C17   O11   1.419848 S    
Zn2   O6    2.006014 S    
C9    C10   1.530964 S    
C25   H18   1.112390 S    
C29   H28   1.112620 S    
C19   H15   1.114281 S    
