data_mof_unit_24844.cif
_audit_creation_date              2012-12-10T20:34:51-0500
_audit_creation_method            fapswitch 2.2
_symmetry_space_group_name_H-M    P1
_symmetry_Int_Tables_number       1
_space_group_crystal_system       triclinic
_cell_length_a                    10.674222
_cell_length_b                    10.665991
_cell_length_c                    9.8522
_cell_angle_alpha                 90.168462
_cell_angle_beta                  90.617044
_cell_angle_gamma                 90.052557
_cell_volume                      1121.61395738

loop_
_atom_site_label
_atom_site_type_symbol
_atom_type_description
_atom_site_fract_x
_atom_site_fract_y
_atom_site_fract_z
_atom_type_partial_charge
C1    C     C_R   0.495912 0.259917 0.499871 0.883390
C2    C     C_R   0.474939 0.936566 0.623427 0.136942
C3    C     C_3   0.564505 0.929921 0.740964 -0.481582
C4    C     C_R   0.257907 0.496801 0.499673 0.895873
C5    C     C_3   0.565568 0.071971 0.740178 -0.466327
C6    C     C_R   0.457630 0.397894 0.070414 0.201727
C7    C     C_R   0.552267 0.595863 0.072921 -0.133779
C8    C     C_R   0.552184 0.595860 0.928906 -0.094050
C9    C     C_R   0.457187 0.398183 0.927735 0.219727
C10   C     C_3   0.328029 0.345489 0.920548 -0.514162
C11   C     C_3   0.328951 0.343935 0.074483 -0.462468
C12   C     C_3   0.878725 0.491981 0.506528 0.032688
C13   C     C_R   0.495567 0.740080 0.500126 0.904470
C14   C     C_R   0.742245 0.495562 0.501539 0.834894
C15   C     C_3   0.075631 0.471743 0.648969 -0.411500
C16   C     C_3   0.931864 0.465447 0.656169 0.086387
C17   C     C_3   0.071083 0.621680 0.447001 -0.091541
C18   C     C_3   0.070335 0.389215 0.402659 -0.198472
C19   C     C_3   0.121630 0.493830 0.500618 0.030975
C20   C     C_2   0.888933 0.559309 0.764731 0.956855
C21   C     C_2   0.128785 0.260204 0.420566 0.901969
C22   C     C_3   0.926695 0.620130 0.450920 -0.440276
C23   C     C_3   0.925820 0.386755 0.408886 -0.479479
C24   C     C_R   0.475573 0.064451 0.623079 0.124355
C25   C     C_R   0.475153 0.128608 0.500285 -0.106915
C26   C     C_R   0.450000 0.064345 0.378676 -0.168868
C27   C     C_R   0.449233 0.934739 0.378956 -0.229298
C28   C     C_R   0.474230 0.871345 0.500802 -0.109396
H1    H     H_    0.113184 0.546889 0.716761 0.169137
H2    H     H_    0.657672 0.112491 0.711795 0.202279
H3    H     H_    0.592905 0.674107 0.127894 0.144091
H4    H     H_    0.117957 0.384917 0.690856 0.219288
H5    H     H_    0.593409 0.673620 0.875300 0.149885
H6    H     H_    0.259350 0.413033 0.877523 0.217050
H7    H     H_    0.325704 0.250348 0.874273 0.212213
H8    H     H_    0.259805 0.409195 0.119843 0.220917
H9    H     H_    0.328736 0.247554 0.116664 0.230795
H10   H     H_    0.889218 0.700565 0.509293 0.208119
H11   H     H_    0.093776 0.418297 0.297259 0.137261
H12   H     H_    0.888026 0.402694 0.304507 0.203975
H13   H     H_    0.889486 0.293215 0.438299 0.165474
H14   H     H_    0.799216 0.324271 0.696628 0.198648
H15   H     H_    0.939164 0.267409 0.651768 0.232206
H16   H     H_    0.820822 0.584920 0.953256 0.326877
H17   H     H_    0.087545 0.736582 0.617480 0.246405
H18   H     H_    0.099757 0.811279 0.468750 0.198561
H19   H     H_    0.174314 0.115954 0.543498 0.345078
H20   H     H_    0.099273 0.631455 0.338817 0.162026
H21   H     H_    0.890557 0.633995 0.345506 0.171751
H22   H     H_    0.440091 0.112965 0.282879 0.178090
H23   H     H_    0.438576 0.885338 0.283278 0.172466
H24   H     H_    0.520005 0.890344 0.832887 0.199624
H25   H     H_    0.656104 0.887599 0.713690 0.219838
H26   H     H_    0.522365 0.113951 0.831820 0.204209
N1    N     N_R   0.499150 0.499140 0.142800 -0.105285
N2    N     N_R   0.499150 0.499180 0.857150 -0.101159
N3    N     N_3   0.895579 0.339355 0.704830 -0.437184
N4    N     N_3   0.124952 0.729438 0.520484 -0.461141
O1    O     O_R   0.500020 0.316790 0.614690 -0.621924
O2    O     O_R   0.839838 0.514963 0.886743 -0.786286
O3    O     O_2   0.174229 0.207591 0.322332 -0.653109
O4    O     O_R   0.131754 0.200853 0.546669 -0.846129
O5    O     O_R   0.500000 0.316760 0.385350 -0.619230
O6    O     O_R   0.314800 0.500000 0.614670 -0.623724
O7    O     O_R   0.314790 0.499960 0.385330 -0.635139
O8    O     O_R   0.500000 0.683240 0.614650 -0.616795
O9    O     O_R   0.499980 0.683210 0.385310 -0.630014
O10   O     O_R   0.685210 0.500040 0.614670 -0.623433
O11   O     O_R   0.685200 0.500000 0.385330 -0.614212
O12   O     O_2   0.900644 0.672192 0.748566 -0.699305
Zn1   Zn    Zn3+2 0.500010 0.500020 0.653130 0.963543
Zn2   Zn    Zn3+2 0.499990 0.499980 0.346870 0.952125

loop_
_geom_bond_atom_site_label_1
_geom_bond_atom_site_label_2
_ccdc_geom_bond_type
C23   H12   S    
O11   Zn2   S    
C15   C19   S    
C3    H24   S    
C13   C28   S    
O10   Zn1   S    
C10   H7    S    
C12   C22   S    
C20   O2    S    
C18   C21   S    
C9    C10   S    
C4    O6    A    
C21   O3    D    
C17   C22   S    
C23   H13   S    
C17   H20   S    
C7    N1    A    
C17   N4    S    
C16   C20   S    
N2    Zn1   S    
C8    N2    A    
C6    C9    A    
C13   O8    A    
C2    C3    S    
C21   O4    S    
C24   C25   A    
C15   H4    S    
C10   H6    S    
C9    N2    A    
C26   H22   S    
H18   N4    S    
C1    C25   S    
C16   N3    S    
C3    H25   S    
C12   C23   S    
C20   O12   D    
C26   C27   A    
O1    Zn1   S    
C5    C24   S    
O8    Zn1   S    
H19   O4    S    
C6    N1    A    
C6    C11   S    
C15   C16   S    
C1    O5    A    
H14   N3    S    
C11   H8    S    
C17   C19   S    
C12   C14   S    
C15   H1    S    
C8    H5    S    
C1    O1    A    
C2    C24   A    
C4    O7    A    
C14   O11   A    
H17   N4    S    
H16   O2    S    
C7    H3    S    
C10   C11   S    
H15   N3    S    
C18   C23   S    
O7    Zn2   S    
C12   C16   S    
C5    H26   S    
C7    C8    A    
O5    Zn2   S    
O9    Zn2   S    
C13   O9    A    
O6    Zn1   S    
C22   H21   S    
C27   C28   A    
C11   H9    S    
C18   H11   S    
C14   O10   A    
C18   C19   S    
C2    C28   A    
C25   C26   A    
C4    C19   S    
N1    Zn2   S    
C5    H2    S    
C27   H23   S    
C3    C5    S    
C22   H10   S    
