data_mof_unit_45492.cif
_audit_creation_date              2012-12-10T17:02:02-0500
_audit_creation_method            fapswitch 2.2
_symmetry_space_group_name_H-M    P1
_symmetry_Int_Tables_number       1
_space_group_crystal_system       triclinic
_cell_length_a                    10.771891
_cell_length_b                    10.960042
_cell_length_c                    9.818889
_cell_angle_alpha                 110.476882
_cell_angle_beta                  98.277205
_cell_angle_gamma                 90.920659
_cell_volume                      1071.89942712

loop_
_atom_site_label
_atom_site_type_symbol
_atom_type_description
_atom_site_fract_x
_atom_site_fract_y
_atom_site_fract_z
_atom_type_partial_charge
C1    C     C_R   0.487308 0.253860 0.441698 0.872292
C2    C     C_R   0.080944 0.622041 0.602499 0.105868
C3    C     C_R   0.129656 0.512003 0.505207 -0.078696
C4    C     C_R   0.049817 0.408777 0.403421 -0.201657
C5    C     C_R   0.921526 0.409837 0.400940 -0.196142
C6    C     C_R   0.871291 0.514139 0.500277 -0.095011
C7    C     C_2   0.465036 0.114839 0.411881 -0.365223
C8    C     C_2   0.457386 0.072686 0.523087 -0.251478
C9    C     C_2   0.499522 0.885253 0.588986 -0.368467
C10   C     C_2   0.430299 0.934855 0.497858 0.027540
C11   C     C_2   0.510598 0.510764 0.081062 -0.056540
C12   C     C_R   0.262837 0.503688 0.501949 0.813534
C13   C     C_2   0.488825 0.489854 0.919100 -0.070470
C14   C     C_R   0.502823 0.745696 0.558460 0.878405
C15   C     C_R   0.737448 0.504727 0.499948 0.784184
C16   C     C_R   0.159115 0.732545 0.698169 -0.129767
C17   C     C_R   0.107951 0.840621 0.790597 -0.139510
C18   C     C_R   0.978553 0.841696 0.788103 -0.137330
C19   C     C_R   0.899495 0.734696 0.693153 -0.176726
C20   C     C_R   0.949380 0.623138 0.599909 0.091968
Cu1   Cu    Cu3+1 0.521920 0.521810 0.644910 0.935307
Cu2   Cu    Cu3+1 0.478080 0.478190 0.355090 0.967479
H1    H     H_    0.087407 0.325669 0.327220 0.143402
H2    H     H_    0.450330 0.047565 0.298452 0.139675
H3    H     H_    0.415214 0.418131 0.846903 0.159418
H4    H     H_    0.583628 0.583125 0.153411 0.159512
H5    H     H_    0.624830 0.621342 0.933461 0.194938
H6    H     H_    0.376301 0.377399 0.066226 0.190905
H7    H     H_    0.259732 0.737964 0.700952 0.154631
H8    H     H_    0.168881 0.924547 0.863197 0.131146
H9    H     H_    0.939087 0.926474 0.858721 0.133346
H10   H     H_    0.799363 0.741753 0.691732 0.140453
H11   H     H_    0.861268 0.327183 0.323748 0.149160
H12   H     H_    0.477080 0.139790 0.636726 0.187119
H13   H     H_    0.564343 0.949292 0.683524 0.129789
N1    N     N_2   0.445130 0.445430 0.137370 -0.280002
N2    N     N_2   0.554930 0.554500 0.862630 -0.285540
O1    O     O_R   0.511700 0.332330 0.577400 -0.572362
O2    O     O_R   0.474680 0.295500 0.332650 -0.583024
O3    O     O_R   0.338160 0.518420 0.622400 -0.597885
O4    O     O_R   0.301140 0.481590 0.377650 -0.540693
O5    O     O_R   0.525320 0.704500 0.667350 -0.598167
O6    O     O_R   0.488300 0.667670 0.422600 -0.540180
O7    O     O_R   0.698860 0.518410 0.622350 -0.572876
O8    O     O_R   0.661840 0.481580 0.377600 -0.579930
C21   C     C_2   0.324763 0.860461 0.379893 0.422483
H14   H     H_    0.293426 0.893473 0.289458 0.052295
O9    O     O_2   0.266401 0.767131 0.387228 -0.547173

loop_
_geom_bond_atom_site_label_1
_geom_bond_atom_site_label_2
_ccdc_geom_bond_type
C12   O3    A    
C9    C14   S    
C10   C21   S    
C12   O4    A    
C18   H9    S    
C7    H2    S    
Cu1   O7    S    
C2    C16   A    
C9    C10   D    
C13   N2    D    
C19   C20   A    
C14   O5    A    
C2    C3    A    
C6    C15   S    
C7    C8    D    
C8    H12   S    
Cu1   Cu2   S    
C17   H8    S    
C11   C13   S    
C13   H3    S    
C16   C17   A    
Cu1   O3    S    
C6    C20   A    
H5    N2    S    
C19   H10   S    
C1    O1    A    
C11   N1    D    
C15   O7    A    
C17   C18   A    
C5    C6    A    
C21   O9    D    
Cu2   O4    S    
C15   O8    A    
C2    C20   A    
Cu1   O5    S    
Cu2   O8    S    
Cu1   N2    S    
H6    N1    S    
C8    C10   S    
C18   C19   A    
C9    H13   S    
C4    H1    S    
C1    O2    A    
C21   H14   S    
C14   O6    A    
C3    C12   S    
C11   H4    S    
C16   H7    S    
C1    C7    S    
Cu2   O2    S    
Cu2   O6    S    
Cu2   N1    S    
Cu1   O1    S    
C3    C4    A    
C4    C5    A    
C5    H11   S    
