data_mof_unit_42610.cif
_audit_creation_date              2012-12-10T20:30:59-0500
_audit_creation_method            fapswitch 2.2
_symmetry_space_group_name_H-M    P1
_symmetry_Int_Tables_number       1
_space_group_crystal_system       triclinic
_cell_length_a                    14.910072
_cell_length_b                    10.719185
_cell_length_c                    9.86533
_cell_angle_alpha                 90.513712
_cell_angle_beta                  89.93074
_cell_angle_gamma                 89.720272
_cell_volume                      1576.6313258

loop_
_atom_site_label
_atom_site_type_symbol
_atom_type_description
_atom_site_fract_x
_atom_site_fract_y
_atom_site_fract_z
_atom_type_partial_charge
C1    C     C_R   0.504992 0.260365 0.498956 0.911451
C2    C     C_R   0.904710 0.604000 0.552828 0.085822
C3    C     C_R   0.954439 0.285234 0.407169 0.125404
C4    C     C_R   0.048709 0.284890 0.411580 0.138622
C5    C     C_R   0.094315 0.392922 0.456713 0.026193
C6    C     C_R   0.046325 0.499381 0.503169 -0.000086
C7    C     C_R   0.092025 0.607663 0.549601 0.056265
C8    C     C_R   0.043182 0.710812 0.598231 -0.178692
C9    C     C_R   0.950450 0.709599 0.601003 0.151698
C10   C     C_R   0.187444 0.397442 0.456956 -0.220725
C11   C     C_R   0.231542 0.504000 0.500772 -0.124260
C12   C     C_R   0.327027 0.501390 0.500141 0.932196
C13   C     C_R   0.185656 0.610217 0.546180 0.090057
C14   C     C_R   0.480698 0.066520 0.612911 0.062319
C15   C     C_R   0.507882 0.128210 0.496273 -0.169683
C16   C     C_R   0.531917 0.060512 0.378096 0.194735
C17   C     C_R   0.527003 0.932366 0.380520 -0.198804
C18   C     C_R   0.503064 0.871612 0.500015 -0.179835
C19   C     C_R   0.478345 0.938893 0.615506 0.145629
C20   C     C_3   0.518621 0.934773 0.754629 0.014969
C21   C     C_3   0.521038 0.075712 0.751293 -0.451608
C22   C     C_R   0.424251 0.529627 0.071183 0.176827
C23   C     C_R   0.501851 0.739714 0.500505 0.924943
C24   C     C_R   0.576842 0.477833 0.071551 -0.066019
C25   C     C_R   0.576759 0.477269 0.927732 -0.103590
C26   C     C_R   0.424744 0.532032 0.928974 0.220865
C27   C     C_3   0.335303 0.471851 0.918874 -0.500377
C28   C     C_3   0.335223 0.465171 0.072723 -0.036869
C29   C     C_R   0.672816 0.499106 0.499905 0.869237
C30   C     C_R   0.811870 0.601487 0.552833 -0.208790
C31   C     C_R   0.767877 0.498852 0.500036 -0.065520
C32   C     C_R   0.813404 0.395589 0.449217 -0.195160
C33   C     C_R   0.906747 0.391996 0.452334 0.031453
C34   C     C_R   0.952735 0.498216 0.502951 0.013687
H1    H     H_    0.546923 0.880177 0.290739 0.202816
H2    H     H_    0.590323 0.113760 0.750059 0.199684
H3    H     H_    0.638443 0.458034 0.125040 0.168149
H4    H     H_    0.638265 0.456828 0.873664 0.163838
H5    H     H_    0.283683 0.536887 0.878644 0.215131
H6    H     H_    0.338407 0.379787 0.866180 0.235580
H7    H     H_    0.281905 0.523861 0.120185 0.166921
H8    H     H_    0.227679 0.318898 0.423642 0.191193
H9    H     H_    0.075872 0.793722 0.635811 0.210787
N1    N     N_R   0.499390 0.499140 0.142800 -0.103390
N2    N     N_R   0.499390 0.499180 0.857150 -0.108375
O1    O     O_R   0.500010 0.316790 0.614690 -0.622898
O2    O     O_R   0.500000 0.316760 0.385350 -0.574332
O3    O     O_R   0.367850 0.499990 0.614680 -0.608214
O4    O     O_R   0.367840 0.499950 0.385340 -0.606283
O5    O     O_R   0.500000 0.683240 0.614650 -0.601628
O6    O     O_R   0.499990 0.683210 0.385310 -0.616495
O7    O     O_R   0.632160 0.500050 0.614660 -0.632015
O8    O     O_R   0.632150 0.500010 0.385320 -0.624943
Zn1   Zn    Zn3+2 0.500010 0.500020 0.653130 0.979487
Zn2   Zn    Zn3+2 0.499990 0.499980 0.346870 1.006351
H10   H     H_    0.772445 0.679228 0.591038 0.164786
I1    I     I_    0.427880 0.867221 0.905240 -0.275292
H11   H     H_    0.586428 0.891007 0.755703 0.152732
H12   H     H_    0.475011 0.122561 0.824649 0.248837
H13   H     H_    0.774291 0.318635 0.410329 0.174017
I2    I     I_    0.339672 0.275644 0.141178 -0.241968
I3    I     I_    0.884641 0.123069 0.333110 -0.240769
I4    I     I_    0.121311 0.119063 0.352343 -0.208221
I5    I     I_    0.259582 0.774676 0.599916 -0.293660
I6    I     I_    0.886000 0.873247 0.678563 -0.301407
I7    I     I_    0.590164 0.135571 0.198669 -0.292777

loop_
_geom_bond_atom_site_label_1
_geom_bond_atom_site_label_2
_ccdc_geom_bond_type
C8    C9    A    
C11   C12   S    
C24   C25   A    
C21   H12   S    
C6    C7    A    
C1    C15   S    
C25   H4    S    
C10   H8    S    
C23   O6    A    
C19   C20   S    
C4    I4    S    
C8    H9    S    
C2    C30   A    
C27   H6    S    
C12   O3    A    
O4    Zn2   S    
C32   C33   A    
O1    Zn1   S    
C12   O4    A    
C5    C10   A    
C29   C31   S    
C21   H2    S    
C22   C28   S    
C28   I2    S    
O3    Zn1   S    
C11   C13   A    
N1    Zn2   S    
C2    C34   A    
C26   C27   S    
O5    Zn1   S    
C13   I5    S    
C29   O8    A    
C4    C5    A    
C14   C21   S    
C33   C34   A    
N2    Zn1   S    
C17   C18   A    
O6    Zn2   S    
O8    Zn2   S    
C5    C6    A    
C24   N1    A    
C9    I6    S    
C1    O1    A    
C16   I7    S    
C10   C11   A    
C32   H13   S    
C20   H11   S    
C18   C23   S    
C25   N2    A    
C28   H7    S    
C7    C13   A    
C20   C21   S    
C6    C34   A    
O2    Zn2   S    
C18   C19   A    
C22   C26   A    
C3    I3    S    
C27   H5    S    
C27   C28   S    
C7    C8    A    
C3    C33   A    
C30   C31   A    
C1    O2    A    
C23   O5    A    
C24   H3    S    
C17   H1    S    
C26   N2    A    
C20   I1    S    
C14   C15   A    
C2    C9    A    
C30   H10   S    
C14   C19   A    
C31   C32   A    
C22   N1    A    
C3    C4    A    
C15   C16   A    
O7    Zn1   S    
C16   C17   A    
C29   O7    A    
