data_mof_unit_6494.cif
_audit_creation_date              2012-12-10T18:58:43-0500
_audit_creation_method            fapswitch 2.2
_symmetry_space_group_name_H-M    P1
_symmetry_Int_Tables_number       1
_space_group_crystal_system       triclinic
_cell_length_a                    12.988375
_cell_length_b                    10.820175
_cell_length_c                    9.540121
_cell_angle_alpha                 89.888585
_cell_angle_beta                  96.061815
_cell_angle_gamma                 90.161464
_cell_volume                      1333.23133913

loop_
_atom_site_label
_atom_site_type_symbol
_atom_type_description
_atom_site_fract_x
_atom_site_fract_y
_atom_site_fract_z
_atom_type_partial_charge
C1    C     C_R   0.501822 0.262306 0.500278 0.827049
C2    C     C_R   0.026372 0.522633 0.553692 0.172747
C3    C     C_R   0.974154 0.452776 0.441879 0.102560
C4    C     C_R   0.866384 0.433636 0.438293 -0.063344
C5    C     C_R   0.865534 0.561139 0.649840 -0.213407
C6    C     C_R   0.971949 0.574361 0.657562 -0.194258
C7    C     C_R   0.522177 0.063389 0.627533 0.145686
C8    C     C_R   0.512154 0.129265 0.500903 -0.088148
C9    C     C_R   0.516873 0.064702 0.373963 -0.173274
C10   C     C_R   0.516413 0.936000 0.373823 -0.191746
C11   C     C_R   0.512053 0.870821 0.500679 -0.095141
C12   C     C_R   0.300822 0.498552 0.473759 0.789552
C13   C     C_R   0.522317 0.936170 0.627444 0.129191
C14   C     C_3   0.460330 0.928991 0.750531 -0.469987
C15   C     C_3   0.460040 0.069397 0.750476 -0.487590
C16   C     C_R   0.551016 0.590662 0.080835 0.162502
C17   C     C_R   0.441833 0.417798 0.066269 -0.062968
C18   C     C_R   0.441814 0.417799 0.917351 -0.070423
C19   C     C_R   0.551088 0.590418 0.933263 0.238228
C20   C     C_3   0.664071 0.618498 0.942683 -0.582554
C21   C     C_3   0.664332 0.618290 0.102139 -0.224535
C22   C     C_R   0.501848 0.737700 0.500092 0.813703
C23   C     C_R   0.699277 0.496417 0.526027 0.880980
C24   C     C_R   0.812149 0.493553 0.540145 -0.050877
C25   C     C_R   0.188850 0.488778 0.458453 -0.041633
C26   C     C_R   0.032022 0.402948 0.338499 -0.206118
C27   C     C_R   0.138153 0.422421 0.345984 -0.184835
C28   C     C_R   0.133118 0.538979 0.561645 -0.250643
Cu1   Cu    Cu3+1 0.499990 0.499980 0.640670 0.948207
Cu2   Cu    Cu3+1 0.500010 0.500020 0.359330 0.973234
H1    H     H_    0.505430 0.888636 0.845133 0.191891
H2    H     H_    0.381874 0.109774 0.722683 0.194021
H3    H     H_    0.504834 0.109969 0.845145 0.203458
H4    H     H_    0.396328 0.349729 0.115774 0.128163
H5    H     H_    0.396292 0.349726 0.855099 0.134558
H6    H     H_    0.709589 0.540878 0.904833 0.218740
H7    H     H_    0.679465 0.709976 0.895575 0.185750
H8    H     H_    0.710730 0.541701 0.154196 0.188977
H9    H     H_    0.824377 0.607535 0.727422 0.154362
H10   H     H_    0.997046 0.348151 0.251630 0.128220
H11   H     H_    0.011494 0.627758 0.743104 0.141438
H12   H     H_    0.181219 0.381840 0.266404 0.145107
H13   H     H_    0.173103 0.590710 0.648428 0.142705
H14   H     H_    0.515194 0.112847 0.274093 0.168090
H15   H     H_    0.513659 0.888352 0.273862 0.152121
H16   H     H_    0.382313 0.887722 0.722943 0.200360
N1    N     N_R   0.500660 0.500930 0.148010 -0.185610
N2    N     N_R   0.500660 0.500890 0.852110 -0.175774
O1    O     O_R   0.500000 0.319640 0.618810 -0.587775
O2    O     O_R   0.500010 0.319680 0.381230 -0.576081
O3    O     O_R   0.348990 0.499960 0.599490 -0.588325
O4    O     O_R   0.349000 0.500000 0.361910 -0.589305
O5    O     O_R   0.499990 0.680320 0.618770 -0.582912
O6    O     O_R   0.500000 0.680360 0.381190 -0.584177
O7    O     O_R   0.651000 0.500000 0.638090 -0.596333
O8    O     O_R   0.651010 0.500040 0.400510 -0.554709
C29   C     C_2   0.811519 0.348485 0.332660 0.355683
H17   H     H_    0.827061 0.351090 0.223287 0.052118
O9    O     O_2   0.748840 0.273303 0.368015 -0.538239
C30   C     C_2   0.686584 0.742649 0.168200 0.433751
H18   H     H_    0.648566 0.824735 0.122398 0.044561
O10   O     O_2   0.747729 0.752195 0.273904 -0.536991

loop_
_geom_bond_atom_site_label_1
_geom_bond_atom_site_label_2
_ccdc_geom_bond_type
C4    C29   S    
C23   C24   S    
C23   O7    A    
Cu1   Cu2   S    
C25   C27   A    
C1    C8    S    
C11   C13   A    
C1    O2    A    
C14   H1    S    
C28   H13   S    
C19   C20   S    
C7    C13   A    
C12   C25   S    
Cu2   O8    S    
C10   H15   S    
C7    C15   S    
C17   C18   A    
C26   C27   A    
C23   O8    A    
C22   O6    A    
Cu1   O1    S    
C13   C14   S    
C25   C28   A    
C20   H7    S    
Cu2   O6    S    
C27   H12   S    
C26   H10   S    
C29   H17   S    
C16   C21   S    
C5    C24   A    
Cu1   O5    S    
C16   C19   A    
C16   N1    A    
C12   O4    A    
Cu1   O3    S    
C2    C3    A    
C22   O5    A    
C10   C11   A    
C5    H9    S    
Cu2   O2    S    
C5    C6    A    
C4    C24   A    
C29   O9    D    
C17   H4    S    
Cu1   N2    S    
C3    C4    A    
C20   H6    S    
C17   N1    A    
Cu2   N1    S    
C7    C8    A    
C12   O3    A    
C20   C21   S    
C18   H5    S    
C21   C30   S    
C30   O10   D    
C9    C10   A    
Cu2   O4    S    
C14   C15   S    
C8    C9    A    
C9    H14   S    
C2    C28   A    
C11   C22   S    
Cu1   O7    S    
C19   N2    A    
C15   H2    S    
C1    O1    A    
C15   H3    S    
C3    C26   A    
C21   H8    S    
C2    C6    A    
C30   H18   S    
C14   H16   S    
C6    H11   S    
C18   N2    A    
