data_mof_unit_36877.cif
_audit_creation_date              2012-12-10T17:21:12-0500
_audit_creation_method            fapswitch 2.2
_symmetry_space_group_name_H-M    P1
_symmetry_Int_Tables_number       1
_space_group_crystal_system       triclinic
_cell_length_a                    10.224843
_cell_length_b                    10.996662
_cell_length_c                    11.099614
_cell_angle_alpha                 92.307546
_cell_angle_beta                  94.082107
_cell_angle_gamma                 82.385556
_cell_volume                      1233.28779718

loop_
_atom_site_label
_atom_site_type_symbol
_atom_type_description
_atom_site_fract_x
_atom_site_fract_y
_atom_site_fract_z
_atom_type_partial_charge
C1    C     C_R   0.446840 0.513177 0.269411 0.979630
C2    C     C_3   0.503005 0.877392 0.479077 -0.286364
C3    C     C_3   0.514027 0.936348 0.611954 -0.315716
C4    C     C_3   0.364689 0.938380 0.410480 0.108103
C5    C     C_2   0.421402 0.516605 0.139997 -0.205146
C6    C     C_2   0.519390 0.490478 0.063361 -0.097505
C7    C     C_2   0.579215 0.481419 0.857023 -0.418373
C8    C     C_2   0.486555 0.466974 0.935141 0.363654
C9    C     C_2   0.061974 0.529895 0.472649 -0.108475
C10   C     C_2   0.929009 0.508784 0.514215 0.360004
C11   C     C_R   0.495465 0.259540 0.482566 0.968984
C12   C     C_R   0.552913 0.486165 0.729663 1.001586
C13   C     C_R   0.500293 0.741599 0.492488 0.897892
C14   C     C_3   0.633341 0.054309 0.415700 0.213169
C15   C     C_3   0.630427 0.906854 0.408006 0.135376
C16   C     C_3   0.486889 0.079529 0.608819 -0.221866
C17   C     C_3   0.373157 0.080535 0.396174 0.155623
C18   C     C_3   0.497862 0.121419 0.472625 -0.320478
H1    H     H_    0.440814 0.900955 0.665022 0.224941
H2    H     H_    0.677034 0.502698 0.886837 0.154903
H3    H     H_    0.318319 0.532279 0.107643 0.216416
H4    H     H_    0.152663 0.516235 0.634517 0.274942
H5    H     H_    0.289740 0.132109 0.441097 0.184219
N1    N     N_2   0.157300 0.551950 0.551120 -0.125013
N2    N     N_2   0.842730 0.448000 0.448950 -0.208224
O1    O     O_R   0.568940 0.489540 0.307530 -0.572503
O2    O     O_R   0.348880 0.522880 0.340350 -0.623190
O3    O     O_R   0.610030 0.298130 0.483570 -0.604270
O4    O     O_R   0.389960 0.331470 0.516390 -0.622796
O5    O     O_R   0.651120 0.477120 0.659650 -0.537006
O6    O     O_R   0.431060 0.510460 0.692470 -0.563121
O7    O     O_R   0.610040 0.668530 0.483610 -0.573339
O8    O     O_R   0.389970 0.701870 0.516430 -0.546522
Zn1   Zn    Zn3+2 0.646940 0.477740 0.478080 1.116694
Zn2   Zn    Zn3+2 0.353060 0.522260 0.521920 1.114142
C19   C     C_1   0.746541 0.083890 0.500847 0.252571
N3    N     N_1   0.834669 0.106648 0.565458 -0.071415
S1    S     S_3+6 0.208124 0.920181 0.480235 0.045954
O9    O     O_2   0.223188 0.896236 0.612888 -0.243971
O10   O     O_2   0.107435 0.031803 0.461568 -0.270025
O11   O     O_3   0.141200 0.800416 0.413630 -0.528741
H6    H     H_    0.076598 0.835661 0.349415 0.386783
C20   C     C_1   0.353169 0.115664 0.653168 0.349725
N4    N     N_1   0.248179 0.141084 0.687136 -0.023115
S2    S     S_3+6 0.328490 0.417916 0.892629 0.050272
O12   O     O_2   0.226848 0.529146 0.878054 -0.231997
O13   O     O_2   0.330105 0.344099 0.776834 -0.327632
O14   O     O_3   0.283349 0.330831 0.999359 -0.503672
H7    H     H_    0.339721 0.251014 0.990045 0.405805
C21   C     C_1   0.659364 0.489318 0.100579 0.356453
N5    N     N_1   0.770890 0.490458 0.125826 -0.165109
S3    S     S_3+6 0.897386 0.572092 0.663788 0.064091
O15   O     O_2   0.995757 0.655227 0.712310 -0.258856
O16   O     O_2   0.766790 0.649189 0.666198 -0.301475
O17   O     O_3   0.903725 0.454798 0.757749 -0.523135
H8    H     H_    0.918939 0.491020 0.839901 0.393626
C22   C     C_1   0.073781 0.549405 0.346255 0.307733
N6    N     N_1   0.081163 0.565426 0.244649 -0.141954
C23   C     C_1   0.887906 0.373662 0.352878 0.362050
N7    N     N_1   0.926270 0.312067 0.272812 -0.100616
S4    S     S_3+6 0.680562 0.117747 0.274072 0.117135
O18   O     O_2   0.613019 0.076870 0.158836 -0.154759
O19   O     O_2   0.658865 0.254643 0.273300 -0.292726
O20   O     O_3   0.844082 0.074923 0.265120 -0.487156
H9    H     H_    0.861501 0.086905 0.180010 0.399448
S5    S     S_3+6 0.650040 0.830264 0.257245 0.040956
O21   O     O_2   0.650466 0.695545 0.267188 -0.359959
O22   O     O_2   0.549514 0.870824 0.157742 -0.221367
O23   O     O_3   0.799488 0.847371 0.210782 -0.502275
H10   H     H_    0.811051 0.791606 0.138896 0.390423
C24   C     C_1   0.757571 0.846592 0.465575 0.332784
N8    N     N_1   0.859491 0.803334 0.506448 -0.054676
C25   C     C_1   0.572952 0.141904 0.699480 0.216878
N9    N     N_1   0.639287 0.189765 0.770311 -0.139548
C26   C     C_1   0.635851 0.896345 0.688292 0.223527
N10   N     N_1   0.729392 0.872570 0.752321 -0.048475
S6    S     S_3+6 0.326320 0.144826 0.248544 0.062240
O24   O     O_2   0.380397 0.263832 0.238994 -0.289191
O25   O     O_2   0.367058 0.061354 0.144010 -0.230325
O26   O     O_3   0.160844 0.172707 0.235995 -0.524839
H11   H     H_    0.138413 0.197393 0.151390 0.403560
C27   C     C_1   0.341105 0.872949 0.293973 0.430968
N11   N     N_1   0.315855 0.819533 0.205030 -0.116346

loop_
_geom_bond_atom_site_label_1
_geom_bond_atom_site_label_2
_ccdc_geom_bond_type
S5    O22   D    
O17   H8    S    
C11   C18   S    
C25   N9    T    
C14   C18   S    
C13   O7    A    
C26   N10   T    
C10   S3    S    
C7    C8    D    
S6    O24   D    
C17   H5    S    
C1    C5    S    
C19   N3    T    
C14   C19   S    
S1    O9    D    
S2    O14   S    
S5    O23   S    
O11   H6    S    
S4    O19   D    
C2    C13   S    
C8    S2    S    
O1    Zn1   S    
C3    H1    S    
C3    C26   S    
C9    C10   S    
C9    C22   S    
S3    O17   S    
N2    Zn1   S    
S2    O13   D    
S5    O21   D    
O3    Zn1   S    
C23   N7    T    
O23   H10   S    
S3    O16   D    
C17   C18   S    
S6    O25   D    
C7    C12   S    
N1    Zn2   S    
O5    Zn1   S    
C16   C25   S    
S1    O11   S    
C6    C8    S    
O2    Zn2   S    
S2    O12   D    
C15   S5    S    
O7    Zn1   S    
S4    O20   S    
C2    C4    S    
C20   N4    T    
C13   O8    A    
C17   S6    S    
C21   N5    T    
C5    H3    S    
C6    C21   S    
C2    C15   S    
C16   C20   S    
C4    C17   S    
C10   N2    D    
O14   H7    S    
C4    S1    S    
C7    H2    S    
C12   O6    A    
C1    O1    A    
O6    Zn2   S    
S3    O15   D    
S6    O26   S    
C12   O5    A    
O26   H11   S    
C9    N1    D    
C15   C24   S    
O4    Zn2   S    
O20   H9    S    
C2    C3    S    
C24   N8    T    
S1    O10   D    
C14   S4    S    
C22   N6    T    
C5    C6    D    
C11   O3    A    
O8    Zn2   S    
H4    N1    S    
S4    O18   D    
C4    C27   S    
C11   O4    A    
C16   C18   S    
C27   N11   T    
C1    O2    A    
C14   C15   S    
N2    C23   S    
C3    C16   S    
