data_mof_unit_36367.cif
_audit_creation_date              2012-12-10T18:42:56-0500
_audit_creation_method            fapswitch 2.2
_symmetry_space_group_name_H-M    P1
_symmetry_Int_Tables_number       1
_space_group_crystal_system       triclinic
_cell_length_a                    18.113853
_cell_length_b                    18.104652
_cell_length_c                    18.112446
_cell_angle_alpha                 120.037078
_cell_angle_beta                  89.776992
_cell_angle_gamma                 60.112061
_cell_volume                      4196.66477683

loop_
_atom_site_label
_atom_site_type_symbol
_atom_type_description
_atom_site_fract_x
_atom_site_fract_y
_atom_site_fract_z
_atom_type_partial_charge
C1    C     C_R   0.890804 0.217015 0.608402 0.898950
C2    C     C_3   0.551426 0.897966 0.949016 0.068460
C3    C     C_3   0.412911 0.034021 0.017531 -0.129732
C4    C     C_3   0.587209 0.966061 0.982602 -0.134718
C5    C     C_3   0.037260 0.403644 0.474065 0.568091
C6    C     C_3   0.963012 0.596931 0.526519 0.575230
C7    C     C_3   0.083329 0.460837 0.508692 -0.356754
C8    C     C_3   0.916883 0.539928 0.491984 -0.373887
C9    C     C_3   0.051344 0.500051 0.448836 -0.066145
C10   C     C_3   0.948795 0.500451 0.551659 -0.066307
C11   C     C_3   0.006651 0.441079 0.413050 -0.275034
C12   C     C_R   0.109401 0.783041 0.391560 0.892727
C13   C     C_3   0.993451 0.559556 0.587568 -0.266207
C14   C     C_3   0.931686 0.032854 0.470403 0.427011
C15   C     C_3   0.068796 0.967587 0.529158 0.423294
C16   C     C_R   0.608463 0.783281 0.891632 0.758984
C17   C     C_R   0.391550 0.216744 0.108415 0.763921
C18   C     C_3   0.950527 0.964078 0.504421 -0.529989
C19   C     C_3   0.049695 0.036361 0.495062 -0.533585
C20   C     C_3   0.052172 0.897212 0.448639 -0.185880
C21   C     C_3   0.948325 0.102950 0.551024 -0.183725
C22   C     C_3   0.031780 0.966302 0.414991 0.454044
C23   C     C_3   0.552584 0.407262 0.413641 0.274061
C24   C     C_3   0.968700 0.033887 0.584521 0.452002
C25   C     C_3   0.935183 0.495100 0.030239 -0.305362
C26   C     C_3   0.064869 0.505062 0.969751 -0.306390
C27   C     C_3   0.950224 0.581473 0.084344 0.561078
C28   C     C_3   0.049863 0.418663 0.915602 0.561762
C29   C     C_3   0.051923 0.498836 0.050364 -0.074231
C30   C     C_3   0.948149 0.501239 0.949576 -0.074267
C31   C     C_3   0.038602 0.410735 0.995193 -0.307888
C32   C     C_3   0.961482 0.589349 0.004709 -0.308839
C33   C     C_3   0.557476 0.401496 0.923380 -0.321065
C34   C     C_3   0.451020 0.587274 0.581071 0.258671
C35   C     C_3   0.442372 0.598058 0.075776 -0.315169
C36   C     C_3   0.452618 0.465309 0.953333 -0.353258
C37   C     C_3   0.547233 0.534217 0.045892 -0.344988
C38   C     C_3   0.449264 0.499347 0.051025 -0.060795
C39   C     C_3   0.550680 0.500128 0.948280 -0.059888
C40   C     C_R   0.608272 0.499912 0.891272 0.816684
C41   C     C_R   0.391735 0.499877 0.108483 0.825140
C42   C     C_3   0.552558 0.436632 0.021280 0.595575
C43   C     C_3   0.447428 0.562815 0.977846 0.593034
C44   C     C_R   0.891909 0.499720 0.608448 0.836700
C45   C     C_3   0.482609 0.964848 0.922061 -0.181508
C46   C     C_R   0.108134 0.500354 0.391619 0.841612
C47   C     C_R   0.891508 0.500192 0.891730 0.846857
C48   C     C_R   0.108524 0.499802 0.108243 0.846548
C49   C     C_R   0.608798 0.501563 0.608272 0.936792
C50   C     C_R   0.391704 0.497236 0.391126 0.950144
C51   C     C_3   0.571407 0.491056 0.460635 0.266913
C52   C     C_3   0.433876 0.501967 0.535125 0.247256
C53   C     C_3   0.469469 0.577762 0.492742 0.309805
C54   C     C_3   0.535286 0.416074 0.502524 0.312603
C55   C     C_3   0.450289 0.493478 0.446273 -0.330393
C56   C     C_3   0.517506 0.035260 0.078077 -0.192932
C57   C     C_3   0.553114 0.501481 0.550092 -0.331312
C58   C     C_3   0.455627 0.728833 0.533441 0.163935
C59   C     C_3   0.434954 0.799398 0.502826 -0.851766
C60   C     C_3   0.552511 0.262349 0.458444 0.148295
C61   C     C_3   0.571791 0.192217 0.489266 -0.886349
C62   C     C_3   0.851903 0.993732 0.376193 0.123091
C63   C     C_3   0.814638 0.018045 0.310261 -0.816326
C64   C     C_3   0.148365 0.011319 0.620946 0.133432
C65   C     C_3   0.189751 0.990675 0.686877 -0.860308
C66   C     C_3   0.045715 0.002889 0.312843 0.140371
C67   C     C_3   0.517433 0.034703 0.956530 -0.185369
C68   C     C_3   0.081478 0.955472 0.212944 -0.865961
C69   C     C_3   0.958030 0.996428 0.686830 0.145775
C70   C     C_3   0.918364 0.044144 0.786098 -0.871345
C71   C     C_3   0.812771 0.736214 0.187195 0.095992
C72   C     C_3   0.755962 0.812558 0.287185 -0.832872
C73   C     C_3   0.188283 0.265854 0.812516 0.095352
C74   C     C_3   0.244915 0.190838 0.712513 -0.835984
C75   C     C_3   0.696736 0.326508 0.012230 0.117645
C76   C     C_3   0.753258 0.249594 0.034908 -0.860810
C77   C     C_3   0.304904 0.668972 0.980761 0.107852
C78   C     C_3   0.482686 0.965395 0.043616 -0.177676
C79   C     C_3   0.249929 0.747724 0.959416 -0.828625
C80   C     C_3   0.724283 0.408975 0.389194 0.132427
C81   C     C_3   0.784569 0.444813 0.422787 -0.781691
C82   C     C_3   0.365394 0.506318 0.646944 0.124082
C83   C     C_3   0.275917 0.536056 0.694461 -0.870209
C84   C     C_3   0.626235 0.306644 0.256782 0.153421
C85   C     C_3   0.614642 0.230849 0.177007 -0.745784
C86   C     C_3   0.311378 0.740819 0.683729 0.130960
C87   C     C_3   0.264393 0.842545 0.778055 -0.874398
C88   C     C_3   0.160241 0.231393 0.386322 0.092781
C89   C     C_3   0.448678 0.102106 0.051106 0.065798
C90   C     C_3   0.189062 0.120201 0.343129 -0.836907
C91   C     C_3   0.840641 0.769633 0.614796 0.093587
C92   C     C_3   0.812455 0.880521 0.657427 -0.833635
H1    H     H_    0.911455 0.933146 0.506555 0.171921
H2    H     H_    0.595162 0.211777 0.386431 0.192119
H3    H     H_    0.986007 0.609252 0.659603 0.169342
H4    H     H_    0.480184 0.302475 0.463289 0.153720
H5    H     H_    0.527194 0.239466 0.560018 0.250687
H6    H     H_    0.559231 0.132947 0.444609 0.206939
H7    H     H_    0.643361 0.151464 0.486048 0.281159
H8    H     H_    0.804349 0.990991 0.411880 0.136947
H9    H     H_    0.917557 0.914712 0.335465 0.170882
H10   H     H_    0.865240 0.011684 0.268289 0.248421
H11   H     H_    0.799288 0.961845 0.265038 0.204194
H12   H     H_    0.752011 0.098535 0.347853 0.281427
H13   H     H_    0.088387 0.067683 0.492898 0.169356
H14   H     H_    0.081987 0.089564 0.662263 0.172825
H15   H     H_    0.193106 0.014203 0.581901 0.138562
H16   H     H_    0.257141 0.914996 0.649454 0.261483
H17   H     H_    0.197474 0.053607 0.733857 0.215349
H18   H     H_    0.145039 0.988865 0.727009 0.257064
H19   H     H_    0.078272 0.041841 0.349434 0.149968
H20   H     H_    0.971389 0.062291 0.338491 0.185819
H21   H     H_    0.050807 0.914971 0.174107 0.260148
H22   H     H_    0.064127 0.018002 0.204112 0.207724
H23   H     H_    0.156170 0.898466 0.186115 0.260514
H24   H     H_    0.152077 0.428364 0.513919 0.153868
H25   H     H_    0.032747 0.942231 0.665296 0.186241
H26   H     H_    0.931043 0.951426 0.646916 0.151005
H27   H     H_    0.843388 0.095796 0.808856 0.259913
H28   H     H_    0.938760 0.981226 0.795304 0.209916
H29   H     H_    0.943416 0.090559 0.828134 0.261420
H30   H     H_    0.780743 0.696153 0.150628 0.124237
H31   H     H_    0.812318 0.781250 0.162048 0.136334
H32   H     H_    0.786911 0.852319 0.326300 0.248630
H33   H     H_    0.686578 0.872244 0.296851 0.201450
H34   H     H_    0.751847 0.770095 0.313056 0.258029
H35   H     H_    0.847907 0.574839 0.487830 0.149003
H36   H     H_    0.191015 0.219761 0.837385 0.135525
H37   H     H_    0.218973 0.307657 0.849230 0.123505
H38   H     H_    0.247044 0.234692 0.687304 0.256807
H39   H     H_    0.314979 0.132281 0.702573 0.202131
H40   H     H_    0.215189 0.149590 0.672960 0.250809
H41   H     H_    0.880591 0.492904 0.054901 0.157735
H42   H     H_    0.119360 0.507463 0.945202 0.156295
H43   H     H_    0.071613 0.337612 0.991288 0.160766
H44   H     H_    0.928590 0.662336 0.008402 0.159989
H45   H     H_    0.412760 0.437870 0.917190 0.145843
H46   H     H_    0.528434 0.688054 0.526320 0.181968
H47   H     H_    0.587135 0.561556 0.082063 0.148762
H48   H     H_    0.605871 0.321580 0.860835 0.160120
H49   H     H_    0.393718 0.678101 0.138084 0.162061
H50   H     H_    0.708815 0.388522 0.043257 0.144493
H51   H     H_    0.720086 0.283494 0.937226 0.150329
H52   H     H_    0.743566 0.185812 0.004157 0.255599
H53   H     H_    0.825961 0.214984 0.007711 0.216574
H54   H     H_    0.733016 0.290487 0.109502 0.248428
H55   H     H_    0.278375 0.709310 0.055160 0.149757
H56   H     H_    0.295496 0.605002 0.944420 0.136251
H57   H     H_    0.415160 0.778529 0.606147 0.148222
H58   H     H_    0.274069 0.709540 0.885357 0.260199
H59   H     H_    0.177420 0.779048 0.981521 0.208685
H60   H     H_    0.256879 0.813542 0.995635 0.258379
H61   H     H_    0.748821 0.364993 0.314589 0.129629
H62   H     H_    0.732433 0.354553 0.405990 0.184830
H63   H     H_    0.755668 0.502344 0.497487 0.259275
H64   H     H_    0.853669 0.376741 0.403250 0.234621
H65   H     H_    0.788853 0.482958 0.391972 0.228946
H66   H     H_    0.378644 0.563139 0.696030 0.184934
H67   H     H_    0.419345 0.427607 0.628264 0.179372
H68   H     H_    0.363036 0.840384 0.507068 0.271837
H69   H     H_    0.261538 0.479321 0.648005 0.262026
H70   H     H_    0.279263 0.535423 0.755380 0.213969
H71   H     H_    0.220207 0.615628 0.715843 0.256842
H72   H     H_    0.698343 0.276038 0.235991 0.118930
H73   H     H_    0.585192 0.385305 0.269966 0.187260
H74   H     H_    0.552177 0.239768 0.199958 0.281801
H75   H     H_    0.610889 0.245689 0.124175 0.245360
H76   H     H_    0.672712 0.149038 0.147215 0.207986
H77   H     H_    0.279994 0.700462 0.680015 0.188217
H78   H     H_    0.299088 0.759015 0.632996 0.179076
H79   H     H_    0.448018 0.858431 0.546729 0.198394
H80   H     H_    0.290562 0.888378 0.783485 0.256258
H81   H     H_    0.190365 0.889389 0.791778 0.211663
H82   H     H_    0.276902 0.825680 0.829595 0.272004
H83   H     H_    0.530620 0.065263 0.921964 0.131526
H84   H     H_    0.469497 0.934876 0.078226 0.131716
H85   H     H_    0.469348 0.933862 0.857093 0.132545
H86   H     H_    0.530763 0.066346 0.143039 0.127126
H87   H     H_    0.340497 0.063612 0.032719 0.144141
H88   H     H_    0.659608 0.936529 0.967449 0.142548
H89   H     H_    0.207690 0.242063 0.421948 0.140281
H90   H     H_    0.478689 0.752035 0.431637 0.266255
H91   H     H_    0.165339 0.241320 0.330935 0.136367
H92   H     H_    0.145532 0.105984 0.303173 0.250879
H93   H     H_    0.260420 0.063914 0.297048 0.207286
H94   H     H_    0.183140 0.107563 0.396262 0.254987
H95   H     H_    0.836038 0.759908 0.670390 0.135408
H96   H     H_    0.792542 0.759506 0.580024 0.139249
H97   H     H_    0.817878 0.892944 0.604044 0.255490
H98   H     H_    0.741369 0.937328 0.704228 0.205473
H99   H     H_    0.856712 0.894238 0.696489 0.252668
H100  H     H_    0.013909 0.391397 0.341083 0.168428
O1    O     O_3   0.750010 0.499980 0.749990 -0.506182
O2    O     O_R   0.305750 0.265450 0.132730 -0.654323
O3    O     O_R   0.867280 0.265410 0.571220 -0.623445
O4    O     O_R   0.132720 0.734590 0.428780 -0.627989
O5    O     O_R   0.571230 0.734580 0.867270 -0.631347
O6    O     O_R   0.428770 0.265420 0.132730 -0.662075
O7    O     O_R   0.694200 0.438470 0.867270 -0.660493
O8    O     O_R   0.305800 0.561530 0.132730 -0.658308
O9    O     O_R   0.867340 0.561470 0.694210 -0.656007
O10   O     O_R   0.132660 0.438530 0.305790 -0.659949
O11   O     O_R   0.867310 0.438430 0.867270 -0.636644
O12   O     O_3   0.249990 0.500020 0.250010 -0.503387
O13   O     O_R   0.132690 0.561570 0.132730 -0.636782
O14   O     O_R   0.694200 0.438520 0.571220 -0.652415
O15   O     O_R   0.305800 0.561480 0.428780 -0.611688
O16   O     O_R   0.867340 0.561440 0.867270 -0.647218
O17   O     O_R   0.132660 0.438560 0.132730 -0.647395
O18   O     O_R   0.571190 0.561530 0.694210 -0.604807
O19   O     O_R   0.428810 0.438470 0.305790 -0.662172
O20   O     O_3   0.432827 0.658992 0.480801 -0.591792
O21   O     O_3   0.573996 0.333180 0.512456 -0.596375
O22   O     O_3   0.859449 0.073898 0.440831 -0.601646
O23   O     O_R   0.571190 0.561490 0.867270 -0.596100
O24   O     O_3   0.140732 0.929469 0.560213 -0.606138
O25   O     O_3   0.066603 0.922868 0.322693 -0.588672
O26   O     O_3   0.933558 0.077124 0.676706 -0.588455
O27   O     O_3   0.902040 0.664942 0.176763 -0.612174
O28   O     O_3   0.098152 0.335168 0.823211 -0.612101
O29   O     O_3   0.604517 0.369932 0.046942 -0.603677
O30   O     O_3   0.396793 0.629383 0.951684 -0.591251
O31   O     O_3   0.634911 0.497802 0.423862 -0.623652
O32   O     O_3   0.360647 0.505753 0.568774 -0.613494
O33   O     O_3   0.606245 0.305849 0.331603 -0.639894
O34   O     O_R   0.428810 0.438510 0.132730 -0.604324
O35   O     O_3   0.404553 0.680123 0.669879 -0.599553
O36   O     O_3   0.071358 0.302169 0.448734 -0.607653
O37   O     O_3   0.929157 0.698259 0.551568 -0.605447
O38   O     O_R   0.867310 0.438490 0.571220 -0.636790
O39   O     O_R   0.132690 0.561510 0.428780 -0.613500
O40   O     O_R   0.867280 0.265380 0.694210 -0.607823
O41   O     O_R   0.132720 0.734620 0.305790 -0.607285
O42   O     O_R   0.694250 0.734550 0.867270 -0.659184
Zn1   Zn    Zn3+2 0.618190 0.587870 0.793920 1.010139
Zn2   Zn    Zn3+2 0.381810 0.412130 0.206080 0.960046
Zn3   Zn    Zn3+2 0.793940 0.412090 0.793920 0.992115
Zn4   Zn    Zn3+2 0.206060 0.587910 0.206080 0.993606
Zn5   Zn    Zn3+2 0.793970 0.587840 0.793920 0.947243
Zn6   Zn    Zn3+2 0.206030 0.412160 0.206080 0.950227
Zn7   Zn    Zn3+2 0.793940 0.412130 0.618200 0.988090
Zn8   Zn    Zn3+2 0.206060 0.587870 0.381800 1.024210

loop_
_geom_bond_atom_site_label_1
_geom_bond_atom_site_label_2
_ccdc_geom_bond_type
C25   C31   S    
C54   O21   S    
C66   C68   S    
C91   H96   S    
C8    C10   S    
C1    C21   S    
C47   O11   A    
C74   H40   S    
C27   C29   S    
C86   H77   S    
C12   O4    A    
C46   O39   A    
C14   C18   S    
C71   H30   S    
C2    C4    S    
C61   H6    S    
C70   H29   S    
O17   Zn6   S    
O12   Zn6   S    
C6    C9    S    
O5    Zn1   S    
O34   Zn2   S    
C80   H61   S    
O41   Zn4   S    
C56   H86   S    
C26   C32   S    
C6    C13   S    
C33   C39   S    
C81   H64   S    
C47   O16   A    
C91   O37   S    
C26   H42   S    
C33   C42   S    
C14   C21   S    
C71   H31   S    
C35   C37   S    
C52   C55   S    
C5    C11   S    
C66   O25   S    
C23   C54   S    
C63   H10   S    
O10   Zn6   S    
C82   H66   S    
C82   O32   S    
C33   H48   S    
C69   H26   S    
C67   C89   S    
C33   C36   S    
C71   O27   S    
O19   Zn2   S    
C14   O22   S    
C11   H100  S    
C73   C74   S    
C69   H25   S    
C37   C42   S    
C44   O38   A    
O1    Zn5   S    
C3    H87   S    
C84   H73   S    
C4    C67   S    
C53   O20   S    
C60   O21   S    
C67   H83   S    
C48   O13   A    
C45   C67   S    
C34   C57   S    
C26   C29   S    
C51   C57   S    
C66   H19   S    
C42   O29   S    
C25   H41   S    
C36   H45   S    
C77   H55   S    
C65   H16   S    
C84   H72   S    
C58   H57   S    
C45   H85   S    
C68   H21   S    
C62   H9    S    
C50   O15   A    
C58   H46   S    
C77   C79   S    
O3    Zn7   S    
C46   O10   A    
C76   H54   S    
C9    C46   S    
C28   O28   S    
C74   H39   S    
C4    C56   S    
C78   H84   S    
C86   O35   S    
C62   O22   S    
C17   O2    A    
C61   H7    S    
C4    H88   S    
C41   O8    A    
C59   H79   S    
C84   O33   S    
O7    Zn3   S    
O16   Zn5   S    
C64   O24   S    
C23   O33   S    
C52   C54   S    
O9    Zn5   S    
O8    Zn4   S    
C53   C55   S    
C2    C45   S    
C15   C20   S    
C87   H81   S    
C73   H37   S    
C81   H65   S    
C29   C48   S    
C10   C44   S    
C69   O26   S    
C85   H75   S    
C30   C47   S    
C19   C22   S    
C17   C89   S    
C84   C85   S    
C38   C41   S    
C63   H11   S    
O15   Zn8   S    
C70   H28   S    
C39   C40   S    
C5    C7    S    
C86   C87   S    
C15   O24   S    
C88   H91   S    
C6    C8    S    
C90   H94   S    
C56   C78   S    
C58   C59   S    
C3    C45   S    
O12   Zn2   S    
C24   O26   S    
C73   O28   S    
O4    Zn8   S    
C60   C61   S    
C51   C53   S    
C7    H24   S    
C49   O18   A    
C59   H90   S    
C15   C19   S    
C75   C76   S    
C62   C63   S    
C2    C78   S    
C75   H50   S    
C92   H98   S    
C59   H68   S    
C8    H35   S    
C23   C51   S    
C16   O42   A    
C70   H27   S    
C65   H17   S    
C12   C20   S    
O23   Zn1   S    
C17   O6    A    
O18   Zn1   S    
C49   O14   A    
C80   H62   S    
C9    C11   S    
C77   H56   S    
O1    Zn3   S    
C75   H51   S    
C35   H49   S    
C79   H58   S    
C62   H8    S    
C19   H13   S    
O12   Zn4   S    
C56   C89   S    
C40   O7    A    
C83   H70   S    
C13   H3    S    
C76   H53   S    
C52   O32   S    
C74   H38   S    
O40   Zn3   S    
C18   C24   S    
C80   C81   S    
C21   C24   S    
O14   Zn7   S    
C85   H74   S    
C34   C52   S    
C60   H4    S    
C91   C92   S    
C35   C43   S    
C92   H97   S    
C64   H15   S    
C32   H44   S    
C79   H59   S    
C25   C30   S    
C7    C9    S    
C87   H82   S    
C83   H71   S    
C41   O34   A    
C15   C24   S    
C88   C90   S    
C1    O3    A    
C27   C32   S    
C86   H78   S    
C85   H76   S    
O1    Zn7   S    
C22   O25   S    
C28   C31   S    
C61   H5    S    
O39   Zn8   S    
C90   H92   S    
C63   H12   S    
C76   H52   S    
C10   C13   S    
C50   O19   A    
C49   C57   S    
C39   C43   S    
C92   H99   S    
C64   H14   S    
C90   H93   S    
C58   O20   S    
C12   O41   A    
C25   C27   S    
C73   H36   S    
C20   C22   S    
C72   H33   S    
C26   C28   S    
C50   C55   S    
C81   H63   S    
C5    O36   S    
C43   O30   S    
C3    C89   S    
O12   Zn8   S    
C66   H20   S    
C64   C65   S    
C14   C22   S    
C36   C38   S    
C34   O35   S    
C23   C55   S    
C5    C10   S    
C37   C39   S    
O38   Zn7   S    
O6    Zn2   S    
C80   O31   S    
C30   C32   S    
C82   H67   S    
C1    O40   A    
C88   H89   S    
C88   O36   S    
C2    C16   S    
C8    C11   S    
C87   H80   S    
C40   O23   A    
C28   C30   S    
C18   C20   S    
O42   Zn5   S    
C83   H69   S    
O13   Zn4   S    
C69   C70   S    
C65   H18   S    
O11   Zn3   S    
C31   H43   S    
C68   H23   S    
C38   C42   S    
C77   O30   S    
C7    C13   S    
C71   C72   S    
C48   O17   A    
C75   O29   S    
C34   C53   S    
C29   C31   S    
C82   C83   S    
C37   H47   S    
C6    O37   S    
C72   H34   S    
C18   H1    S    
C35   C38   S    
C36   C43   S    
C27   O27   S    
C51   O31   S    
O2    Zn6   S    
C44   O9    A    
C3    C78   S    
C91   H95   S    
O1    Zn1   S    
C72   H32   S    
C16   O5    A    
C68   H22   S    
C79   H60   S    
C19   C21   S    
C54   C57   S    
C60   H2    S    
