data_mof_unit_24541.cif
_audit_creation_date              2012-12-10T19:07:53-0500
_audit_creation_method            fapswitch 2.2
_symmetry_space_group_name_H-M    P1
_symmetry_Int_Tables_number       1
_space_group_crystal_system       triclinic
_cell_length_a                    13.038588
_cell_length_b                    13.637453
_cell_length_c                    23.339406
_cell_angle_alpha                 90.133664
_cell_angle_beta                  92.663667
_cell_angle_gamma                 85.579475
_cell_volume                      4133.233448

loop_
_atom_site_label
_atom_site_type_symbol
_atom_type_description
_atom_site_fract_x
_atom_site_fract_y
_atom_site_fract_z
_atom_type_partial_charge
C1    C     C_R   0.481047 0.685028 0.499113 0.981518
C2    C     C_R   0.495355 0.409454 0.298151 0.304008
C3    C     C_R   0.448142 0.575574 0.761853 0.017399
C4    C     C_R   0.476291 0.409052 0.238232 0.033763
C5    C     C_R   0.455609 0.482431 0.788894 0.074598
C6    C     C_R   0.461489 0.499428 0.208332 0.073925
C7    C     C_1   0.534542 0.212114 0.499838 0.013415
C8    C     C_1   0.465635 0.787874 0.498341 -0.096548
C9    C     C_2   0.545316 0.020890 0.497415 0.160069
C10   C     C_2   0.454866 0.979135 0.497391 0.162232
C11   C     C_1   0.456507 0.875101 0.497770 0.067600
C12   C     C_R   0.518957 0.314962 0.500806 1.025052
C13   C     C_1   0.543764 0.124907 0.498716 0.091449
C14   C     C_2   0.033299 0.473549 0.483024 0.193342
C15   C     C_2   0.966699 0.526458 0.516998 0.187007
C16   C     C_R   0.499612 0.497450 0.610772 1.075930
C17   C     C_R   0.500455 0.502225 0.389177 1.073754
C18   C     C_1   0.854598 0.519554 0.512152 0.281154
C19   C     C_1   0.145399 0.480451 0.487862 0.283693
C20   C     C_R   0.549368 0.497928 0.120691 0.609992
C21   C     C_R   0.362959 0.477581 0.876061 0.629378
C22   C     C_R   0.367387 0.487178 0.117430 0.643285
C23   C     C_R   0.480855 0.395104 0.758306 0.374055
C24   C     C_R   0.546032 0.479822 0.880290 0.631117
C25   C     C_R   0.365130 0.473142 0.057649 -0.204274
C26   C     C_R   0.550520 0.473368 0.940322 -0.165764
C27   C     C_R   0.457750 0.480254 0.028949 -0.068960
C28   C     C_R   0.456352 0.476060 0.968569 -0.084265
C29   C     C_R   0.551627 0.492791 0.060509 -0.063035
C30   C     C_R   0.360765 0.476743 0.936559 -0.066544
C31   C     C_R   0.273279 0.455906 0.025632 0.374060
C32   C     C_R   0.645321 0.470188 0.972873 0.443145
C33   C     C_R   0.267774 0.473334 0.966015 0.036238
C34   C     C_R   0.466260 0.590558 0.236908 0.359112
C35   C     C_R   0.644594 0.495707 0.031247 -0.002079
C36   C     C_3   0.162775 0.493203 0.935699 -0.556104
C37   C     C_3   0.741043 0.532713 0.059985 -0.543760
C38   C     C_3   0.421642 0.667423 0.796476 -0.601074
C39   C     C_3   0.472289 0.312959 0.205674 -0.592195
C40   C     C_3   0.351824 0.037884 0.498133 -0.754308
C41   C     C_3   0.648369 0.962154 0.496759 -0.750391
C42   C     C_R   0.512133 0.402268 0.701427 0.175244
C43   C     C_R   0.495266 0.590802 0.296115 0.251128
C44   C     C_R   0.496827 0.494385 0.673143 -0.376490
C45   C     C_R   0.501133 0.500705 0.326656 -0.362388
C46   C     C_R   0.466021 0.581598 0.702822 0.393201
H1    H     H_    0.273502 0.275435 0.092422 0.344537
H2    H     H_    0.523604 0.808108 0.156908 0.394489
H3    H     H_    0.714450 0.359968 0.647033 0.375117
H4    H     H_    0.631556 0.742534 0.401367 0.370810
H5    H     H_    0.339096 0.760694 0.601587 0.383729
H6    H     H_    0.676513 0.315542 0.357947 0.387003
H7    H     H_    0.349777 0.706470 0.778143 0.272925
H8    H     H_    0.407703 0.653407 0.841987 0.189412
H9    H     H_    0.486595 0.715435 0.796786 0.266854
H10   H     H_    0.451805 0.321359 0.159385 0.184025
H11   H     H_    0.412845 0.268924 0.223239 0.279186
H12   H     H_    0.806740 0.315154 0.878493 0.408389
H13   H     H_    0.549221 0.271980 0.208558 0.260973
H14   H     H_    0.287588 0.988781 0.497234 0.257650
H15   H     H_    0.347702 0.083098 0.537719 0.255450
H16   H     H_    0.341284 0.086829 0.460002 0.263380
H17   H     H_    0.712484 0.011300 0.496443 0.263766
H18   H     H_    0.659723 0.914755 0.535517 0.257854
H19   H     H_    0.651809 0.915371 0.457779 0.239417
H20   H     H_    0.945247 0.705769 0.632977 0.406959
H21   H     H_    0.054760 0.294453 0.366935 0.408598
H22   H     H_    0.100549 0.508591 0.965988 0.256522
H23   H     H_    0.161413 0.560909 0.909268 0.237142
H24   H     H_    0.143647 0.429341 0.908758 0.287363
H25   H     H_    0.795836 0.555193 0.028462 0.247470
H26   H     H_    0.721022 0.600391 0.084923 0.251502
H27   H     H_    0.781073 0.474992 0.088181 0.290296
H28   H     H_    0.577235 0.174661 0.838790 0.398471
N1    N     N_R   0.458420 0.497403 0.146993 -0.326422
N2    N     N_R   0.454381 0.478067 0.850125 -0.329097
N3    N     N_1   0.234540 0.484780 0.490870 -0.062423
N4    N     N_1   0.765460 0.515220 0.509130 -0.058822
O1    O     O_R   0.402510 0.634760 0.496660 -0.596770
O2    O     O_2   0.276032 0.475746 0.842618 -0.509536
O3    O     O_2   0.279833 0.495108 0.146158 -0.403166
O4    O     O_2   0.631237 0.493705 0.851673 -0.454019
O5    O     O_2   0.095943 0.471222 0.080751 -0.176227
O6    O     O_2   0.117688 0.335124 0.012936 -0.243067
O7    O     O_3   0.220254 0.319790 0.110218 -0.458668
O8    O     O_2   0.816337 0.500443 0.917072 -0.247026
O9    O     O_2   0.833270 0.373102 0.991457 -0.244565
O10   O     O_3   0.739553 0.332798 0.895443 -0.455255
O11   O     O_2   0.395035 0.284640 0.838365 -0.276284
O12   O     O_R   0.597490 0.365240 0.503340 -0.566616
O13   O     O_2   0.437003 0.204436 0.748704 -0.181742
O14   O     O_3   0.587248 0.239211 0.821400 -0.463531
O15   O     O_2   0.366636 0.687341 0.145264 -0.279024
O16   O     O_2   0.380149 0.777957 0.234495 -0.176888
O17   O     O_3   0.545027 0.744776 0.176271 -0.488262
O18   O     O_2   0.625051 0.224051 0.706355 -0.166805
O19   O     O_2   0.490412 0.249740 0.630351 -0.281105
O20   O     O_3   0.661752 0.331544 0.621422 -0.539180
O21   O     O_2   0.563105 0.775960 0.292820 -0.167093
O22   O     O_2   0.431948 0.744670 0.360920 -0.296679
O23   O     O_R   0.572960 0.644530 0.502520 -0.596409
O24   O     O_3   0.621406 0.678118 0.383128 -0.539287
O25   O     O_2   0.440448 0.785508 0.701821 -0.266484
O26   O     O_2   0.544304 0.704425 0.629120 -0.308886
O27   O     O_3   0.346232 0.695006 0.619998 -0.511841
O28   O     O_2   0.422982 0.288618 0.374475 -0.265809
O29   O     O_2   0.530996 0.205924 0.304004 -0.257477
O30   O     O_3   0.619932 0.304157 0.383437 -0.545833
O31   O     O_2   0.084974 0.550803 0.611846 -0.253037
O32   O     O_2   0.069283 0.684813 0.541434 -0.270163
O33   O     O_3   0.913379 0.661965 0.604527 -0.516865
O34   O     O_R   0.427040 0.355470 0.497480 -0.612115
O35   O     O_2   0.930939 0.315060 0.458622 -0.274064
O36   O     O_2   0.914846 0.449143 0.388255 -0.258115
O37   O     O_3   0.086620 0.338218 0.395409 -0.506113
O38   O     O_R   0.414760 0.495140 0.580910 -0.584507
O39   O     O_R   0.585240 0.504860 0.419090 -0.550951
O40   O     O_R   0.585200 0.504910 0.586770 -0.577575
O41   O     O_R   0.414800 0.495090 0.413230 -0.598737
O42   O     O_2   0.636976 0.500204 0.153596 -0.523338
S1    S     S_3+6 0.172396 0.395453 0.056987 0.114193
S2    S     S_3+6 0.987382 0.392382 0.430269 0.050166
S3    S     S_3+6 0.763258 0.419760 0.944478 0.094276
S4    S     S_3+6 0.471237 0.278380 0.791988 0.131110
S5    S     S_3+6 0.435128 0.702395 0.197523 0.127891
S6    S     S_3+6 0.571979 0.298158 0.665256 0.090707
S7    S     S_3+6 0.526410 0.701369 0.332788 0.091908
S8    S     S_3+6 0.451659 0.696132 0.664246 0.041396
S9    S     S_3+6 0.515240 0.297718 0.339192 0.037786
S10   S     S_3+6 0.012628 0.607615 0.569760 0.051619
Zn1   Zn    Zn3+2 0.386190 0.493470 0.496090 1.126391
Zn2   Zn    Zn3+2 0.613810 0.506530 0.503910 1.137460

loop_
_geom_bond_atom_site_label_1
_geom_bond_atom_site_label_2
_ccdc_geom_bond_type
C25   C31   A    
O28   S9    D    
C26   C32   A    
C14   S2    S    
H2    O17   S    
C27   C29   A    
O22   S7    D    
C15   C18   S    
C20   O42   S    
O29   S9    D    
C33   C36   S    
C7    C13   T    
C6    N1    S    
C15   S10   S    
C21   N2    A    
C23   C42   A    
C40   H14   S    
H1    O7    S    
C46   S8    S    
C35   C37   S    
C17   C45   S    
O14   S4    S    
C1    C8    S    
C2    S9    S    
C40   H16   S    
C10   C40   S    
N3    Zn1   S    
H28   O14   S    
C19   N3    T    
O39   Zn2   S    
C9    C13   S    
C24   O4    S    
H3    O20   S    
O35   S2    D    
C3    C38   S    
C36   H24   S    
O31   S10   D    
C22   C25   A    
C5    C23   A    
O41   Zn1   S    
C31   C33   A    
O7    S1    S    
H20   O33   S    
C9    C10   D    
C16   C44   S    
C30   C33   A    
C17   O39   A    
O12   Zn2   S    
C39   H13   S    
C38   H8    S    
O37   S2    S    
C32   S3    S    
C42   C44   A    
C22   N1    A    
O10   S3    S    
C16   O38   A    
C44   C46   A    
O15   S5    D    
C20   C29   A    
C2    C45   A    
C7    C12   S    
C38   H9    S    
C22   O3    S    
C31   S1    S    
C4    C6    A    
O24   S7    S    
C43   S7    S    
C17   O41   A    
C24   N2    A    
O21   S7    D    
O6    S1    D    
C40   H15   S    
C6    C34   A    
C20   N1    A    
C2    C4    A    
C32   C35   A    
C16   O40   A    
O17   S5    S    
O33   S10   S    
C39   H10   S    
O26   S8    D    
C4    C39   S    
C8    C11   T    
C18   N4    T    
O1    Zn1   S    
O18   S6    D    
O5    S1    D    
O25   S8    D    
C43   C45   A    
C38   H7    S    
O30   S9    S    
H4    O24   S    
O13   S4    D    
C37   H25   S    
C1    O1    A    
C41   H17   S    
C1    O23   A    
C12   O34   A    
C36   H23   S    
N4    Zn2   S    
O16   S5    D    
C12   O12   A    
C37   H27   S    
O27   S8    S    
C9    C41   S    
C14   C19   S    
C34   C43   A    
C24   C26   A    
O19   S6    D    
C3    C5    A    
H12   O10   S    
C41   H19   S    
C36   H22   S    
C23   S4    S    
O11   S4    D    
C25   C27   A    
C21   C30   A    
C29   C35   A    
C3    C46   A    
C26   C28   A    
C5    N2    S    
C28   C30   A    
O9    S3    D    
O38   Zn1   S    
C34   S5    S    
C21   O2    S    
O32   S10   D    
O34   Zn1   S    
H21   O37   S    
H5    O27   S    
O40   Zn2   S    
C10   C11   S    
C42   S6    S    
O36   S2    D    
O23   Zn2   S    
O20   S6    S    
H6    O30   S    
C37   H26   S    
O8    S3    D    
C14   C15   D    
C41   H18   S    
C27   C28   A    
C39   H11   S    
