data_mof_unit_22674.cif
_audit_creation_date              2012-12-10T18:15:18-0500
_audit_creation_method            fapswitch 2.2
_symmetry_space_group_name_H-M    P1
_symmetry_Int_Tables_number       1
_space_group_crystal_system       triclinic
_cell_length_a                    12.620255
_cell_length_b                    13.137824
_cell_length_c                    22.981486
_cell_angle_alpha                 90.899362
_cell_angle_beta                  103.37129
_cell_angle_gamma                 82.343994
_cell_volume                      3673.60237957

loop_
_atom_site_label
_atom_site_type_symbol
_atom_type_description
_atom_site_fract_x
_atom_site_fract_y
_atom_site_fract_z
_atom_type_partial_charge
C1    C     C_R   0.438866 0.691301 0.495501 0.865315
C2    C     C_R   0.714013 0.557898 0.058797 -0.156223
C3    C     C_R   0.702016 0.564170 0.997206 -0.154902
C4    C     C_R   0.646099 0.493579 0.959569 -0.001997
C5    C     C_R   0.607074 0.412400 0.984356 -0.058901
C6    C     C_R   0.556570 0.337589 0.947160 -0.071780
C7    C     C_R   0.526370 0.252286 0.973475 0.134773
C8    C     C_R   0.540072 0.245645 0.035985 0.045869
C9    C     C_R   0.627242 0.502692 0.897512 0.515162
C10   C     C_R   0.538009 0.351631 0.884704 0.536112
C11   C     C_R   0.626574 0.397361 0.767352 0.059129
C12   C     C_R   0.502814 0.497875 0.611107 0.909529
C13   C     C_R   0.608693 0.413322 0.705706 0.079547
C14   C     C_R   0.516119 0.479994 0.675198 -0.145913
C15   C     C_R   0.439526 0.528235 0.706219 -0.114525
C16   C     C_R   0.457543 0.511371 0.768244 0.097540
C17   C     C_R   0.551302 0.446824 0.798396 0.258926
C18   C     C_R   0.555564 0.552462 0.241077 0.046356
C19   C     C_R   0.539887 0.564586 0.298925 -0.251151
C20   C     C_R   0.500294 0.488014 0.325887 -0.116149
C21   C     C_R   0.461673 0.405200 0.291626 -0.082537
C22   C     C_R   0.474784 0.395438 0.232671 0.008518
C23   C     C_R   0.561104 0.308763 0.506990 0.869714
C24   C     C_R   0.545087 0.456158 0.212455 0.117217
C25   C     C_R   0.706049 0.066471 0.586555 -0.201507
C26   C     C_R   0.597402 0.200382 0.519431 -0.050024
C27   C     C_R   0.298208 0.836442 0.454059 -0.225234
C28   C     C_R   0.268114 0.941259 0.441387 0.167035
C29   C     C_R   0.343158 0.009227 0.464021 -0.187273
C30   C     C_R   0.446732 0.973912 0.502158 0.046313
C31   C     C_R   0.467831 0.871042 0.522261 0.089677
C32   C     C_R   0.530140 0.037159 0.521192 0.093945
C33   C     C_R   0.624737 0.002424 0.566679 0.182399
C34   C     C_R   0.499147 0.497624 0.389077 0.877195
C35   C     C_R   0.635507 0.905252 0.592409 -0.247307
C36   C     C_R   0.557653 0.840373 0.570644 -0.187169
C37   C     C_R   0.522749 0.133683 0.495474 -0.242062
C38   C     C_R   0.691573 0.166181 0.563557 -0.200508
C39   C     C_R   0.399207 0.800927 0.492825 -0.137985
C40   C     C_R   0.088732 0.342241 0.418652 0.017133
C41   C     C_R   0.800970 0.629902 0.570128 0.029710
C42   C     C_R   0.905295 0.659553 0.584075 -0.241882
C43   C     C_R   0.985698 0.611032 0.556873 -0.180917
C44   C     C_R   0.962195 0.531347 0.515725 0.025685
C45   C     C_R   0.584701 0.332385 0.134463 0.539174
C46   C     C_R   0.854188 0.504279 0.503006 0.232477
C47   C     C_R   0.041249 0.477366 0.487143 -0.046934
C48   C     C_R   0.010928 0.397317 0.446628 0.162504
C49   C     C_R   0.903671 0.373202 0.434992 -0.246262
C50   C     C_R   0.827294 0.425362 0.462978 -0.205520
C51   C     C_R   0.150040 0.499188 0.497372 -0.051249
C52   C     C_R   0.195112 0.368028 0.431579 -0.028541
C53   C     C_R   0.665803 0.482349 0.143778 0.535493
C54   C     C_R   0.667907 0.482475 0.083342 -0.010259
C55   C     C_R   0.617322 0.407544 0.046476 -0.037632
C56   C     C_R   0.581170 0.326257 0.072637 -0.085043
H1    H     H_    0.754254 0.615289 0.086690 0.190659
H2    H     H_    0.555698 0.635167 0.322572 0.162601
H3    H     H_    0.750250 0.217828 0.582419 0.164339
H4    H     H_    0.704959 0.878734 0.628702 0.144943
H5    H     H_    0.778154 0.040961 0.621496 0.142137
H6    H     H_    0.456453 0.161099 0.458116 0.154689
H7    H     H_    0.244211 0.782504 0.432449 0.161279
H8    H     H_    0.316952 0.089345 0.452313 0.138299
H9    H     H_    0.734557 0.625721 0.979123 0.190813
H10   H     H_    0.567512 0.766230 0.592445 0.153526
H11   H     H_    0.257315 0.326685 0.411751 0.149062
H12   H     H_    0.877748 0.313147 0.404257 0.183176
H13   H     H_    0.180417 0.558287 0.527079 0.143878
H14   H     H_    0.738596 0.666813 0.591456 0.130463
H15   H     H_    0.064991 0.637297 0.569160 0.157764
H16   H     H_    0.923821 0.720003 0.615890 0.154732
H17   H     H_    0.747592 0.401477 0.452607 0.213443
N1    N     N_R   0.597564 0.424219 0.162933 -0.327039
N2    N     N_R   0.572184 0.433577 0.861802 -0.342231
N3    N     N_R   0.222200 0.444670 0.469780 -0.112385
N4    N     N_R   0.776960 0.554790 0.529910 -0.128340
O1    O     O_R   0.366740 0.627150 0.485570 -0.612749
O2    O     O_2   0.734466 0.535111 0.182803 -0.548494
O3    O     O_2   0.662572 0.580436 0.872760 -0.564453
O4    O     O_2   0.485446 0.285346 0.846815 -0.534129
O5    O     O_R   0.544830 0.662520 0.504870 -0.613036
O6    O     O_R   0.410930 0.482340 0.574190 -0.603730
O7    O     O_R   0.589010 0.517710 0.593490 -0.608655
O8    O     O_R   0.455170 0.337480 0.495130 -0.611838
O9    O     O_R   0.633260 0.372850 0.514430 -0.636161
O10   O     O_R   0.410990 0.482290 0.406510 -0.603762
O11   O     O_R   0.589070 0.517660 0.425810 -0.620710
O12   O     O_2   0.583011 0.247722 0.166318 -0.569602
Zn1   Zn    Zn3+2 0.381090 0.476380 0.487110 0.959138
Zn2   Zn    Zn3+2 0.618910 0.523620 0.512890 0.940029
C57   C     C_1   0.413616 0.327249 0.316880 0.204792
N5    N     N_1   0.375934 0.264041 0.336616 -0.231880
C58   C     C_1   0.398184 0.340723 0.190983 0.242322
N6    N     N_1   0.336194 0.297585 0.157941 -0.197262
N7    N     N_3   0.163866 0.979617 0.403202 -0.452801
H18   H     H_    0.120235 0.918919 0.386732 0.191609
H19   H     H_    0.118234 0.022763 0.429813 0.174136
N8    N     N_3   0.059856 0.261016 0.377750 -0.441102
H20   H     H_    0.046380 0.200212 0.402699 0.179663
H21   H     H_    0.125582 0.233207 0.358749 0.202813
N9    N     N_3   0.481568 0.171630 0.936905 -0.370184
H22   H     H_    0.403620 0.165820 0.943928 0.208112
H23   H     H_    0.532174 0.102431 0.950434 0.201019
N10   N     N_3   0.506558 0.158256 0.060011 -0.459009
H24   H     H_    0.574527 0.117484 0.089034 0.247307
H25   H     H_    0.445274 0.183102 0.082703 0.240545
N11   N     N_3   0.722239 0.331208 0.798120 -0.468975
H26   H     H_    0.768118 0.373333 0.831361 0.204349
H27   H     H_    0.696887 0.271409 0.818706 0.212312
N12   N     N_3   0.683584 0.360289 0.673433 -0.433628
H28   H     H_    0.686468 0.281323 0.680076 0.197699
H29   H     H_    0.761893 0.380400 0.691253 0.208679
C59   C     C_1   0.345260 0.597901 0.675350 0.166229
N13   N     N_1   0.270038 0.653731 0.650693 -0.229996
N14   N     N_3   0.382463 0.560079 0.801696 -0.435316
H30   H     H_    0.304826 0.538618 0.783701 0.199970
H31   H     H_    0.377498 0.639629 0.796580 0.204020
C60   C     C_1   0.560689 0.645116 0.209318 0.239712
N15   N     N_1   0.564233 0.719597 0.183981 -0.177857

loop_
_geom_bond_atom_site_label_1
_geom_bond_atom_site_label_2
_ccdc_geom_bond_type
C55   C56   A    
C49   H12   S    
C41   C42   A    
C19   C20   A    
C8    N10   S    
C8    C56   A    
C40   N8    S    
C59   N13   T    
C2    H1    S    
C7    C8    A    
C53   C54   A    
O1    Zn1   S    
N10   H25   S    
C18   C24   A    
C28   C29   A    
C53   O2    S    
O9    Zn2   S    
C41   N4    A    
C5    C6    A    
C36   H10   S    
C15   C16   A    
N11   H26   S    
C12   O7    A    
C18   C19   A    
C23   C26   S    
C11   C17   A    
C35   C36   A    
C45   C56   A    
C27   C39   A    
C16   C17   A    
C7    N9    S    
N7    H19   S    
O7    Zn2   S    
C45   O12   S    
C44   C47   A    
C20   C34   S    
C29   H8    S    
C21   C22   A    
C1    O1    A    
C22   C58   S    
C3    H9    S    
C16   N14   S    
C44   C46   A    
C37   H6    S    
C19   H2    S    
N9    H22   S    
C51   N3    A    
C2    C54   A    
C50   H17   S    
C26   C38   A    
C25   H5    S    
C1    O5    A    
C40   C52   A    
C23   O9    A    
O5    Zn2   S    
C12   O6    A    
C45   N1    A    
C9    O3    S    
C43   C44   A    
C29   C30   A    
C25   C38   A    
C10   N2    A    
C47   C48   A    
O11   Zn2   S    
C60   N15   T    
N7    H18   S    
C42   H16   S    
C15   C59   S    
N12   H29   S    
C34   O11   A    
C32   C37   A    
N9    H23   S    
C52   H11   S    
C27   H7    S    
N14   H31   S    
C48   C49   A    
N8    H21   S    
C12   C14   S    
C22   C24   A    
C42   C43   A    
C3    C4    A    
C11   N11   S    
C40   C48   A    
O6    Zn1   S    
C54   C55   A    
N4    Zn2   S    
C43   H15   S    
N12   H28   S    
C31   C36   A    
C5    C55   A    
C4    C5    A    
C52   N3    A    
C6    C10   A    
C46   N4    A    
C47   C51   A    
O8    Zn1   S    
N11   H27   S    
C26   C37   A    
C6    C7    A    
C9    N2    A    
N10   H24   S    
C46   C50   A    
C10   O4    S    
N8    H20   S    
C28   N7    S    
C32   C33   A    
C2    C3    A    
C13   N12   S    
C30   C32   A    
C11   C13   A    
C24   N1    S    
C30   C31   A    
C57   N5    T    
C33   C35   A    
C31   C39   A    
N14   H30   S    
C34   O10   A    
C58   N6    T    
C1    C39   S    
C38   H3    S    
C20   C21   A    
C49   C50   A    
C23   O8    A    
O10   Zn1   S    
C25   C33   A    
C27   C28   A    
C17   N2    S    
C14   C15   A    
C35   H4    S    
C51   H13   S    
C4    C9    A    
C13   C14   A    
C18   C60   S    
C21   C57   S    
N3    Zn1   S    
C41   H14   S    
C53   N1    A    
