data_mof_unit_58120.cif
_audit_creation_date              2012-12-11T14:08:27-0500
_audit_creation_method            fapswitch 2.2
_symmetry_space_group_name_H-M    P1
_symmetry_Int_Tables_number       1
_space_group_crystal_system       triclinic
_cell_length_a                    28.179989
_cell_length_b                    7.188811
_cell_length_c                    17.189827
_cell_angle_alpha                 89.9637
_cell_angle_beta                  101.723759
_cell_angle_gamma                 89.963178
_cell_volume                      3409.67791699

loop_
_atom_site_label
_atom_site_type_symbol
_atom_type_description
_atom_site_fract_x
_atom_site_fract_y
_atom_site_fract_z
_atom_type_partial_charge
O1    O     O_R   0.000700 0.436510 0.857920 -0.533135
O2    O     O_R   0.999300 0.563490 0.142080 -0.533059
O3    O     O_R   0.999300 0.936510 0.642080 -0.533012
O4    O     O_R   0.000700 0.063490 0.357920 -0.532995
O5    O     O_R   0.930080 0.766380 0.721890 -0.542126
O6    O     O_R   0.069920 0.233620 0.278110 -0.542544
O7    O     O_R   0.069920 0.266380 0.778110 -0.542269
O8    O     O_R   0.930080 0.733620 0.221890 -0.542083
C1    C     C_R   0.910528 0.597388 0.709234 0.698204
C2    C     C_R   0.089445 0.402263 0.290908 0.698399
C3    C     C_R   0.089466 0.097549 0.790821 0.698550
C4    C     C_R   0.910542 0.902750 0.209130 0.698418
O9    O     O_R   0.996180 0.766230 0.862310 -0.543264
O10   O     O_R   0.003820 0.233770 0.137690 -0.543335
O11   O     O_R   0.003820 0.266230 0.637690 -0.543268
O12   O     O_R   0.996180 0.733770 0.362310 -0.543346
O13   O     O_R   0.065870 0.936460 0.783500 -0.539517
O14   O     O_R   0.934130 0.063540 0.216500 -0.539771
O15   O     O_R   0.934130 0.436460 0.716500 -0.539696
O16   O     O_R   0.065870 0.563540 0.283500 -0.539270
C5    C     C_R   0.998482 0.596439 0.894494 0.761966
C6    C     C_R   0.001518 0.403561 0.105506 0.762065
C7    C     C_R   0.001517 0.096490 0.605493 0.761876
C8    C     C_R   0.998483 0.903510 0.394507 0.761742
O17   O     O_3   0.022790 0.603020 0.723980 -0.377760
O18   O     O_3   0.977210 0.396980 0.276020 -0.377970
O19   O     O_3   0.977210 0.103020 0.776020 -0.377956
O20   O     O_3   0.022790 0.896980 0.223980 -0.377702
V1    V     V_3+5 0.995770 0.877900 0.754830 1.416791
V2    V     V_3+5 0.004230 0.122100 0.245170 1.416479
V3    V     V_3+5 0.004230 0.377900 0.745170 1.416631
V4    V     V_3+5 0.995770 0.622100 0.254830 1.416838
C9    C     C_2   0.001705 0.082716 0.519535 -0.327259
C10   C     C_2   0.998296 0.917284 0.480465 -0.327435
C11   C     C_2   0.998289 0.582692 0.980430 -0.327536
C12   C     C_2   0.001710 0.417308 0.019569 -0.327580
H1    H     H_    0.004491 0.211652 0.487797 0.153515
H2    H     H_    0.995509 0.788348 0.512203 0.153557
H3    H     H_    0.995490 0.711639 0.012099 0.153601
H4    H     H_    0.004509 0.288360 0.987900 0.153565
C13   C     C_R   0.681879 0.892484 0.035755 0.617281
C14   C     C_R   0.319156 0.143522 0.958702 0.624366
C15   C     C_R   0.319485 0.347883 0.456314 0.614589
C16   C     C_R   0.682005 0.608421 0.536068 0.617750
O21   O     O_2   0.709819 0.816841 0.988874 -0.489219
O22   O     O_2   0.291811 0.238402 0.001234 -0.497339
O23   O     O_2   0.292367 0.251041 0.498600 -0.499138
O24   O     O_2   0.710104 0.683958 0.489416 -0.490297
N1    N     N_R   0.702817 0.957246 0.109337 -0.577178
N2    N     N_R   0.297557 0.056578 0.889981 -0.571734
N3    N     N_R   0.297572 0.438388 0.388655 -0.572525
N4    N     N_R   0.702725 0.544613 0.609953 -0.577025
C17   C     C_R   0.675561 0.038636 0.157618 0.674352
C18   C     C_R   0.324381 0.957510 0.846071 0.683505
C19   C     C_R   0.324117 0.538837 0.344755 0.677736
C20   C     C_R   0.675289 0.463861 0.658110 0.667990
C21   C     C_R   0.783549 0.103425 0.145418 -0.066416
C22   C     C_R   0.217169 0.905548 0.858499 -0.072816
C23   C     C_R   0.217153 0.590782 0.361685 -0.068115
C24   C     C_R   0.783407 0.397748 0.646747 -0.068511
C25   C     C_R   0.833892 0.089999 0.169509 -0.187513
C26   C     C_R   0.166720 0.915255 0.834509 -0.186690
C27   C     C_R   0.166667 0.582226 0.337803 -0.188763
C28   C     C_R   0.833773 0.410725 0.670587 -0.186690
C29   C     C_R   0.827652 0.754298 0.174531 -0.186550
C30   C     C_R   0.171909 0.249553 0.820717 -0.193601
C31   C     C_R   0.171808 0.249840 0.317931 -0.190733
C32   C     C_R   0.827644 0.746565 0.674651 -0.186711
C33   C     C_R   0.777176 0.768206 0.150444 -0.060640
C34   C     C_R   0.222431 0.239381 0.844499 -0.048407
C35   C     C_R   0.222322 0.258941 0.341448 -0.057988
C36   C     C_R   0.777147 0.733114 0.650794 -0.059454
C37   C     C_R   0.754784 0.942888 0.135660 0.359939
C38   C     C_R   0.245462 0.067362 0.863858 0.355262
C39   C     C_R   0.245404 0.429368 0.363627 0.357865
C40   C     C_R   0.754684 0.558586 0.636567 0.360438
C41   C     C_R   0.602249 0.983721 0.057187 -0.103507
C42   C     C_R   0.398067 0.028836 0.943172 -0.098950
C43   C     C_R   0.398381 0.459778 0.439361 -0.099138
C44   C     C_R   0.602262 0.515724 0.556470 -0.111451
C45   C     C_R   0.631634 0.906150 0.008100 -0.025141
C46   C     C_R   0.369538 0.133702 0.985818 -0.024589
C47   C     C_R   0.369877 0.357600 0.483049 -0.015469
C48   C     C_R   0.631840 0.593649 0.507809 -0.042155
C49   C     C_R   0.610517 0.845301 0.931724 0.002016
C50   C     C_R   0.391709 0.227372 0.054918 -0.066977
C51   C     C_R   0.392109 0.265544 0.552596 -0.041270
C52   C     C_R   0.611046 0.653374 0.431139 -0.028978
C53   C     C_R   0.624043 0.048981 0.134224 -0.170127
C54   C     C_R   0.375368 0.934410 0.872787 -0.149944
C55   C     C_R   0.375667 0.548994 0.367531 -0.167757
C56   C     C_R   0.623820 0.451771 0.633928 -0.152249
C57   C     C_R   0.856765 0.915203 0.184288 -0.055147
C58   C     C_R   0.143289 0.087521 0.815498 -0.055126
C59   C     C_R   0.143234 0.411488 0.315712 -0.055056
C60   C     C_R   0.856720 0.585364 0.684707 -0.055221
H5    H     H_    0.843776 0.617517 0.185262 0.134085
H6    H     H_    0.155370 0.384595 0.806450 0.137255
H7    H     H_    0.155247 0.115969 0.301287 0.138274
H8    H     H_    0.843819 0.883250 0.684898 0.133868
H9    H     H_    0.755414 0.642904 0.143160 0.135614
H10   H     H_    0.243718 0.365603 0.847937 0.152183
H11   H     H_    0.243591 0.133125 0.342357 0.146742
H12   H     H_    0.755431 0.858661 0.643151 0.134780
H13   H     H_    0.632584 0.792614 0.891937 0.217980
H14   H     H_    0.370638 0.311385 0.087730 0.220488
H15   H     H_    0.371163 0.181859 0.585857 0.205329
H16   H     H_    0.633296 0.706837 0.391795 0.227881
C61   C     C_R   0.478314 0.920591 0.927472 -0.005342
C62   C     C_R   0.521648 0.082113 0.075445 -0.024533
C63   C     C_R   0.521663 0.414877 0.573583 -0.016708
C64   C     C_R   0.478703 0.567426 0.423232 -0.018632
C65   C     C_R   0.471059 0.105900 0.044306 0.058657
C66   C     C_R   0.529730 0.921515 0.952902 0.076628
C67   C     C_R   0.530087 0.572289 0.450352 0.055703
C68   C     C_R   0.471251 0.388563 0.541838 0.054116
C69   C     C_R   0.449262 0.018426 0.971626 0.069677
C70   C     C_R   0.551094 0.995867 0.028545 0.079134
C71   C     C_R   0.551198 0.501224 0.526877 0.067974
C72   C     C_R   0.449575 0.471889 0.468071 0.080198
C73   C     C_R   0.455022 0.819149 0.860449 -0.261933
C74   C     C_R   0.543422 0.137394 0.153135 -0.239536
C75   C     C_R   0.543156 0.361593 0.651731 -0.288187
C76   C     C_R   0.455544 0.656046 0.352480 -0.243362
C77   C     C_R   0.404712 0.821291 0.833205 0.450287
C78   C     C_R   0.593233 0.120165 0.183683 0.473916
C79   C     C_R   0.592843 0.379720 0.682918 0.441829
C80   C     C_R   0.405544 0.645348 0.322969 0.472532
O25   O     O_2   0.301542 0.887097 0.775960 -0.437629
O26   O     O_2   0.698756 0.110873 0.227124 -0.437769
O27   O     O_2   0.698272 0.394160 0.728309 -0.436979
O28   O     O_2   0.300172 0.629011 0.280004 -0.440918
C81   C     C_R   0.560723 0.852351 0.904589 -0.115505
C82   C     C_R   0.441356 0.215196 0.083340 -0.145401
C83   C     C_R   0.441673 0.279337 0.581125 -0.155542
C84   C     C_R   0.561408 0.643477 0.402916 -0.130040
H17   H     H_    0.146136 0.787387 0.831404 0.135841
H18   H     H_    0.854824 0.217332 0.176153 0.136248
H19   H     H_    0.854668 0.283174 0.677523 0.136170
H20   H     H_    0.146077 0.709613 0.337186 0.135785
H21   H     H_    0.234306 0.771782 0.873544 0.136976
H22   H     H_    0.766870 0.239091 0.133774 0.131417
H23   H     H_    0.766680 0.262183 0.635509 0.130097
H24   H     H_    0.234344 0.723267 0.379043 0.137454
H25   H     H_    0.475617 0.728593 0.830156 0.148898
H26   H     H_    0.521547 0.188372 0.192960 0.193083
H27   H     H_    0.521158 0.310631 0.691335 0.176269
H28   H     H_    0.475883 0.740120 0.319314 0.187488
H29   H     H_    0.547716 0.808230 0.844074 0.129835
H30   H     H_    0.455532 0.297040 0.135387 0.152528
H31   H     H_    0.455873 0.198871 0.633624 0.150338
H32   H     H_    0.549072 0.687310 0.342253 0.157829
S1    S     S_3+6 0.381589 0.668795 0.752638 0.062385
O29   O     O_2   0.342272 0.548960 0.773485 -0.278222
O30   O     O_2   0.361093 0.780601 0.679524 -0.294964
O31   O     O_3   0.425247 0.527843 0.732338 -0.508888
H33   H     H_    0.441498 0.600294 0.696223 0.329659
S2    S     S_3+6 0.613201 0.183968 0.285287 0.034994
O32   O     O_2   0.643619 0.030608 0.329389 -0.304914
O33   O     O_2   0.642702 0.359277 0.290155 -0.291248
O34   O     O_3   0.565800 0.221729 0.329101 -0.525531
H34   H     H_    0.579901 0.226961 0.386752 0.361487
S3    S     S_3+6 0.612489 0.313218 0.784374 0.047844
O35   O     O_2   0.642782 0.139930 0.788687 -0.271727
O36   O     O_2   0.642267 0.465545 0.830264 -0.303317
O37   O     O_3   0.565177 0.268625 0.827581 -0.506865
H35   H     H_    0.552315 0.392347 0.838137 0.329657
S4    S     S_3+6 0.384194 0.751212 0.228446 0.046354
O38   O     O_2   0.355201 0.612433 0.172847 -0.305771
O39   O     O_2   0.352888 0.915873 0.237627 -0.281232
O40   O     O_3   0.430720 0.824525 0.188487 -0.523038
H36   H     H_    0.417726 0.829158 0.130480 0.360870

loop_
_geom_bond_atom_site_label_1
_geom_bond_atom_site_label_2
_ccdc_geom_bond_type
O17   V3    S    
S2    O33   D    
O40   H36   S    
N1    C17   A    
C22   C26   A    
O1    C5    A    
O19   V1    S    
O13   V1    S    
C27   H20   S    
O3    C7    A    
C11   C12   D    
C14   C46   A    
C44   C48   A    
O4    V2    S    
O15   V3    S    
C62   C70   A    
O34   H34   S    
C61   C69   A    
C68   C83   A    
C30   C34   A    
C42   C54   A    
O7    C3    A    
C76   H28   S    
C41   C53   A    
C32   C60   A    
C21   H22   S    
O2    V4    S    
O31   H33   S    
S3    O36   D    
N3    C39   S    
C18   C54   A    
N2    C38   S    
C24   H23   S    
C52   H16   S    
C25   C57   A    
C25   H18   S    
C31   C35   A    
C67   C84   A    
C82   H30   S    
C27   C59   A    
O1    V3    S    
C15   C47   A    
C63   C71   A    
C14   O22   S    
C21   C37   A    
O3    V1    S    
C34   C38   A    
C19   C55   A    
S2    O34   S    
C73   C77   A    
C1    O15   A    
S4    O40   S    
S3    O35   D    
C2    O16   A    
C7    C9    S    
C50   C82   A    
O2    C6    A    
C33   C37   A    
C63   C68   A    
O14   V2    S    
S1    O30   D    
C43   C55   A    
C31   H7    S    
C76   C80   A    
C16   N4    A    
S4    O39   D    
C44   C71   A    
O12   C8    A    
C31   C59   A    
C50   H14   S    
O10   V2    S    
C49   H13   S    
C13   N1    A    
C84   H32   S    
C77   S1    S    
O5    V1    S    
C53   C78   A    
C78   S2    S    
O7    V3    S    
C55   C80   A    
C63   C75   A    
O8    V4    S    
C51   C83   A    
C12   H4    S    
C42   C69   A    
C81   H29   S    
C28   C60   A    
C41   C70   A    
C64   C72   A    
O18   V4    S    
C36   H12   S    
N4    C40   S    
C46   C50   A    
O11   V3    S    
C24   C40   A    
C8    C10   S    
C68   C72   A    
C32   C36   A    
C74   C78   A    
C11   H3    S    
C32   H8    S    
O5    C1    A    
C54   C77   A    
C42   C46   A    
C75   C79   A    
C1    C60   S    
C41   C45   A    
O8    C4    A    
C13   C45   A    
C43   C72   A    
S3    O37   S    
C9    C10   D    
O9    C5    A    
C36   C40   A    
N2    C18   A    
S1    O31   S    
C21   C25   A    
C44   C56   A    
C62   C65   A    
C52   C84   A    
C66   C70   A    
C61   C66   A    
C14   N2    A    
C65   C69   A    
C3    C58   S    
S4    O38   D    
O6    V2    S    
C75   H27   S    
C23   H24   S    
C67   C71   A    
C65   C82   A    
C26   C58   A    
C17   C53   A    
S2    O32   D    
C73   H25   S    
N1    C37   S    
C4    C57   S    
O10   C6    A    
C56   C79   A    
C23   C39   A    
C22   C38   A    
O16   V4    S    
O9    V1    S    
C83   H31   S    
C18   O25   S    
C35   H11   S    
C3    O13   A    
C79   S3    S    
C10   H2    S    
C48   C52   A    
C17   O26   S    
C16   C48   A    
C47   C51   A    
O6    C2    A    
C34   H10   S    
C64   C76   A    
C5    C11   S    
C33   H9    S    
O12   V4    S    
C6    C12   S    
C23   C27   A    
C30   C58   A    
C24   C28   A    
C30   H6    S    
O20   V2    S    
C29   H5    S    
C62   C74   A    
C35   C39   A    
C22   H21   S    
C15   N3    A    
O37   H35   S    
C2    C59   S    
O4    C8    A    
C29   C33   A    
O11   C7    A    
C29   C57   A    
C66   C81   A    
N3    C19   A    
C74   H26   S    
C26   H17   S    
C9    H1    S    
C20   O27   S    
C43   C47   A    
N4    C20   A    
C20   C56   A    
C51   H15   S    
C19   O28   S    
C4    O14   A    
C80   S4    S    
C13   O21   S    
C61   C73   A    
S1    O29   D    
C15   O23   S    
C64   C67   A    
C45   C49   A    
C16   O24   S    
C49   C81   A    
C28   H19   S    
