data_mof_unit_67236.cif
_audit_creation_date              2013-03-05T16:01:26-0500
_audit_creation_method            fapswitch 2.2
_symmetry_space_group_name_H-M    P1
_symmetry_Int_Tables_number       1
_space_group_crystal_system       triclinic
_cell_length_a                    20.205775
_cell_length_b                    20.352067
_cell_length_c                    8.858996
_cell_angle_alpha                 90.166153
_cell_angle_beta                  92.273535
_cell_angle_gamma                 89.90595
_cell_volume                      3640.19131242

loop_
_atom_site_label
_atom_site_type_symbol
_atom_site_description
_atom_site_fract_x
_atom_site_fract_y
_atom_site_fract_z
_atom_type_partial_charge
P1    P     P_3+3 0.136530 0.426510 0.931350 0.402902
P2    P     P_3+3 0.136530 0.573490 0.431350 0.410316
P3    P     P_3+3 0.636530 0.926510 0.931350 0.403189
P4    P     P_3+3 0.636530 0.073490 0.431350 0.410498
O1    O     O_2   0.130070 0.404060 0.104920 -0.396220
O2    O     O_2   0.130070 0.595940 0.604920 -0.411010
O3    O     O_2   0.630070 0.904060 0.104920 -0.395627
O4    O     O_2   0.630070 0.095940 0.604920 -0.411664
O5    O     O_3   0.075780 0.466370 0.861070 -0.429946
O6    O     O_3   0.075780 0.533630 0.361070 -0.419291
O7    O     O_3   0.575780 0.966370 0.861070 -0.430015
O8    O     O_3   0.575780 0.033630 0.361070 -0.418996
O9    O     O_3   0.022320 0.344950 0.359800 -0.399230
O10   O     O_3   0.022320 0.655050 0.859800 -0.409158
O11   O     O_3   0.522320 0.844950 0.359800 -0.399325
O12   O     O_3   0.522320 0.155050 0.859800 -0.409125
O13   O     O_2   0.127699 0.282435 0.262356 -0.412681
O14   O     O_2   0.134127 0.707238 0.769775 -0.401556
O15   O     O_2   0.627496 0.781657 0.262871 -0.418669
O16   O     O_2   0.633807 0.207865 0.769944 -0.402967
O17   O     O_3   0.212876 0.469965 0.938695 -0.598818
O18   O     O_3   0.213872 0.531191 0.438963 -0.584760
O19   O     O_3   0.712797 0.970070 0.938825 -0.598763
O20   O     O_3   0.713802 0.031159 0.438943 -0.584280
O21   O     O_3   0.040464 0.210054 0.387569 -0.557487
O22   O     O_3   0.048956 0.789093 0.871366 -0.537874
O23   O     O_3   0.540000 0.709678 0.388786 -0.561511
O24   O     O_3   0.548200 0.289169 0.872213 -0.537452
C1    C     C_3   0.972795 0.140035 0.540562 -0.395485
C2    C     C_3   0.991726 0.869175 0.017953 -0.364572
C3    C     C_3   0.465343 0.643193 0.535435 -0.411323
C4    C     C_3   0.489966 0.368331 0.019708 -0.364178
H1    H     H_    0.938392 0.112764 0.462908 0.190514
H2    H     H_    0.969049 0.900636 0.928730 0.197163
H3    H     H_    0.426184 0.618581 0.464656 0.189193
H4    H     H_    0.465694 0.399816 0.932525 0.195250
P5    P     P_3+3 0.863410 0.426100 0.379280 0.445845
P6    P     P_3+3 0.863410 0.573900 0.879280 0.447704
P7    P     P_3+3 0.363410 0.926100 0.379280 0.449601
P8    P     P_3+3 0.363410 0.073900 0.879280 0.440419
P9    P     P_3+3 0.912769 0.286102 0.922105 0.395440
P10   P     P_3+3 0.912077 0.713491 0.422148 0.394219
P11   P     P_3+3 0.412809 0.786032 0.921932 0.392745
P12   P     P_3+3 0.411666 0.213112 0.422685 0.396474
O25   O     O_2   0.869860 0.403670 0.205810 -0.375862
O26   O     O_2   0.869860 0.596330 0.705810 -0.378118
O27   O     O_2   0.369860 0.903670 0.205810 -0.370879
O28   O     O_2   0.369860 0.096330 0.705810 -0.379802
O29   O     O_3   0.977590 0.344880 0.951200 -0.387960
O30   O     O_3   0.977590 0.655120 0.451200 -0.397226
O31   O     O_3   0.477590 0.844880 0.951200 -0.388070
O32   O     O_3   0.477590 0.155120 0.451200 -0.397180
O33   O     O_2   0.867561 0.289384 0.059004 -0.415931
O34   O     O_2   0.866861 0.710589 0.559145 -0.412603
O35   O     O_2   0.366373 0.791249 0.056228 -0.416383
O36   O     O_2   0.366688 0.209888 0.559997 -0.410611
O37   O     O_3   0.794545 0.478342 0.368538 -0.587449
O38   O     O_3   0.794252 0.522441 0.861965 -0.570801
O39   O     O_3   0.293732 0.977020 0.368138 -0.586129
O40   O     O_3   0.294624 0.022135 0.863880 -0.581883
O41   O     O_3   0.940936 0.203738 0.919376 -0.573284
O42   O     O_3   0.942799 0.794698 0.422936 -0.574993
O43   O     O_3   0.439440 0.703106 0.925165 -0.572958
O44   O     O_3   0.442171 0.294438 0.424113 -0.573836
C5    C     C_3   0.003941 0.193929 0.990199 0.424321
C6    C     C_3   0.000094 0.801490 0.517649 0.450000
C7    C     C_3   0.504214 0.693254 0.986461 0.422978
C8    C     C_3   0.500022 0.300797 0.517263 0.448785
H5    H     H_    0.011051 0.227492 0.089094 0.114536
H6    H     H_    0.992807 0.775235 0.625206 0.129724
H7    H     H_    0.513796 0.726321 0.085217 0.108569
H8    H     H_    0.493099 0.274490 0.624921 0.129672
C9    C     C_3   0.009374 0.120796 0.046729 0.342928
C10   C     C_3   0.012653 0.875776 0.555901 0.376618
C11   C     C_3   0.511536 0.619737 0.039730 0.348322
C12   C     C_3   0.513472 0.374892 0.555807 0.378640
C13   C     C_3   0.813608 0.456382 0.850544 0.407173
C14   C     C_3   0.814878 0.543785 0.354968 0.397550
C15   C     C_3   0.314097 0.956326 0.847821 0.397402
C16   C     C_3   0.311951 0.043179 0.357723 0.333093
H9    H     H_    0.826291 0.446457 0.732296 0.020425
H10   H     H_    0.839712 0.549834 0.246562 0.037733
H11   H     H_    0.326208 0.947642 0.728626 0.021784
H12   H     H_    0.331365 0.052421 0.244531 0.026058
H13   H     H_    0.856900 0.443822 0.925585 0.115879
H14   H     H_    0.849884 0.557578 0.448800 0.129324
H15   H     H_    0.357710 0.943139 0.921332 0.119426
H16   H     H_    0.350295 0.056761 0.444862 0.142498
C17   C     C_3   0.757532 0.411352 0.900489 -0.175504
C18   C     C_3   0.755141 0.590592 0.360940 -0.180436
C19   C     C_3   0.258235 0.910858 0.896747 -0.165766
C20   C     C_3   0.251081 0.086693 0.384212 -0.149289
H17   H     H_    0.779975 0.364723 0.942620 0.161332
H18   H     H_    0.773012 0.637553 0.412113 0.165186
H19   H     H_    0.280644 0.863914 0.936494 0.163484
H20   H     H_    0.268672 0.136859 0.414540 0.159077
Ba1   Ba    Ba6+2 0.999980 0.452130 0.155200 1.453172
Ba2   Ba    Ba6+2 0.999980 0.547870 0.655200 1.455663
Ba3   Ba    Ba6+2 0.499980 0.952130 0.155200 1.451050
Ba4   Ba    Ba6+2 0.499980 0.047870 0.655200 1.453678
C21   C     C_3   0.210367 0.535558 0.992126 0.412047
C22   C     C_3   0.214295 0.463782 0.477570 0.445196
C23   C     C_3   0.710084 0.035763 0.991566 0.412254
C24   C     C_3   0.714112 0.963702 0.477046 0.445992
C25   C     C_3   0.279372 0.567640 0.984636 -0.309671
C26   C     C_3   0.286833 0.437912 0.476503 -0.356298
C27   C     C_3   0.779050 0.067867 0.984149 -0.310558
C28   C     C_3   0.786531 0.937738 0.474761 -0.358238
H21   H     H_    0.314791 0.540640 0.060508 0.182962
H22   H     H_    0.318319 0.470696 0.549224 0.196883
H23   H     H_    0.814456 0.040773 0.059838 0.183593
H24   H     H_    0.818121 0.970398 0.547587 0.197290
H25   H     H_    0.276558 0.619113 0.026897 0.180620
H26   H     H_    0.289126 0.388046 0.527893 0.183275
H27   H     H_    0.776204 0.119307 0.026614 0.180055
H28   H     H_    0.788876 0.887740 0.525467 0.183185
O45   O     O_3   0.924190 0.533610 0.949240 -0.422204
O46   O     O_3   0.924190 0.466390 0.449240 -0.419562
O47   O     O_3   0.424190 0.033610 0.949240 -0.417514
O48   O     O_3   0.424190 0.966390 0.449240 -0.416708
P13   P     P_3+3 0.085601 0.712183 0.900074 0.390410
P14   P     P_3+3 0.082759 0.284876 0.399983 0.380640
P15   P     P_3+3 0.585310 0.212434 0.900371 0.389293
P16   P     P_3+3 0.582445 0.784476 0.400314 0.373368
C29   C     C_3   0.987402 0.210391 0.486660 0.462452
C30   C     C_3   0.995054 0.797266 0.966637 0.485985
C31   C     C_3   0.483464 0.712399 0.477702 0.465460
C32   C     C_3   0.493874 0.296675 0.966530 0.487452
H29   H     H_    0.000156 0.238566 0.590932 0.058615
H30   H     H_    0.999740 0.766920 0.070861 0.023262
H31   H     H_    0.493527 0.742031 0.581017 0.056070
H32   H     H_    0.498296 0.265834 0.070004 0.021483
H33   H     H_    0.947122 0.143984 0.648170 0.197660
H34   H     H_    0.958711 0.872106 0.114452 0.170780
H35   H     H_    0.444129 0.648901 0.648043 0.201830
H36   H     H_    0.458040 0.370217 0.118312 0.172275
C33   C     C_R   0.231933 0.296517 0.015596 -0.127437
C34   C     C_R   0.233566 0.703057 0.515835 -0.134492
C35   C     C_R   0.732328 0.796757 0.014854 -0.131939
C36   C     C_R   0.733063 0.203442 0.516499 -0.134394
C37   C     C_R   0.149932 0.346709 0.827813 0.322602
C38   C     C_R   0.150166 0.653449 0.330339 0.301524
C39   C     C_R   0.650005 0.846615 0.827603 0.321751
C40   C     C_R   0.650077 0.153509 0.330393 0.301261
C41   C     C_R   0.117473 0.341274 0.685073 -0.548084
C42   C     C_R   0.116904 0.659138 0.189634 -0.536357
C43   C     C_R   0.617633 0.841124 0.684769 -0.548527
C44   C     C_R   0.616776 0.159237 0.189684 -0.536456
C45   C     C_R   0.130792 0.290626 0.584596 0.243337
C46   C     C_R   0.130894 0.708722 0.087809 0.272050
C47   C     C_R   0.630436 0.790033 0.584974 0.248407
C48   C     C_R   0.630625 0.208961 0.088092 0.272969
C49   C     C_R   0.178141 0.243160 0.627286 -0.292376
C50   C     C_R   0.178727 0.755886 0.129173 -0.316957
C51   C     C_R   0.677165 0.742033 0.628554 -0.288799
C52   C     C_R   0.678293 0.256264 0.129739 -0.317875
C53   C     C_R   0.211068 0.244851 0.771148 0.075115
C54   C     C_R   0.211525 0.754819 0.273016 0.085894
C55   C     C_R   0.710589 0.744229 0.771733 0.073689
C56   C     C_R   0.711148 0.255119 0.273508 0.087392
C57   C     C_R   0.197633 0.296960 0.873121 -0.038996
C58   C     C_R   0.198384 0.702878 0.374755 -0.037089
C59   C     C_R   0.697635 0.796800 0.872959 -0.037167
C60   C     C_R   0.698102 0.203093 0.375110 -0.037466
H37   H     H_    0.083697 0.379312 0.647802 0.159990
H38   H     H_    0.082380 0.621477 0.155480 0.157472
H39   H     H_    0.584149 0.879331 0.647076 0.159254
H40   H     H_    0.582251 0.121580 0.155394 0.156763
C61   C     C_R   0.793776 0.696129 0.952903 -0.057432
C62   C     C_R   0.793823 0.304252 0.454797 -0.065880
C63   C     C_R   0.293631 0.196134 0.953077 -0.071502
C64   C     C_R   0.294376 0.803848 0.454071 -0.067836
C65   C     C_R   0.778866 0.747136 0.056360 0.066079
C66   C     C_R   0.779176 0.253460 0.558143 0.070525
C67   C     C_R   0.278236 0.246667 0.057270 0.074814
C68   C     C_R   0.279906 0.752912 0.557154 0.069522
C69   C     C_R   0.846684 0.650769 0.991304 0.222305
C70   C     C_R   0.846349 0.350109 0.493280 0.236920
C71   C     C_R   0.346463 0.150670 0.991548 0.207720
C72   C     C_R   0.346905 0.849738 0.492511 0.241461
C73   C     C_R   0.884683 0.661132 0.127687 -0.171641
C74   C     C_R   0.884091 0.340583 0.630466 -0.174889
C75   C     C_R   0.384156 0.160736 0.128357 -0.177846
C76   C     C_R   0.384797 0.840120 0.629433 -0.181691
C77   C     C_R   0.863486 0.705237 0.237883 0.264675
C78   C     C_R   0.863399 0.296012 0.739825 0.246434
C79   C     C_R   0.362739 0.204562 0.238899 0.254183
C80   C     C_R   0.364287 0.795305 0.738436 0.245190
C81   C     C_R   0.811449 0.748754 0.200547 -0.354865
C82   C     C_R   0.811673 0.252305 0.702152 -0.356748
C83   C     C_R   0.310463 0.247871 0.201892 -0.350834
C84   C     C_R   0.312590 0.751596 0.700832 -0.358676
C85   C     C_R   0.757185 0.694507 0.813146 -0.136516
C86   C     C_R   0.757935 0.304720 0.314330 -0.154131
C87   C     C_R   0.257775 0.195232 0.812390 -0.136221
C88   C     C_R   0.258371 0.804375 0.313757 -0.153491
H41   H     H_    0.189243 0.205082 0.547302 0.156741
H42   H     H_    0.190168 0.793347 0.048323 0.151462
H43   H     H_    0.687479 0.703002 0.550250 0.152356
H44   H     H_    0.689517 0.293970 0.049301 0.150118
H45   H     H_    0.798225 0.785704 0.282320 0.177809
H46   H     H_    0.798770 0.215333 0.783528 0.185182
H47   H     H_    0.297073 0.284641 0.283950 0.177486
H48   H     H_    0.299683 0.714644 0.782247 0.186239
H49   H     H_    0.223631 0.335032 0.095762 0.171497
H50   H     H_    0.225652 0.664351 0.595023 0.179803
H51   H     H_    0.724115 0.835421 0.094670 0.172156
H52   H     H_    0.725155 0.164754 0.595704 0.180087
H53   H     H_    0.765333 0.655454 0.733366 0.173413
H54   H     H_    0.767170 0.342642 0.233615 0.178870
H55   H     H_    0.266734 0.156924 0.731688 0.175638
H56   H     H_    0.267617 0.842262 0.233039 0.180817
N1    N     N_3   0.928427 0.240068 0.412441 -0.219660
H57   H     H_    0.888698 0.207302 0.402804 0.071857
H58   H     H_    0.938178 0.255062 0.302914 0.197586
N2    N     N_3   0.933311 0.781325 0.883446 -0.222034
H59   H     H_    0.932308 0.731434 0.857589 0.167170
H60   H     H_    0.893994 0.790659 0.953275 0.062038
N3    N     N_3   0.427754 0.742292 0.390957 -0.210502
H61   H     H_    0.386903 0.711053 0.379300 0.073242
H62   H     H_    0.441336 0.753528 0.281633 0.202185
N4    N     N_3   0.432529 0.280810 0.881667 -0.221264
H63   H     H_    0.431695 0.230941 0.855501 0.169232
H64   H     H_    0.392841 0.290042 0.950487 0.062490
C89   C     C_3   0.719963 0.442512 0.029089 -0.811698
H65   H     H_    0.685045 0.480713 0.984696 0.255654
H66   H     H_    0.691901 0.405133 0.089471 0.215133
H67   H     H_    0.755323 0.465398 0.111012 0.279799
C90   C     C_3   0.700327 0.564626 0.460421 -0.871936
H68   H     H_    0.720194 0.556350 0.577534 0.267183
H69   H     H_    0.659787 0.601070 0.463083 0.233227
H70   H     H_    0.679069 0.517971 0.414789 0.271357
C91   C     C_3   0.221357 0.941118 0.027399 -0.821871
H71   H     H_    0.186775 0.980164 0.985699 0.257246
H72   H     H_    0.193201 0.903529 0.086710 0.216023
H73   H     H_    0.257331 0.962919 0.109482 0.279277
C92   C     C_3   0.211176 0.060766 0.515152 -0.820469
H74   H     H_    0.244110 0.052502 0.615695 0.274311
H75   H     H_    0.172995 0.096736 0.544735 0.223237
H76   H     H_    0.186021 0.013766 0.484654 0.260808
N5    N     N_3   0.711189 0.396294 0.775221 -0.193502
H77   H     H_    0.683494 0.355990 0.809292 0.158321
H78   H     H_    0.737306 0.379570 0.683381 0.094542
N6    N     N_3   0.729293 0.604575 0.208020 -0.216650
H79   H     H_    0.699939 0.565528 0.168907 0.151399
H80   H     H_    0.699419 0.646453 0.211810 0.151680
N7    N     N_3   0.211396 0.896833 0.771827 -0.195287
H81   H     H_    0.183911 0.856213 0.804919 0.158179
H82   H     H_    0.237144 0.880828 0.678750 0.093373
N8    N     N_3   0.208097 0.091478 0.248301 -0.192289
H83   H     H_    0.235224 0.109422 0.159461 0.104365
H84   H     H_    0.191318 0.044611 0.218000 0.154420
N9    N     N_3   0.194127 0.535138 0.147084 -0.214089
H85   H     H_    0.223548 0.498567 0.193885 0.180583
H86   H     H_    0.145641 0.518860 0.153731 0.164538
N10   N     N_3   0.193191 0.456443 0.628884 -0.236727
H87   H     H_    0.222738 0.488733 0.691055 0.158990
H88   H     H_    0.144478 0.472856 0.632780 0.136453
N11   N     N_3   0.693570 0.035632 0.146373 -0.214645
H89   H     H_    0.722951 0.999219 0.193791 0.181025
H90   H     H_    0.645105 0.019242 0.152765 0.164184
N12   N     N_3   0.693385 0.956208 0.628636 -0.237167
H91   H     H_    0.723157 0.988277 0.690905 0.158996
H92   H     H_    0.644746 0.972767 0.633090 0.135764
N13   N     N_3   0.162852 0.575549 0.906633 -0.168564
H93   H     H_    0.116438 0.574034 0.953224 0.124115
H94   H     H_    0.154876 0.549480 0.810037 0.202113
N14   N     N_3   0.172229 0.424725 0.374818 -0.158418
H95   H     H_    0.187227 0.375792 0.383035 0.116626
H96   H     H_    0.123098 0.426187 0.406554 0.163848
N15   N     N_3   0.662670 0.075554 0.905314 -0.167821
H97   H     H_    0.616283 0.074484 0.952113 0.124572
H98   H     H_    0.654567 0.049020 0.809444 0.202391
N16   N     N_3   0.671711 0.924841 0.374592 -0.157579
H99   H     H_    0.686602 0.875858 0.382325 0.117622
H100  H     H_    0.622684 0.926297 0.407048 0.163882
C93   C     C_3   0.308073 0.568504 0.828050 -0.909342
H101  H     H_    0.325477 0.518645 0.797566 0.260854
H102  H     H_    0.271281 0.586572 0.742482 0.256419
H103  H     H_    0.350943 0.602312 0.828343 0.261958
C94   C     C_3   0.317363 0.433716 0.321207 -0.917026
H104  H     H_    0.331284 0.483484 0.283333 0.259127
H105  H     H_    0.362711 0.403074 0.326815 0.267799
H106  H     H_    0.283572 0.409707 0.236976 0.251312
C95   C     C_3   0.807735 0.068871 0.827503 -0.910168
H107  H     H_    0.825477 0.019121 0.797066 0.260761
H108  H     H_    0.770822 0.086644 0.741874 0.257176
H109  H     H_    0.850366 0.102980 0.827628 0.261310
C96   C     C_3   0.816695 0.933970 0.318968 -0.918233
H110  H     H_    0.830824 0.983812 0.282035 0.259055
H111  H     H_    0.861838 0.903029 0.323020 0.266082
H112  H     H_    0.782583 0.910486 0.234681 0.252338
C97   C     C_3   0.005254 0.070640 0.917454 -0.915507
H113  H     H_    0.051821 0.071565 0.855988 0.238328
H114  H     H_    0.000348 0.020180 0.962140 0.248383
H115  H     H_    0.961709 0.079233 0.841323 0.265236
C98   C     C_3   0.028911 0.915430 0.414875 -1.014138
H116  H     H_    0.075272 0.896971 0.367620 0.243333
H117  H     H_    0.987305 0.913293 0.330805 0.281510
H118  H     H_    0.037257 0.967799 0.443136 0.251746
C99   C     C_3   0.507421 0.571016 0.907407 -0.920643
H119  H     H_    0.552712 0.574655 0.841734 0.238373
H120  H     H_    0.505167 0.519809 0.948867 0.248514
H121  H     H_    0.462416 0.579132 0.835395 0.265941
C100  C     C_3   0.530125 0.414395 0.414910 -1.016946
H122  H     H_    0.575479 0.394544 0.365731 0.244134
H123  H     H_    0.487925 0.414081 0.332157 0.281001
H124  H     H_    0.540807 0.466223 0.444268 0.251056
C101  C     C_3   0.951180 0.630065 0.156400 -0.729568
H125  H     H_    0.975787 0.614180 0.058134 0.267004
H126  H     H_    0.985974 0.668696 0.195235 0.192773
H127  H     H_    0.948570 0.588182 0.235628 0.258012
C102  C     C_3   0.950089 0.372761 0.659206 -0.695031
H128  H     H_    0.975315 0.386441 0.560038 0.262769
H129  H     H_    0.946566 0.415503 0.736415 0.252040
H130  H     H_    0.985747 0.335529 0.699609 0.186014
C103  C     C_3   0.450561 0.129537 0.157058 -0.710634
H131  H     H_    0.475419 0.114251 0.058534 0.264070
H132  H     H_    0.485422 0.167998 0.196317 0.189872
H133  H     H_    0.447549 0.087403 0.235616 0.258195
C104  C     C_3   0.450298 0.873172 0.659196 -0.694294
H134  H     H_    0.475817 0.886885 0.560395 0.262664
H135  H     H_    0.446046 0.915934 0.736054 0.251510
H136  H     H_    0.486277 0.836537 0.700595 0.185783
C105  C     C_3   0.035600 0.099254 0.561703 -0.857082
H137  H     H_    0.057813 0.089932 0.451303 0.273815
H138  H     H_    0.071909 0.125529 0.636973 0.260416
H139  H     H_    0.023364 0.051074 0.610692 0.241555
C106  C     C_3   0.059894 0.896659 0.060423 -0.893787
H140  H     H_    0.087667 0.904921 0.957097 0.284780
H141  H     H_    0.055521 0.944557 0.118900 0.249215
H142  H     H_    0.087761 0.861456 0.133913 0.257269
C107  C     C_3   0.524775 0.597108 0.545403 -0.849942
H143  H     H_    0.541358 0.585364 0.430703 0.267692
H144  H     H_    0.566173 0.620267 0.612059 0.265015
H145  H     H_    0.510346 0.550475 0.598618 0.245628
C108  C     C_3   0.558030 0.396815 0.059299 -0.891258
H146  H     H_    0.584789 0.406071 0.954982 0.283154
H147  H     H_    0.553350 0.444350 0.119101 0.247726
H148  H     H_    0.587119 0.361734 0.130593 0.257790
N17   N     N_3   0.055227 0.206385 0.882496 -0.220921
H149  H     H_    0.101193 0.204486 0.940591 0.081569
H150  H     H_    0.049604 0.254390 0.844234 0.118408
N18   N     N_3   0.058155 0.774544 0.444747 -0.239759
H151  H     H_    0.047038 0.765076 0.330595 0.112543
H152  H     H_    0.071879 0.730511 0.497343 0.159053
N19   N     N_3   0.552304 0.706507 0.871725 -0.217415
H153  H     H_    0.599652 0.702713 0.922667 0.079002
H154  H     H_    0.546864 0.755166 0.838255 0.117200
N20   N     N_3   0.557491 0.273517 0.442677 -0.240108
H155  H     H_    0.545425 0.262985 0.329455 0.113627
H156  H     H_    0.572090 0.230121 0.496938 0.158187
N21   N     N_3   0.073449 0.109792 0.126498 -0.227252
H157  H     H_    0.072405 0.066421 0.189448 0.121461
H158  H     H_    0.085842 0.148420 0.198972 0.178326
N22   N     N_3   0.068911 0.880969 0.664073 -0.173677
H159  H     H_    0.110571 0.862085 0.612834 0.111518
H160  H     H_    0.079038 0.930469 0.687757 0.130946
N23   N     N_3   0.576311 0.609869 0.117033 -0.238393
H161  H     H_    0.578682 0.563228 0.166405 0.115664
H162  H     H_    0.583592 0.644063 0.203177 0.163014
N24   N     N_3   0.570053 0.379251 0.663355 -0.173420
H163  H     H_    0.611405 0.359645 0.612096 0.112793
H164  H     H_    0.580978 0.428605 0.686856 0.132718
C109  C     C_3   0.952144 0.106444 0.150210 -0.903514
H165  H     H_    0.904458 0.106626 0.084932 0.271485
H166  H     H_    0.958166 0.058328 0.208296 0.236071
H167  H     H_    0.949184 0.145781 0.233134 0.235771
C110  C     C_3   0.951468 0.906841 0.625697 -0.904756
H168  H     H_    0.916383 0.922944 0.536177 0.270452
H169  H     H_    0.924985 0.871761 0.696285 0.236817
H170  H     H_    0.964780 0.951324 0.693020 0.225081
C111  C     C_3   0.455818 0.602655 0.145390 -0.914976
H171  H     H_    0.407229 0.603869 0.083823 0.273853
H172  H     H_    0.462981 0.553343 0.197236 0.238986
H173  H     H_    0.454342 0.639743 0.233891 0.242255
C112  C     C_3   0.452809 0.406722 0.626674 -0.899396
H174  H     H_    0.418710 0.425997 0.538255 0.267638
H175  H     H_    0.424727 0.371295 0.693154 0.237909
H176  H     H_    0.467284 0.449350 0.698955 0.222853

loop_
_geom_bond_atom_site_label_1
_geom_bond_atom_site_label_2
_geom_bond_distance
_ccdc_geom_bond_type
C1    H33   1.105882 S    
O40   C15   1.403750 S    
C24   N16   1.455922 S    
C106  H141  1.107640 S    
C38   C42   1.397498 A    
P9    O41   1.769794 S    
C7    N19   1.459771 S    
C108  H146  1.105834 S    
O24   P15   1.745556 S    
P11   O43   1.770536 S    
C52   H44   1.079218 S    
C99   H119  1.106425 S    
P12   O44   1.766961 S    
C94   H106  1.104674 S    
P5    C70   1.889203 S    
C13   C17   1.537876 S    
O3    Ba3   2.854265 S    
C62   C70   1.444433 A    
C50   C54   1.413015 A    
C99   H121  1.102398 S    
N8    H84   1.043636 S    
N15   H97   1.040093 S    
C1    H1    1.107086 S    
C89   H67   1.100966 S    
N6    H79   1.042597 S    
N16   H99   1.042504 S    
O22   C30   1.413429 S    
C45   C49   1.400694 A    
O16   P15   1.546892 D    
C42   C46   1.392274 A    
C29   N1    1.467957 S    
O19   C23   1.416688 S    
C48   C52   1.401209 A    
P2    O18   1.781966 S    
C18   C90   1.537760 S    
Ba2   O46   2.862401 S    
C47   C51   1.401831 A    
P4    O8    1.578670 S    
C93   H102  1.103865 S    
C37   C41   1.405364 A    
C110  H170  1.110225 S    
C24   C28   1.555813 S    
N17   H150  1.039632 S    
O26   Ba2   2.858104 S    
O10   P13   1.755148 S    
C15   H15   1.107894 S    
C40   C60   1.444773 A    
C21   C25   1.544471 S    
C24   N12   1.431139 S    
C39   C59   1.443611 A    
N21   H158  1.038245 S    
P7    C72   1.889455 S    
N1    H58   1.044271 S    
O28   Ba4   2.858104 S    
P14   C45   1.871848 S    
P3    C39   1.890117 S    
C63   C87   1.416638 A    
C111  H173  1.087978 S    
C2    H2    1.103606 S    
C61   C85   1.416989 A    
C107  H143  1.107813 S    
C16   C20   1.539548 S    
C103  H133  1.109227 S    
C21   N9    1.424108 S    
P8    Ba4   3.501421 S    
C90   H68   1.110702 S    
C14   H10   1.108321 S    
C8    H8    1.108889 S    
C84   H48   1.082835 S    
C34   C58   1.413131 A    
C70   C74   1.422506 A    
C43   H39   1.075060 S    
C12   C112  1.540241 S    
N14   H96   1.042817 S    
C64   C88   1.415213 A    
P5    O25   1.612037 D    
C56   C60   1.423388 A    
C108  H148  1.107208 S    
P7    O27   1.612037 D    
C62   C66   1.422107 A    
C107  H145  1.105635 S    
P8    O28   1.614680 D    
P15   C48   1.867802 S    
C53   C87   1.419733 A    
O37   C14   1.401384 S    
C82   H46   1.082853 S    
N11   H90   1.038761 S    
O39   C16   1.400730 S    
P4    C40   1.885825 S    
C20   N8    1.459780 S    
C16   H16   1.106633 S    
C109  H165  1.103910 S    
C33   C57   1.415687 A    
C6    H6    1.108812 S    
Ba1   O45   2.865615 S    
N20   H155  1.044496 S    
C31   H31   1.106889 S    
P3    O7    1.578458 S    
O29   Ba1   2.854945 S    
C88   H56   1.074738 S    
O41   C5    1.410932 S    
O13   P14   1.549491 D    
P8    O47   1.582402 S    
C95   H108  1.103819 S    
C104  H134  1.071248 S    
N23   H161  1.046538 S    
C23   C27   1.543901 S    
O20   C24   1.414678 S    
C10   C110  1.538278 S    
P5    O37   1.749549 S    
P7    O48   1.582628 S    
O5    Ba2   2.865464 S    
P8    O40   1.746187 S    
C18   N6    1.461035 S    
C6    N18   1.466333 S    
C3    C31   1.549277 S    
P6    Ba2   3.501421 S    
Ba1   Ba2   4.833949 S    
O44   C8    1.409780 S    
C25   H25   1.113578 S    
N2    H60   1.042922 S    
C33   C67   1.418667 A    
C90   H70   1.111229 S    
C74   C78   1.405260 A    
N9    H85   1.029582 S    
C50   H42   1.079164 S    
C102  H129  1.108973 S    
N19   H154  1.038985 S    
N24   H163  1.044749 S    
C6    C10   1.567316 S    
C20   H20   1.110383 S    
O27   Ba3   2.861973 S    
N5    H77   1.045660 S    
C105  H138  1.108712 S    
O8    Ba3   2.862252 S    
O38   C13   1.404051 S    
P6    O45   1.582402 S    
C112  H176  1.109510 S    
C74   C102  1.498996 S    
N10   H88   1.040740 S    
C9    C109  1.532874 S    
O22   P13   1.745442 S    
C11   C99   1.533000 S    
C91   H71   1.111591 S    
P10   O42   1.766309 S    
C15   C19   1.537137 S    
P12   O32   1.789145 S    
C13   H13   1.107516 S    
P6    C69   1.887451 S    
C93   H101  1.109529 S    
O9    Ba1   2.863932 S    
C98   H117  1.101619 S    
C63   C71   1.442786 A    
C61   C69   1.442417 A    
O10   Ba2   2.857045 S    
C101  H126  1.100832 S    
O30   Ba2   2.861815 S    
O11   P16   1.755729 S    
O42   C6    1.409318 S    
C51   C55   1.413788 A    
C52   C56   1.412969 A    
C109  H167  1.088174 S    
O12   Ba4   2.857045 S    
Ba3   O47   2.865615 S    
O32   Ba4   2.861815 S    
C54   C88   1.420339 A    
C23   N15   1.449312 S    
O6    Ba1   2.862252 S    
C43   C47   1.393443 A    
C97   H113  1.105894 S    
C29   H29   1.107731 S    
C86   H54   1.075180 S    
P7    Ba3   3.504533 S    
C11   C111  1.533383 S    
P1    Ba1   3.498648 S    
C104  H136  1.094339 S    
N22   H160  1.047301 S    
C96   H110  1.108075 S    
Ba4   O47   3.088244 S    
C9    N21   1.467355 S    
N13   H94   1.013160 S    
P9    O33   1.548212 D    
C30   N2    1.460080 S    
P10   O30   1.788683 S    
P10   C77   1.878484 S    
P11   O35   1.547446 D    
P16   C47   1.871545 S    
O1    Ba1   2.854265 S    
P2    C38   1.885297 S    
C7    C11   1.575167 S    
C51   H43   1.078606 S    
C55   C85   1.420107 A    
C25   H21   1.108416 S    
N4    H64   1.042938 S    
C27   H23   1.108275 S    
C44   C48   1.392349 A    
O23   P16   1.749228 S    
C4    H4    1.104287 S    
C77   C81   1.403712 A    
N12   H91   1.032003 S    
C94   H105  1.107110 S    
C19   C91   1.528712 S    
C80   C84   1.402555 A    
C4    C32   1.534110 S    
C92   H75   1.101288 S    
O4    Ba4   2.858106 S    
C11   N23   1.466702 S    
C69   C73   1.420997 A    
C89   H66   1.101914 S    
N6    H80   1.044836 S    
P9    C78   1.875335 S    
C22   N10   1.431010 S    
C75   C103  1.496404 S    
C17   H17   1.110295 S    
C91   H73   1.100561 S    
C41   C45   1.392861 A    
C112  H175  1.104075 S    
C35   C65   1.418076 A    
P12   C79   1.878766 S    
C19   H19   1.108925 S    
P3    Ba3   3.498648 S    
N18   H151  1.044632 S    
C92   H76   1.111529 S    
C2    C106  1.520463 S    
C61   C65   1.422595 A    
C1    C29   1.543372 S    
C36   C60   1.413411 A    
C64   C68   1.421893 A    
C110  H169  1.103408 S    
C99   H120  1.107601 S    
C73   C101  1.496941 S    
C16   H12   1.107863 S    
N21   H157  1.046142 S    
C34   H50   1.072746 S    
C31   N3    1.469565 S    
C41   H37   1.075163 S    
N1    H57   1.045177 S    
C14   C18   1.538897 S    
P1    O17   1.778281 S    
C83   H47   1.083270 S    
P1    O1    1.615666 D    
O2    Ba2   2.858106 S    
C27   C95   1.525173 S    
C97   H115  1.101219 S    
P3    O3    1.615666 D    
C111  H172  1.111773 S    
P4    O20   1.781049 S    
C30   H30   1.113144 S    
C96   H112  1.104189 S    
C106  H140  1.105916 S    
P9    O29   1.785910 S    
C103  H132  1.100292 S    
O21   C29   1.412373 S    
P6    O38   1.749262 S    
O23   C31   1.414004 S    
C72   C76   1.422341 A    
C5    N17   1.459179 S    
C55   C59   1.424630 A    
P4    O4    1.613020 D    
C64   C72   1.444826 A    
C107  H144  1.109511 S    
C36   H52   1.072550 S    
C108  H147  1.107363 S    
C100  H123  1.102246 S    
C18   H18   1.111314 S    
N7    H82   1.043372 S    
C19   N7    1.455286 S    
P1    O5    1.578458 S    
C3    H35   1.107032 S    
N19   H153  1.044321 S    
C62   C86   1.415244 A    
N8    H83   1.043929 S    
N17   H149  1.044553 S    
C28   H24   1.109828 S    
C95   H107  1.109637 S    
C75   C79   1.403268 A    
P8    C71   1.887823 S    
P12   O36   1.548661 D    
C13   H9    1.106234 S    
P7    O39   1.746613 S    
N20   H156  1.043315 S    
C4    C108  1.521076 S    
C66   C82   1.411726 A    
C44   H40   1.072311 S    
C3    H3    1.109163 S    
C8    C12   1.566984 S    
C53   C57   1.423892 A    
N3    H61   1.044405 S    
C4    H36   1.106839 S    
C12   C100  1.535466 S    
C21   N13   1.449528 S    
C23   N11   1.424256 S    
C17   C89   1.529438 S    
C38   C58   1.444493 A    
C28   H28   1.113668 S    
C90   H69   1.105054 S    
P10   O34   1.549097 D    
C15   H11   1.106988 S    
C106  H142  1.107486 S    
P11   O31   1.786465 S    
C102  H128  1.070770 S    
N24   H164  1.047328 S    
P11   C80   1.874592 S    
C5    H5    1.114290 S    
C35   C59   1.414798 A    
C3    C107  1.522476 S    
C7    H7    1.113268 S    
C49   C53   1.414440 A    
C105  H137  1.107907 S    
P1    C37   1.887335 S    
O14   P13   1.546861 D    
N14   H95   1.042395 S    
C100  H122  1.105569 S    
C10   N22   1.461176 S    
C78   C82   1.403082 A    
C8    N20   1.466247 S    
O24   C32   1.413484 S    
C2    C30   1.533383 S    
C37   C57   1.443489 A    
C25   C93   1.524771 S    
C98   H116  1.105885 S    
P3    O19   1.777966 S    
C40   C44   1.397947 A    
P5    Ba1   3.504533 S    
C33   H49   1.073643 S    
C101  H125  1.068532 S    
C39   C43   1.405426 A    
C103  H131  1.069376 S    
C26   H26   1.113668 S    
O12   P15   1.754769 S    
C95   H109  1.107135 S    
C109  H166  1.111817 S    
C67   C83   1.414133 A    
C68   C84   1.410825 A    
C49   H41   1.077879 S    
N13   H93   1.040063 S    
C5    C9    1.574056 S    
P13   C46   1.867682 S    
C9    C97   1.531805 S    
Ba1   O46   3.086351 S    
C12   N24   1.461554 S    
Ba3   O48   3.086351 S    
P5    O46   1.582628 S    
C104  H135  1.108768 S    
Ba4   O48   2.862401 S    
O21   P14   1.748479 S    
N16   H100  1.042755 S    
O17   C21   1.416582 S    
C14   H14   1.105785 S    
C42   H38   1.072061 S    
C22   N14   1.455868 S    
P2    O2    1.613020 D    
C32   H32   1.113063 S    
C2    H34   1.106437 S    
C71   C75   1.420132 A    
O31   Ba3   2.854945 S    
O43   C7    1.411171 S    
O15   P16   1.549793 D    
P6    O26   1.614680 D    
C76   C104  1.499289 S    
N2    H59   1.040309 S    
C32   N4    1.460089 S    
N9    H86   1.038645 S    
C73   C77   1.403221 A    
C102  H130  1.095789 S    
N12   H92   1.040641 S    
C81   H45   1.083163 S    
C94   H104  1.108161 S    
C63   C67   1.422218 A    
C76   C80   1.405073 A    
O7    Ba4   2.865464 S    
N5    H78   1.043155 S    
C105  H139  1.105790 S    
C87   H55   1.076253 S    
N3    H62   1.043153 S    
C28   C96   1.532383 S    
C85   H53   1.078845 S    
Ba3   Ba4   4.833949 S    
C100  H124  1.105236 S    
N10   H87   1.031864 S    
C89   H65   1.111252 S    
N23   H162  1.037646 S    
C91   H72   1.101132 S    
C27   H27   1.113591 S    
C112  H174  1.095547 S    
N18   H152  1.043286 S    
P4    Ba4   3.501708 S    
C34   C68   1.419154 A    
C98   H118  1.105796 S    
C17   N5    1.455615 S    
C93   H103  1.107042 S    
C1    C105  1.520841 S    
N11   H89   1.028935 S    
P2    O6    1.578670 S    
C35   H51   1.073479 S    
Ba2   O45   3.088244 S    
C56   C86   1.420375 A    
C110  H168  1.093180 S    
C26   H22   1.109658 S    
C101  H127  1.108407 S    
N15   H98   1.013101 S    
C79   C83   1.404013 A    
O11   Ba3   2.863932 S    
N7    H81   1.045769 S    
O18   C22   1.414793 S    
C26   C94   1.532011 S    
C20   C92   1.534056 S    
C97   H114  1.107709 S    
O25   Ba1   2.861973 S    
C111  H171  1.104307 S    
O9    P14   1.753856 S    
C65   C81   1.413951 A    
N22   H159  1.044304 S    
C96   H111  1.107010 S    
C22   C26   1.556938 S    
N4    H63   1.040426 S    
C54   C58   1.423299 A    
P2    Ba2   3.501708 S    
C36   C66   1.419227 A    
C46   C50   1.400982 A    
C10   C98   1.536021 S    
C92   H74   1.103623 S    
