data_mof_unit_56384.cif
_audit_creation_date              2012-12-11T16:50:51-0500
_audit_creation_method            fapswitch 2.2
_symmetry_space_group_name_H-M    P1
_symmetry_Int_Tables_number       1
_space_group_crystal_system       triclinic
_cell_length_a                    6.922312
_cell_length_b                    28.824445
_cell_length_c                    32.126216
_cell_angle_alpha                 101.002576
_cell_angle_beta                  89.684925
_cell_angle_gamma                 90.324706
_cell_volume                      6292.20853287

loop_
_atom_site_label
_atom_site_type_symbol
_atom_type_description
_atom_site_fract_x
_atom_site_fract_y
_atom_site_fract_z
_atom_type_partial_charge
O1    O     O_R   0.494350 0.453170 0.452520 -0.542533
O2    O     O_R   0.820980 0.455850 0.538220 -0.545406
O3    O     O_R   0.994300 0.546830 0.547480 -0.537806
C1    C     C_R   0.651935 0.444897 0.551178 0.717757
O4    O     O_R   0.823860 0.447590 0.452270 -0.518120
O5    O     O_R   0.997200 0.538510 0.460920 -0.538917
C2    C     C_R   0.655152 0.434221 0.436845 0.736613
O6    O     O_R   0.491440 0.461490 0.539080 -0.537205
O7    O     O_3   0.661790 0.529840 0.502940 -0.369060
V1    V     V_3+5 0.935470 0.494460 0.499450 1.428764
O8    O     O_R   0.327090 0.544150 0.461780 -0.543698
C3    C     C_R   0.158857 0.554311 0.448344 0.704668
O9    O     O_R   0.324210 0.552410 0.547730 -0.540773
C4    C     C_R   0.155163 0.565179 0.563449 0.714648
V2    V     V_3+5 0.435840 0.505540 0.500550 1.417147
O10   O     O_3   0.159650 0.470160 0.497060 -0.361201
C5    C     C_R   0.212151 0.890434 0.872735 -0.152600
H1    H     H_    0.334413 0.914132 0.880154 0.130028
C6    C     C_R   0.221229 0.854799 0.836473 -0.209261
C7    C     C_R   0.066174 0.823344 0.825410 0.089985
C8    C     C_R   0.899911 0.828219 0.851457 0.222782
C9    C     C_R   0.889894 0.864755 0.887430 -0.215078
C10   C     C_R   0.045902 0.896091 0.898528 -0.076791
C11   C     C_R   0.942366 0.782267 0.754360 -0.097864
H2    H     H_    0.824390 0.807214 0.757180 0.124528
C12   C     C_R   0.957106 0.747067 0.717812 -0.172154
H3    H     H_    0.850432 0.745472 0.693042 0.124481
C13   C     C_R   0.108387 0.714174 0.713223 0.079623
C14   C     C_R   0.246246 0.717527 0.745603 -0.148214
C15   C     C_R   0.233428 0.753227 0.781837 -0.157414
C16   C     C_R   0.080354 0.785675 0.786748 0.112593
C17   C     C_R   0.272610 0.675859 0.644871 0.201261
C18   C     C_R   0.284264 0.639360 0.609126 -0.125279
H4    H     H_    0.400973 0.639809 0.586584 0.147992
C19   C     C_R   0.144344 0.603345 0.601655 -0.173956
C20   C     C_R   0.993215 0.603833 0.631035 -0.126434
H5    H     H_    0.885247 0.575967 0.626093 0.144798
C21   C     C_R   0.981789 0.639177 0.667570 0.202564
C22   C     C_R   0.121133 0.676027 0.674805 -0.024409
C23   C     C_R   0.265362 0.673056 0.294785 0.629863
N1    N     N_R   0.129551 0.677520 0.326407 -0.577240
C24   C     C_R   0.986127 0.710473 0.329257 0.633926
C25   C     C_R   0.970601 0.739978 0.298753 -0.040454
C26   C     C_R   0.112433 0.736419 0.266323 -0.137938
C27   C     C_R   0.263460 0.703090 0.264517 -0.050266
C28   C     C_R   0.817342 0.772636 0.299844 0.156171
C29   C     C_R   0.807718 0.801999 0.269383 0.149130
C30   C     C_R   0.951513 0.799286 0.237421 -0.054212
C31   C     C_R   0.103084 0.766098 0.235714 -0.141655
C32   C     C_R   0.244953 0.762535 0.203270 -0.057549
C33   C     C_R   0.398471 0.729988 0.202258 0.156672
C34   C     C_R   0.407822 0.700548 0.232672 0.151775
C35   C     C_R   0.947979 0.828820 0.206779 0.635869
N2    N     N_R   0.084137 0.824409 0.175297 -0.562662
C36   C     C_R   0.228793 0.791866 0.172636 0.689507
O11   O     O_2   0.399912 0.638976 0.292399 -0.493767
O12   O     O_2   0.860552 0.714918 0.362016 -0.495582
O13   O     O_2   0.810678 0.862142 0.208399 -0.488122
O14   O     O_2   0.354820 0.787730 0.139978 -0.483917
C37   C     C_R   0.914138 0.849950 0.116291 -0.124238
H6    H     H_    0.803354 0.823787 0.118457 0.182533
C38   C     C_R   0.895868 0.878997 0.086169 0.145120
C39   C     C_R   0.041168 0.913188 0.082755 -0.125022
C40   C     C_R   0.200928 0.916797 0.110189 -0.286471
H7    H     H_    0.313334 0.942718 0.108545 0.137028
C41   C     C_R   0.216498 0.888038 0.140727 0.237473
C42   C     C_R   0.072431 0.854231 0.143832 0.314240
C43   C     C_R   0.303080 0.644961 0.381815 -0.080745
H8    H     H_    0.426875 0.667017 0.378198 0.162667
C44   C     C_R   0.310765 0.614826 0.411188 -0.204185
C45   C     C_R   0.150959 0.586374 0.417216 -0.058209
C46   C     C_R   0.983977 0.588543 0.392880 -0.202652
H9    H     H_    0.858820 0.566918 0.396501 0.132430
C47   C     C_R   0.977751 0.618034 0.362970 -0.083290
C48   C     C_R   0.136888 0.646712 0.357211 0.347377
C49   C     C_R   0.582580 0.223671 0.837919 0.567983
N3    N     N_R   0.574735 0.175539 0.824684 -0.557493
C50   C     C_R   0.574241 0.155689 0.782309 0.564947
C51   C     C_R   0.575167 0.184472 0.751425 -0.027903
C52   C     C_R   0.582167 0.233945 0.764548 -0.013681
C53   C     C_R   0.587434 0.253830 0.808128 -0.029520
C54   C     C_R   0.568538 0.165022 0.707847 -0.139980
C55   C     C_R   0.568493 0.194268 0.677760 -0.137840
C56   C     C_R   0.577054 0.243702 0.690464 -0.037830
C57   C     C_R   0.584468 0.263587 0.734012 -0.017345
C58   C     C_R   0.594547 0.313033 0.747084 -0.032225
C59   C     C_R   0.600329 0.332481 0.790684 -0.137839
C60   C     C_R   0.596231 0.303264 0.820818 -0.139590
C61   C     C_R   0.579887 0.273817 0.660666 0.623499
N4    N     N_R   0.594856 0.321922 0.673747 -0.539807
C62   C     C_R   0.600844 0.341762 0.716127 0.582924
O15   O     O_2   0.584277 0.242333 0.879749 -0.519631
O16   O     O_2   0.572780 0.108238 0.770066 -0.523373
H10   H     H_    0.562585 0.127116 0.696822 0.171098
H11   H     H_    0.562971 0.177967 0.644495 0.171040
O17   O     O_2   0.567956 0.255121 0.618927 -0.518363
O18   O     O_2   0.615449 0.389090 0.728333 -0.520213
H12   H     H_    0.608011 0.370371 0.801698 0.172051
C63   C     C_R   0.463339 0.383734 0.638248 -0.151170
C64   C     C_R   0.478035 0.413131 0.608389 -0.220959
H13   H     H_    0.361399 0.437494 0.606424 0.144195
C65   C     C_R   0.641721 0.411955 0.581996 -0.125705
C66   C     C_R   0.791864 0.379419 0.586013 0.103738
C67   C     C_R   0.775519 0.349850 0.616281 0.246145
C68   C     C_R   0.610930 0.351923 0.642462 0.338849
C69   C     C_R   0.387857 0.124064 0.864359 0.231519
C70   C     C_R   0.380645 0.094978 0.894734 -0.161872
H14   H     H_    0.243868 0.078958 0.900744 0.143656
C71   C     C_R   0.547816 0.086011 0.916685 -0.121197
C72   C     C_R   0.722551 0.107559 0.908058 -0.191762
H15   H     H_    0.853553 0.101846 0.924616 0.144945
C73   C     C_R   0.729637 0.137288 0.878291 -0.102406
H16   H     H_    0.864167 0.154252 0.872686 0.157657
C74   C     C_R   0.564060 0.145340 0.855798 0.334211
C75   C     C_R   0.382146 0.131041 0.116262 -0.161189
C76   C     C_R   0.393925 0.167639 0.151846 -0.135729
C77   C     C_R   0.569738 0.178135 0.173322 0.093932
C78   C     C_R   0.732297 0.150546 0.159175 -0.142964
H17   H     H_    0.867588 0.156563 0.176145 0.103519
C79   C     C_R   0.721335 0.114318 0.123408 -0.155739
H18   H     H_    0.849937 0.093916 0.113349 0.121103
C80   C     C_R   0.546270 0.104127 0.101360 -0.054660
C81   C     C_R   0.459345 0.215466 0.246109 -0.183599
H19   H     H_    0.356981 0.186717 0.245156 0.129821
C82   C     C_R   0.470166 0.250549 0.282764 -0.154514
C83   C     C_R   0.604018 0.287649 0.285367 0.029646
C84   C     C_R   0.721987 0.290171 0.250235 -0.119341
H20   H     H_    0.821903 0.319487 0.251514 0.134387
C85   C     C_R   0.712096 0.255340 0.213274 0.207557
C86   C     C_R   0.581729 0.216814 0.211255 0.025022
C87   C     C_R   0.785111 0.326938 0.350961 0.172587
C88   C     C_R   0.796784 0.362207 0.388098 0.199223
C89   C     C_R   0.645260 0.395278 0.398842 -0.099667
C90   C     C_R   0.481590 0.391225 0.372621 -0.229347
H21   H     H_    0.363518 0.415986 0.379886 0.142337
C91   C     C_R   0.468759 0.355905 0.336296 -0.159517
H22   H     H_    0.341011 0.353936 0.316686 0.139271
C92   C     C_R   0.620293 0.323979 0.324726 0.023392
O19   O     O_R   0.699170 0.038480 0.960880 -0.535705
O20   O     O_R   0.366800 0.052460 0.047690 -0.542143
O21   O     O_R   0.193520 0.961530 0.039110 -0.535108
C93   C     C_R   0.535591 0.065395 0.063408 0.691346
O22   O     O_R   0.369630 0.044100 0.961740 -0.542721
O23   O     O_R   0.196370 0.953120 0.952550 -0.538095
C94   C     C_R   0.538755 0.054225 0.948189 0.722609
O24   O     O_R   0.696320 0.046890 0.047450 -0.538625
O25   O     O_3   0.528890 0.970170 0.997080 -0.367489
V3    V     V_3+5 0.255190 0.005530 0.000540 1.404989
O26   O     O_R   0.866460 0.947530 0.952310 -0.541929
C95   C     C_R   0.035508 0.934621 0.936611 0.704438
O27   O     O_R   0.863630 0.955880 0.038270 -0.546489
C96   C     C_R   0.031815 0.945247 0.051386 0.716905
V4    V     V_3+5 0.754830 0.994440 0.999470 1.396970
O28   O     O_3   0.031000 0.029830 0.002920 -0.366833
N5    N     N_3   0.830273 0.635944 0.697476 -0.659014
H23   H     H_    0.892421 0.635961 0.727066 0.245854
H24   H     H_    0.742094 0.665599 0.699971 0.228419
N6    N     N_3   0.668823 0.775676 0.331668 -0.589729
H25   H     H_    0.665983 0.809973 0.349576 0.234069
H26   H     H_    0.535214 0.767792 0.316986 0.224729
N7    N     N_3   0.649678 0.834389 0.270801 -0.579606
H27   H     H_    0.519600 0.815521 0.267609 0.229370
H28   H     H_    0.650605 0.857913 0.299897 0.233736
N8    N     N_3   0.547133 0.727031 0.170474 -0.590167
H29   H     H_    0.550147 0.692750 0.152536 0.233678
H30   H     H_    0.680651 0.734912 0.185194 0.224489
N9    N     N_3   0.566280 0.668300 0.231363 -0.590083
H31   H     H_    0.566089 0.644815 0.202244 0.235737
H32   H     H_    0.696052 0.687289 0.234669 0.225154
N10   N     N_3   0.730383 0.871919 0.059063 -0.642361
H33   H     H_    0.776628 0.866482 0.027476 0.234072
H34   H     H_    0.643583 0.901989 0.065680 0.244222
H35   H     H_    0.348716 0.852190 0.816523 0.122456
N11   N     N_3   0.377309 0.893672 0.169116 -0.593437
H36   H     H_    0.378621 0.928603 0.185700 0.229460
H37   H     H_    0.503812 0.888303 0.150938 0.267047
H38   H     H_    0.441319 0.614178 0.429489 0.139007
H39   H     H_    0.848732 0.618482 0.344137 0.154400
H40   H     H_    0.600470 0.319569 0.854092 0.172355
H41   H     H_    0.336585 0.385852 0.658392 0.144281
N12   N     N_3   0.743467 0.795236 0.842146 -0.683782
H42   H     H_    0.618611 0.814260 0.838737 0.216711
H43   H     H_    0.723185 0.778955 0.868276 0.238103
N13   N     N_3   0.960476 0.374659 0.559389 -0.666121
H44   H     H_    0.043099 0.405558 0.566617 0.247448
H45   H     H_    0.917960 0.368808 0.527629 0.247984
N14   N     N_3   0.927929 0.317852 0.621151 -0.627965
H46   H     H_    0.054828 0.337421 0.628529 0.238578
H47   H     H_    0.948567 0.294828 0.592140 0.275280
N15   N     N_3   0.214022 0.132128 0.842969 -0.681787
H48   H     H_    0.192862 0.168610 0.847051 0.232721
H49   H     H_    0.231631 0.118797 0.810599 0.266096
H50   H     H_    0.244707 0.124072 0.100286 0.123746
H51   H     H_    0.265950 0.188037 0.162483 0.108381
H52   H     H_    0.760990 0.867999 0.907039 0.128726
H53   H     H_    0.376181 0.248377 0.309403 0.141420
N16   N     N_3   0.830278 0.261094 0.177840 -0.665586
H54   H     H_    0.932307 0.234093 0.172234 0.221101
H55   H     H_    0.742526 0.258549 0.151109 0.245515
N17   N     N_3   0.940211 0.293762 0.341110 -0.689824
H56   H     H_    0.002264 0.297556 0.312231 0.225250
H57   H     H_    0.883556 0.259571 0.337914 0.242299
N18   N     N_3   0.960691 0.363631 0.415435 -0.646114
H58   H     H_    0.085133 0.367495 0.397846 0.246030
H59   H     H_    0.968791 0.331318 0.425567 0.247219
H60   H     H_    0.363269 0.692327 0.742900 0.125163
H61   H     H_    0.341286 0.755088 0.806395 0.130966
N19   N     N_3   0.413086 0.713163 0.649283 -0.666543
H62   H     H_    0.489775 0.713877 0.677275 0.220802
H63   H     H_    0.340392 0.745262 0.651656 0.241978

loop_
_geom_bond_atom_site_label_1
_geom_bond_atom_site_label_2
_ccdc_geom_bond_type
C26   C31   A    
C59   C60   A    
C84   C85   A    
N15   H48   S    
C54   H10   S    
C35   O13   S    
C36   O14   S    
N5    H24   S    
C65   C66   A    
N1    C24   A    
C93   O24   A    
C19   C20   A    
C1    O6    A    
O20   V3    S    
C73   C74   A    
N7    H27   S    
C81   H19   S    
N9    H32   S    
N3    C50   A    
C76   C77   A    
C43   C48   A    
C8    N12   S    
N18   H59   S    
C12   H3    S    
C83   C84   A    
C69   C74   A    
C55   C56   A    
C8    C9    A    
N8    H29   S    
C11   C12   A    
C2    C89   S    
C58   C62   A    
C34   N9    S    
O5    C3    A    
C21   C22   A    
C81   C82   A    
C69   C70   A    
O19   V4    S    
C50   O16   S    
V2    O10   S    
C28   N6    S    
N12   H42   S    
N13   H44   S    
C37   C38   A    
C17   C22   A    
N16   H55   S    
O26   V4    S    
C78   H17   S    
C67   C68   A    
O23   C95   A    
C66   C67   A    
O21   V3    S    
C5    C6    A    
N11   H36   S    
O8    V2    S    
C56   C57   A    
O19   C94   A    
N10   H33   S    
O25   V3    S    
C37   C42   A    
N13   H45   S    
N17   H56   S    
C23   O11   S    
C1    C65   S    
C20   H5    S    
O27   C96   A    
C44   C45   A    
O1    V2    S    
C17   N19   S    
C14   C15   A    
C83   C92   S    
O7    V1    S    
C51   C52   A    
O23   V3    S    
C46   H9    S    
C59   H12   S    
C76   H51   S    
C41   C42   A    
C75   H50   S    
V4    O28   S    
C75   C80   A    
O1    C2    A    
O9    C4    A    
N6    H26   S    
C70   C71   A    
C23   C27   A    
V3    O28   S    
C21   N5    S    
C38   N10   S    
C24   O12   S    
C73   H16   S    
N7    H28   S    
C79   C80   A    
C32   C33   A    
C78   C79   A    
N12   H43   S    
C72   C73   A    
O22   V3    S    
C63   C68   A    
C47   C48   A    
C33   C34   A    
C11   H2    S    
C46   C47   A    
N19   H62   S    
N9    H31   S    
O4    C2    A    
C50   C51   A    
C43   H8    S    
C90   C91   A    
N2    C42   S    
C27   C34   A    
C57   C58   A    
C62   O18   S    
C14   H60   S    
C66   N13   S    
C37   H6    S    
C40   C41   A    
N6    H25   S    
O2    C1    A    
C25   C26   A    
C6    H35   S    
C52   C57   A    
N1    C48   S    
C89   C90   A    
C29   C30   A    
C47   H39   S    
C70   H14   S    
C55   H11   S    
C38   C39   A    
C64   C65   A    
C5    H1    S    
C33   N8    S    
C72   H15   S    
C5    C10   A    
C49   N3    A    
C77   C86   S    
O3    C4    A    
C49   O15   S    
C91   C92   A    
C23   N1    A    
C3    C45   S    
C54   C55   A    
O6    V2    S    
O9    V2    S    
C81   C86   A    
C82   C83   A    
C9    H52   S    
C24   C25   A    
C69   N15   S    
C84   H20   S    
O2    V1    S    
C4    C19   S    
C79   H18   S    
C60   H40   S    
C85   C86   A    
N2    C36   A    
O22   C94   A    
C67   N14   S    
C28   C29   A    
C13   C14   A    
C88   N18   S    
N15   H49   S    
C58   C59   A    
C10   C95   S    
C71   C94   S    
C26   C27   A    
N4    C68   S    
O20   C93   A    
C52   C53   A    
C49   C53   A    
O5    V1    S    
C51   C54   A    
O8    C3    A    
C44   H38   S    
C35   N2    A    
C90   H21   S    
C30   C35   A    
C13   C22   S    
C12   C13   A    
C32   C36   A    
C82   H53   S    
C63   C64   A    
N3    C74   S    
C17   C18   A    
C6    C7    A    
N8    H30   S    
C87   N17   S    
O7    V2    S    
C11   C16   A    
O4    V1    S    
O3    V1    S    
V1    O10   S    
O26   C95   A    
C40   H7    S    
N4    C62   A    
C15   C16   A    
O24   V4    S    
N10   H34   S    
C61   O17   S    
C30   C31   A    
C15   H61   S    
C20   C21   A    
C64   H13   S    
C18   C19   A    
C18   H4    S    
C88   C89   A    
O27   V4    S    
N16   H54   S    
O25   V4    S    
C25   C28   A    
N11   H37   S    
C39   C96   S    
N14   H47   S    
C53   C60   A    
C39   C40   A    
C29   N7    S    
C63   H41   S    
C45   C46   A    
C7    C8    A    
N19   H63   S    
C31   C32   A    
C56   C61   A    
C71   C72   A    
N5    H23   S    
C87   C92   A    
C43   C44   A    
C80   C93   S    
C9    C10   A    
C41   N11   S    
N14   H46   S    
N18   H58   S    
C75   C76   A    
C61   N4    A    
C77   C78   A    
N17   H57   S    
C85   N16   S    
C91   H22   S    
C87   C88   A    
O21   C96   A    
C7    C16   S    
