data_mof_unit_62479.cif
_audit_creation_date              2012-10-26T20:52:00-0400
_audit_creation_method            fapswitch 2.2
_symmetry_space_group_name_H-M    P1
_symmetry_Int_Tables_number       1
_space_group_crystal_system       triclinic
_cell_length_a                    8.829127
_cell_length_b                    16.014367
_cell_length_c                    14.766046
_cell_angle_alpha                 89.979867
_cell_angle_beta                  97.758598
_cell_angle_gamma                 90.024346
_cell_volume                      2068.7009154

loop_
_atom_site_label
_atom_site_type_symbol
_atom_type_description
_atom_site_fract_x
_atom_site_fract_y
_atom_site_fract_z
_atom_type_partial_charge
C1    C     C_R   0.499953 0.340920 0.499990 0.548154
C2    C     C_R   0.796089 0.500908 0.522757 0.529462
C3    C     C_2   0.040718 0.489296 0.465840 -0.073609
C4    C     C_2   0.959282 0.510704 0.534160 -0.073609
C5    C     C_R   0.368752 0.955262 0.514354 0.389629
C6    C     C_R   0.631248 0.044738 0.485646 0.389629
C7    C     C_R   0.502018 0.912633 0.499921 -0.039773
C8    C     C_R   0.497982 0.087367 0.500079 -0.039773
C9    C     C_R   0.633987 0.957376 0.485524 -0.050876
C10   C     C_R   0.366013 0.042624 0.514476 -0.050876
C11   C     C_1   0.501274 0.822966 0.500001 0.045440
C12   C     C_R   0.500046 0.659080 0.500010 0.548154
C13   C     C_1   0.498726 0.177034 0.499999 0.045440
C14   C     C_1   0.499370 0.251965 0.499979 0.042949
C15   C     C_1   0.500630 0.748035 0.500021 0.042948
C16   C     C_R   0.638043 0.501934 0.963209 0.376827
C17   C     C_R   0.361957 0.498066 0.036791 0.376827
C18   C     C_1   0.974544 0.447948 0.381927 0.272355
C19   C     C_1   0.025456 0.552052 0.618073 0.272355
C20   C     C_1   0.227266 0.085300 0.529439 0.303669
C21   C     C_1   0.772734 0.914700 0.470561 0.303669
C22   C     C_R   0.499951 0.500027 0.902874 -0.108804
C23   C     C_R   0.500049 0.499973 0.097126 -0.108804
C24   C     C_R   0.361909 0.498091 0.940959 0.372631
C25   C     C_R   0.638091 0.501909 0.059041 0.372631
C26   C     C_1   0.499920 0.500029 0.802682 0.302115
C27   C     C_1   0.500080 0.499971 0.197318 0.302115
C28   C     C_R   0.203911 0.499091 0.477243 0.529462
Cu1   Cu    Cu3+1 0.500040 0.500000 0.589220 1.104775
Cu2   Cu    Cu3+1 0.499960 0.500000 0.410780 1.104775
F1    F     F_    0.241746 0.911637 0.528342 -0.578591
F2    F     F_    0.758254 0.088363 0.471658 -0.578591
F3    F     F_    0.773573 0.503805 0.114755 -0.515060
F4    F     F_    0.226427 0.496195 0.885245 -0.515060
F5    F     F_    0.773489 0.503830 0.929319 -0.497768
F6    F     F_    0.226510 0.496170 0.070681 -0.497768
N1    N     N_1   0.500050 0.499980 0.276720 -0.158350
N2    N     N_1   0.499950 0.500020 0.723280 -0.158350
N3    N     N_1   0.922465 0.414993 0.315145 -0.146951
N4    N     N_1   0.077535 0.585007 0.684855 -0.146951
N5    N     N_1   0.116241 0.119484 0.541424 -0.159393
N6    N     N_1   0.883759 0.880516 0.458576 -0.159393
O1    O     O_R   0.500070 0.380310 0.575330 -0.492914
O2    O     O_R   0.499930 0.619690 0.424670 -0.492914
O3    O     O_R   0.500000 0.380310 0.424640 -0.487228
O4    O     O_R   0.500000 0.619690 0.575360 -0.487228
O5    O     O_R   0.274870 0.500000 0.557960 -0.500301
O6    O     O_R   0.725130 0.500000 0.442040 -0.500301
O7    O     O_R   0.274790 0.500000 0.407270 -0.478387
O8    O     O_R   0.725210 0.500000 0.592730 -0.478387

loop_
_geom_bond_atom_site_label_1
_geom_bond_atom_site_label_2
_ccdc_geom_bond_type
Cu1   N2    S    
C6    F2    S    
C18   N3    T    
C28   O5    A    
C8    C13   S    
C17   F6    S    
C23   C27   S    
C28   O7    A    
Cu2   O3    S    
C2    C4    S    
C12   C15   S    
Cu1   O4    S    
C9    C21   S    
C6    C9    A    
C20   N5    T    
C5    C10   A    
C12   O2    A    
C17   C23   A    
C13   C14   T    
Cu1   O1    S    
C7    C11   S    
Cu2   O2    S    
Cu1   Cu2   S    
Cu1   O5    S    
C6    C8    A    
Cu2   O6    S    
C3    C28   S    
Cu2   O7    S    
C27   N1    T    
C5    C7    A    
Cu1   O8    S    
C23   C25   A    
C16   F5    S    
C22   C24   A    
C17   C24   A    
C19   N4    T    
C3    C4    D    
C3    C18   S    
C8    C10   A    
C22   C26   S    
C1    O3    A    
C10   C20   S    
C16   C25   A    
C7    C9    A    
C26   N2    T    
C16   C22   A    
C1    C14   S    
C2    O8    A    
C2    O6    A    
C4    C19   S    
C11   C15   T    
C1    O1    A    
C24   F4    S    
C21   N6    T    
Cu2   N1    S    
C25   F3    S    
C5    F1    S    
C12   O4    A    
