data_mof_unit_65446.cif
_audit_creation_date              2012-12-10T20:07:44-0500
_audit_creation_method            fapswitch 2.2
_symmetry_space_group_name_H-M    P1
_symmetry_Int_Tables_number       1
_space_group_crystal_system       triclinic
_cell_length_a                    22.508947
_cell_length_b                    36.176447
_cell_length_c                    22.527989
_cell_angle_alpha                 89.988854
_cell_angle_beta                  89.999467
_cell_angle_gamma                 89.984216
_cell_volume                      18344.399107

loop_
_atom_site_label
_atom_site_type_symbol
_atom_type_description
_atom_site_fract_x
_atom_site_fract_y
_atom_site_fract_z
_atom_type_partial_charge
C1    C     C_R   0.499951 0.849605 0.749996 0.824803
C2    C     C_R   0.500051 0.849597 0.249886 0.825058
C3    C     C_R   0.499980 0.150392 0.250007 0.823869
C4    C     C_R   0.500025 0.150404 0.750055 0.825201
C5    C     C_R   0.500003 0.349602 0.250036 0.825057
C6    C     C_R   0.500057 0.349592 0.749881 0.825051
C7    C     C_R   0.500027 0.650398 0.749973 0.823945
C8    C     C_R   0.500075 0.650408 0.250088 0.825459
C9    C     C_R   0.000005 0.849604 0.250039 0.825019
C10   C     C_R   0.000042 0.849593 0.749897 0.825047
C11   C     C_R   0.000043 0.150397 0.749965 0.823969
C12   C     C_R   0.000076 0.150406 0.250092 0.825424
C13   C     C_R   0.999960 0.349603 0.750002 0.824872
C14   C     C_R   0.000050 0.349600 0.249884 0.824992
C15   C     C_R   0.999980 0.650389 0.250006 0.823805
C16   C     C_R   0.000040 0.650406 0.750063 0.825293
C17   C     C_3   0.492479 0.536723 0.746074 0.175107
C18   C     C_3   0.492228 0.536854 0.255033 0.199987
C19   C     C_3   0.492801 0.463273 0.254806 0.173432
C20   C     C_3   0.490527 0.463127 0.745178 0.197413
C21   C     C_3   0.490616 0.036720 0.248417 0.175656
C22   C     C_3   0.490192 0.036857 0.752749 0.200937
C23   C     C_3   0.490810 0.963268 0.752668 0.174002
C24   C     C_3   0.488618 0.963116 0.247927 0.197939
C25   C     C_3   0.990646 0.536717 0.248303 0.175381
C26   C     C_3   0.990784 0.536858 0.753415 0.200582
C27   C     C_3   0.991368 0.463270 0.753282 0.173597
C28   C     C_3   0.988657 0.463120 0.247801 0.197597
C29   C     C_3   0.993571 0.036725 0.744900 0.174590
C30   C     C_3   0.992278 0.036852 0.255139 0.199766
C31   C     C_3   0.992847 0.963275 0.254907 0.173270
C32   C     C_3   0.991678 0.963137 0.743797 0.197081
C33   C     C_3   0.926072 0.977960 0.763536 0.276639
C34   C     C_3   0.929456 0.977386 0.227860 0.268309
C35   C     C_3   0.926478 0.022726 0.235226 0.267871
C36   C     C_3   0.925601 0.023456 0.757204 0.251362
C37   C     C_3   0.932628 0.477876 0.287278 0.274820
C38   C     C_3   0.931914 0.477378 0.718464 0.267717
C39   C     C_3   0.928046 0.522730 0.725354 0.267402
C40   C     C_3   0.930071 0.523386 0.281467 0.249995
C41   C     C_3   0.432963 0.977878 0.287902 0.274780
C42   C     C_3   0.433401 0.977364 0.714557 0.267517
C43   C     C_3   0.429138 0.022719 0.721201 0.267057
C44   C     C_3   0.430363 0.023389 0.282119 0.250047
C45   C     C_3   0.427786 0.477926 0.772694 0.275896
C46   C     C_3   0.429555 0.477384 0.227459 0.268275
C47   C     C_3   0.426537 0.522725 0.234807 0.267864
C48   C     C_3   0.426520 0.523428 0.766498 0.250997
C49   C     C_1   0.995914 0.922352 0.747430 -0.048195
C50   C     C_1   0.997194 0.922411 0.251794 -0.062092
C51   C     C_1   0.996833 0.077632 0.252067 -0.049316
C52   C     C_1   0.997797 0.077587 0.748189 -0.055697
C53   C     C_1   0.994041 0.422339 0.249827 -0.049104
C54   C     C_1   0.996179 0.422403 0.750804 -0.062500
C55   C     C_1   0.995804 0.577640 0.750992 -0.050150
C56   C     C_1   0.995840 0.577582 0.250054 -0.056161
C57   C     C_1   0.494021 0.922334 0.249903 -0.049298
C58   C     C_1   0.495815 0.922402 0.750468 -0.062801
C59   C     C_1   0.495383 0.077640 0.750604 -0.050311
C60   C     C_1   0.495826 0.077588 0.250116 -0.056381
C61   C     C_1   0.495242 0.422343 0.748248 -0.048487
C62   C     C_1   0.497164 0.422407 0.251725 -0.062228
C63   C     C_1   0.496800 0.577636 0.251991 -0.049472
C64   C     C_1   0.497108 0.577589 0.748820 -0.055976
C65   C     C_1   0.499986 0.749991 0.526622 -0.156302
C66   C     C_1   0.499981 0.749988 0.473377 -0.156529
C67   C     C_1   0.499988 0.250010 0.473378 -0.156207
C68   C     C_1   0.499983 0.250013 0.526622 -0.156345
C69   C     C_1   0.499987 0.249990 0.026622 -0.155968
C70   C     C_1   0.499982 0.249987 0.973377 -0.156166
C71   C     C_1   0.499988 0.750010 0.973378 -0.155974
C72   C     C_1   0.499984 0.750013 0.026622 -0.156031
C73   C     C_1   0.999988 0.749990 0.026622 -0.155991
C74   C     C_1   0.999982 0.749987 0.973377 -0.156204
C75   C     C_1   0.999989 0.250011 0.973378 -0.155945
C76   C     C_1   0.999984 0.250013 0.026622 -0.156004
C77   C     C_1   0.999987 0.249990 0.526622 -0.156296
C78   C     C_1   0.999981 0.249988 0.473377 -0.156529
C79   C     C_1   0.999988 0.750010 0.473378 -0.156226
C80   C     C_1   0.999984 0.750013 0.526622 -0.156415
C81   C     C_R   0.499996 0.750006 0.910152 0.840841
C82   C     C_R   0.499992 0.750008 0.089849 0.840932
C83   C     C_R   0.499996 0.249995 0.089852 0.840380
C84   C     C_R   0.499991 0.249993 0.910148 0.840547
C85   C     C_R   0.499996 0.250005 0.410152 0.840818
C86   C     C_R   0.499992 0.250007 0.589849 0.841037
C87   C     C_R   0.499996 0.749995 0.589852 0.840433
C88   C     C_R   0.499991 0.749993 0.410148 0.840676
C89   C     C_R   0.999996 0.750006 0.410152 0.840833
C90   C     C_R   0.999992 0.750008 0.589849 0.841144
C91   C     C_R   0.999996 0.249995 0.589852 0.840421
C92   C     C_R   0.999991 0.249993 0.410148 0.840683
C93   C     C_R   0.999997 0.250006 0.910152 0.840911
C94   C     C_R   0.999993 0.250008 0.089849 0.840947
C95   C     C_R   0.999996 0.749995 0.089852 0.840371
C96   C     C_R   0.999992 0.749992 0.910148 0.840579
C97   C     C_R   0.339862 0.750002 0.750002 0.840306
C98   C     C_R   0.339860 0.750008 0.250008 0.840119
C99   C     C_R   0.339862 0.250001 0.250003 0.840346
C100  C     C_R   0.339860 0.250006 0.750003 0.840210
C101  C     C_R   0.839862 0.750001 0.250003 0.840352
C102  C     C_R   0.839860 0.750005 0.750001 0.840427
C103  C     C_R   0.839862 0.250002 0.750001 0.840304
C104  C     C_R   0.839860 0.250008 0.250008 0.840147
C105  C     C_R   0.660139 0.750000 0.750005 0.840676
C106  C     C_R   0.660136 0.749998 0.249997 0.840561
C107  C     C_R   0.660139 0.250003 0.250009 0.840682
C108  C     C_R   0.660136 0.249999 0.749996 0.840500
C109  C     C_R   0.160139 0.750003 0.250009 0.840667
C110  C     C_R   0.160136 0.749999 0.749996 0.840476
C111  C     C_R   0.160139 0.250001 0.750006 0.840668
C112  C     C_R   0.160136 0.249998 0.249997 0.840551
C113  C     C_1   0.723371 0.750003 0.750008 -0.157469
C114  C     C_1   0.723369 0.749997 0.249997 -0.156007
C115  C     C_1   0.723371 0.250009 0.250019 -0.156892
C116  C     C_1   0.723369 0.249999 0.749994 -0.156152
C117  C     C_1   0.223371 0.750009 0.250018 -0.156866
C118  C     C_1   0.223369 0.749999 0.749994 -0.156028
C119  C     C_1   0.223371 0.250005 0.750011 -0.157391
C120  C     C_1   0.223369 0.249998 0.249997 -0.155960
C121  C     C_1   0.776631 0.750008 0.750002 -0.159647
C122  C     C_1   0.776630 0.750002 0.250004 -0.156539
C123  C     C_1   0.776631 0.250014 0.250013 -0.158839
C124  C     C_1   0.776630 0.250004 0.750001 -0.156685
C125  C     C_1   0.276631 0.750014 0.250013 -0.158797
C126  C     C_1   0.276630 0.750003 0.750001 -0.156550
C127  C     C_1   0.276631 0.250010 0.750005 -0.159533
C128  C     C_1   0.276630 0.250002 0.250004 -0.156486
C129  C     C_3   0.537669 0.520595 0.792173 -0.469568
C130  C     C_3   0.537164 0.521337 0.207967 -0.483797
C131  C     C_3   0.543498 0.479113 0.214357 -0.471379
C132  C     C_3   0.541426 0.478283 0.786180 -0.484693
C133  C     C_3   0.544448 0.020602 0.284091 -0.468865
C134  C     C_3   0.542764 0.021326 0.714400 -0.483912
C135  C     C_3   0.547863 0.979112 0.721824 -0.471285
C136  C     C_3   0.546928 0.978299 0.277438 -0.484849
C137  C     C_3   0.044156 0.520604 0.284476 -0.468741
C138  C     C_3   0.041107 0.521328 0.712163 -0.483586
C139  C     C_3   0.046601 0.479108 0.719280 -0.471049
C140  C     C_3   0.046699 0.478301 0.277851 -0.484659
C141  C     C_3   0.032831 0.020598 0.796138 -0.469864
C142  C     C_3   0.036989 0.021337 0.207851 -0.483683
C143  C     C_3   0.043352 0.979113 0.214208 -0.471283
C144  C     C_3   0.037250 0.978282 0.790657 -0.484482
C145  C     C_3   0.513971 0.522058 0.681348 0.381027
C146  C     C_3   0.515058 0.522086 0.319197 0.382920
C147  C     C_3   0.506974 0.477438 0.321424 0.370442
C148  C     C_3   0.504999 0.477483 0.678822 0.365623
C149  C     C_3   0.498144 0.022069 0.180630 0.379935
C150  C     C_3   0.501230 0.022098 0.819955 0.380793
C151  C     C_3   0.492910 0.977451 0.820738 0.370081
C152  C     C_3   0.488897 0.977490 0.180013 0.363962
C153  C     C_3   0.998811 0.522069 0.180577 0.380100
C154  C     C_3   0.005597 0.522092 0.819882 0.381248
C155  C     C_3   0.997312 0.477446 0.821123 0.370370
C156  C     C_3   0.989575 0.477490 0.179877 0.364141
C157  C     C_3   0.022752 0.022046 0.683246 0.382033
C158  C     C_3   0.015432 0.022085 0.319199 0.382947
C159  C     C_3   0.007357 0.977437 0.321464 0.370451
C160  C     C_3   0.014114 0.977472 0.679668 0.367144
C161  C     C_1   0.999131 0.889128 0.749552 -0.192981
C162  C     C_1   0.999357 0.889158 0.250283 -0.170627
C163  C     C_1   0.999442 0.110872 0.250369 -0.190916
C164  C     C_1   0.999647 0.110842 0.749680 -0.169422
C165  C     C_1   0.998218 0.389129 0.250514 -0.191583
C166  C     C_1   0.998822 0.389155 0.749787 -0.170481
C167  C     C_1   0.998907 0.610875 0.749862 -0.191054
C168  C     C_1   0.998649 0.610830 0.250555 -0.169549
C169  C     C_1   0.498208 0.889124 0.250543 -0.191613
C170  C     C_1   0.498641 0.889157 0.749631 -0.170611
C171  C     C_1   0.498686 0.110871 0.749685 -0.190939
C172  C     C_1   0.498640 0.110835 0.250579 -0.169548
C173  C     C_1   0.498832 0.389123 0.749868 -0.192374
C174  C     C_1   0.499337 0.389154 0.250249 -0.170599
C175  C     C_1   0.499423 0.610876 0.250332 -0.190960
C176  C     C_1   0.499309 0.610843 0.749970 -0.169459
H1    H     H_    0.083570 0.970684 0.780104 0.189816
H2    H     H_    0.088198 0.972692 0.230962 0.187041
H3    H     H_    0.081336 0.034644 0.210990 0.196114
H4    H     H_    0.077883 0.033016 0.796960 0.193623
H5    H     H_    0.087325 0.470742 0.253194 0.187408
H6    H     H_    0.088962 0.472684 0.741560 0.186559
H7    H     H_    0.084699 0.534634 0.720870 0.193550
H8    H     H_    0.087148 0.533046 0.271027 0.192149
H9    H     H_    0.587311 0.970740 0.252401 0.187300
H10   H     H_    0.588905 0.972695 0.746453 0.185559
H11   H     H_    0.585795 0.034634 0.725544 0.193193
H12   H     H_    0.587300 0.033052 0.270242 0.192150
H13   H     H_    0.586125 0.470700 0.770087 0.189762
H14   H     H_    0.588254 0.472692 0.231335 0.187075
H15   H     H_    0.581486 0.534651 0.211324 0.196034
H16   H     H_    0.582473 0.533032 0.787542 0.193088
H17   H     H_    0.527301 0.527770 0.838516 0.189822
H18   H     H_    0.524551 0.528145 0.161935 0.194978
H19   H     H_    0.545424 0.465680 0.170173 0.194619
H20   H     H_    0.540973 0.465286 0.830823 0.197629
H21   H     H_    0.543974 0.027767 0.331580 0.189875
H22   H     H_    0.538524 0.028125 0.666858 0.195165
H23   H     H_    0.557591 0.965679 0.678676 0.194852
H24   H     H_    0.555811 0.965306 0.321199 0.198183
H25   H     H_    0.043250 0.527768 0.331965 0.189866
H26   H     H_    0.034190 0.528132 0.664939 0.195303
H27   H     H_    0.053874 0.465674 0.675655 0.194778
H28   H     H_    0.055184 0.465317 0.321700 0.198165
H29   H     H_    0.016922 0.027786 0.840887 0.189534
H30   H     H_    0.024158 0.028142 0.161874 0.194938
H31   H     H_    0.045066 0.965689 0.170005 0.194591
H32   H     H_    0.031386 0.965299 0.834928 0.197193
O1    O     O_3   0.499990 0.750000 0.750000 -0.485359
O2    O     O_3   0.499990 0.750000 0.250000 -0.484729
O3    O     O_3   0.499990 0.250000 0.250000 -0.485424
O4    O     O_3   0.499990 0.250000 0.750000 -0.484646
O5    O     O_3   0.999990 0.750000 0.250000 -0.485407
O6    O     O_3   0.999990 0.750000 0.750000 -0.484499
O7    O     O_3   0.999990 0.250000 0.750000 -0.485372
O8    O     O_3   0.999990 0.250000 0.250000 -0.484724
O9    O     O_R   0.534620 0.832000 0.715360 -0.635102
O10   O     O_R   0.534620 0.832000 0.284640 -0.633605
O11   O     O_R   0.534620 0.168000 0.284640 -0.635315
O12   O     O_R   0.534620 0.168000 0.715360 -0.633517
O13   O     O_R   0.534620 0.332000 0.215360 -0.634565
O14   O     O_R   0.534620 0.332000 0.784640 -0.632588
O15   O     O_R   0.534620 0.668000 0.784640 -0.635186
O16   O     O_R   0.534620 0.668000 0.215360 -0.632778
O17   O     O_R   0.034620 0.832000 0.215360 -0.634532
O18   O     O_R   0.034620 0.832000 0.784640 -0.632136
O19   O     O_R   0.034620 0.168000 0.784640 -0.635184
O20   O     O_R   0.034620 0.168000 0.215360 -0.632738
O21   O     O_R   0.034620 0.332000 0.715360 -0.634871
O22   O     O_R   0.034620 0.332000 0.284640 -0.633519
O23   O     O_R   0.034620 0.668000 0.284640 -0.635278
O24   O     O_R   0.034620 0.668000 0.715360 -0.633239
O25   O     O_R   0.465390 0.771500 0.882020 -0.636456
O26   O     O_R   0.465390 0.771500 0.117980 -0.636323
O27   O     O_R   0.465390 0.228500 0.117980 -0.636623
O28   O     O_R   0.465390 0.228500 0.882020 -0.636499
O29   O     O_R   0.465390 0.271500 0.382020 -0.636544
O30   O     O_R   0.465390 0.271500 0.617980 -0.636349
O31   O     O_R   0.465390 0.728500 0.617980 -0.636717
O32   O     O_R   0.465390 0.728500 0.382020 -0.636712
O33   O     O_R   0.965390 0.771500 0.382020 -0.636609
O34   O     O_R   0.965390 0.771500 0.617980 -0.636487
O35   O     O_R   0.965390 0.228500 0.617980 -0.636811
O36   O     O_R   0.965390 0.228500 0.382020 -0.636782
O37   O     O_R   0.965390 0.271500 0.882020 -0.636477
O38   O     O_R   0.965390 0.271500 0.117980 -0.636331
O39   O     O_R   0.965390 0.728500 0.117980 -0.636654
O40   O     O_R   0.965390 0.728500 0.882020 -0.636580
O41   O     O_R   0.367970 0.771500 0.784600 -0.636852
O42   O     O_R   0.367970 0.771500 0.215400 -0.636540
O43   O     O_R   0.367970 0.228500 0.215400 -0.636540
O44   O     O_R   0.367970 0.228500 0.784600 -0.637099
O45   O     O_R   0.367970 0.271500 0.284600 -0.637079
O46   O     O_R   0.367970 0.271500 0.715400 -0.637513
O47   O     O_R   0.367970 0.728500 0.715400 -0.636724
O48   O     O_R   0.367970 0.728500 0.284600 -0.637639
O49   O     O_R   0.867970 0.771500 0.284600 -0.637108
O50   O     O_R   0.867970 0.771500 0.715400 -0.638024
O51   O     O_R   0.867970 0.228500 0.715400 -0.636809
O52   O     O_R   0.867970 0.228500 0.284600 -0.637646
O53   O     O_R   0.867970 0.271500 0.784600 -0.636841
O54   O     O_R   0.867970 0.271500 0.215400 -0.636565
O55   O     O_R   0.867970 0.728500 0.215400 -0.636546
O56   O     O_R   0.867970 0.728500 0.784600 -0.637121
O57   O     O_R   0.632030 0.771500 0.715390 -0.636784
O58   O     O_R   0.632030 0.771500 0.284610 -0.636503
O59   O     O_R   0.632030 0.228500 0.284610 -0.637030
O60   O     O_R   0.632030 0.228500 0.715390 -0.636729
O61   O     O_R   0.632030 0.271500 0.215390 -0.636244
O62   O     O_R   0.632030 0.271500 0.784610 -0.636326
O63   O     O_R   0.632030 0.728500 0.784610 -0.636863
O64   O     O_R   0.632030 0.728500 0.215390 -0.636556
O65   O     O_R   0.132030 0.771500 0.215390 -0.636232
O66   O     O_R   0.132030 0.771500 0.784610 -0.636361
O67   O     O_R   0.132030 0.228500 0.784610 -0.636925
O68   O     O_R   0.132030 0.228500 0.215390 -0.636555
O69   O     O_R   0.132030 0.271500 0.715390 -0.636583
O70   O     O_R   0.132030 0.271500 0.284610 -0.636476
O71   O     O_R   0.132030 0.728500 0.284610 -0.637027
O72   O     O_R   0.132030 0.728500 0.715390 -0.636648
O73   O     O_R   0.534610 0.728510 0.882040 -0.636419
O74   O     O_R   0.534610 0.728510 0.117960 -0.636406
O75   O     O_R   0.534610 0.271490 0.117960 -0.636520
O76   O     O_R   0.534610 0.271490 0.882040 -0.636572
O77   O     O_R   0.534610 0.228510 0.382040 -0.636541
O78   O     O_R   0.534610 0.228510 0.617960 -0.636483
O79   O     O_R   0.534610 0.771490 0.617960 -0.636645
O80   O     O_R   0.534610 0.771490 0.382040 -0.636663
O81   O     O_R   0.034610 0.728510 0.382040 -0.636492
O82   O     O_R   0.034610 0.728510 0.617960 -0.636372
O83   O     O_R   0.034610 0.271490 0.617960 -0.636566
O84   O     O_R   0.034610 0.271490 0.382040 -0.636600
O85   O     O_R   0.034610 0.228510 0.882040 -0.636373
O86   O     O_R   0.034610 0.228510 0.117960 -0.636384
O87   O     O_R   0.034610 0.771490 0.117960 -0.636502
O88   O     O_R   0.034610 0.771490 0.882040 -0.636508
O89   O     O_R   0.465400 0.832000 0.784590 -0.639845
O90   O     O_R   0.465400 0.832000 0.215410 -0.641593
O91   O     O_R   0.465400 0.168000 0.215410 -0.639347
O92   O     O_R   0.465400 0.168000 0.784590 -0.642266
O93   O     O_R   0.465400 0.332000 0.284590 -0.640469
O94   O     O_R   0.465400 0.332000 0.715410 -0.643258
O95   O     O_R   0.465400 0.668000 0.715410 -0.639553
O96   O     O_R   0.465400 0.668000 0.284590 -0.643356
O97   O     O_R   0.965400 0.832000 0.284590 -0.640490
O98   O     O_R   0.965400 0.832000 0.715410 -0.644167
O99   O     O_R   0.965400 0.168000 0.715410 -0.639621
O100  O     O_R   0.965400 0.168000 0.284590 -0.643387
O101  O     O_R   0.965400 0.332000 0.784590 -0.640063
O102  O     O_R   0.965400 0.332000 0.215410 -0.641651
O103  O     O_R   0.965400 0.668000 0.215410 -0.639343
O104  O     O_R   0.965400 0.668000 0.784590 -0.642628
Zn1   Zn    Zn3+2 0.549450 0.719300 0.799470 0.976013
Zn2   Zn    Zn3+2 0.549450 0.719300 0.200530 0.976911
Zn3   Zn    Zn3+2 0.549450 0.280700 0.200530 0.976587
Zn4   Zn    Zn3+2 0.549450 0.280700 0.799470 0.976760
Zn5   Zn    Zn3+2 0.549450 0.219300 0.299470 0.975761
Zn6   Zn    Zn3+2 0.549450 0.219300 0.700530 0.976259
Zn7   Zn    Zn3+2 0.549450 0.780700 0.700530 0.975745
Zn8   Zn    Zn3+2 0.549450 0.780700 0.299470 0.976117
Zn9   Zn    Zn3+2 0.049450 0.719300 0.299470 0.975811
Zn10  Zn    Zn3+2 0.049450 0.719300 0.700530 0.976589
Zn11  Zn    Zn3+2 0.049450 0.280700 0.700530 0.976063
Zn12  Zn    Zn3+2 0.049450 0.280700 0.299470 0.976223
Zn13  Zn    Zn3+2 0.049450 0.219300 0.799470 0.976079
Zn14  Zn    Zn3+2 0.049450 0.219300 0.200530 0.976964
Zn15  Zn    Zn3+2 0.049450 0.780700 0.200530 0.976615
Zn16  Zn    Zn3+2 0.049450 0.780700 0.799470 0.976977
Zn17  Zn    Zn3+2 0.450550 0.780720 0.799450 0.973891
Zn18  Zn    Zn3+2 0.450550 0.780720 0.200550 0.972536
Zn19  Zn    Zn3+2 0.450550 0.219280 0.200550 0.973871
Zn20  Zn    Zn3+2 0.450550 0.219280 0.799450 0.971129
Zn21  Zn    Zn3+2 0.450550 0.280720 0.299450 0.973383
Zn22  Zn    Zn3+2 0.450550 0.280720 0.700550 0.970961
Zn23  Zn    Zn3+2 0.450550 0.719280 0.700550 0.973486
Zn24  Zn    Zn3+2 0.450550 0.719280 0.299450 0.969993
Zn25  Zn    Zn3+2 0.950550 0.780720 0.299450 0.973301
Zn26  Zn    Zn3+2 0.950550 0.780720 0.700550 0.969984
Zn27  Zn    Zn3+2 0.950550 0.219280 0.700550 0.973293
Zn28  Zn    Zn3+2 0.950550 0.219280 0.299450 0.969926
Zn29  Zn    Zn3+2 0.950550 0.280720 0.799450 0.973810
Zn30  Zn    Zn3+2 0.950550 0.280720 0.200550 0.972498
Zn31  Zn    Zn3+2 0.950550 0.719280 0.200550 0.973832
Zn32  Zn    Zn3+2 0.950550 0.719280 0.799450 0.970837
C177  C     C_3   0.484128 0.542936 0.628033 -0.920118
H33   H     H_    0.503615 0.533441 0.585331 0.246347
H34   H     H_    0.436319 0.539442 0.622157 0.219676
H35   H     H_    0.492093 0.573190 0.630823 0.249330
C178  C     C_3   0.485687 0.542450 0.373072 -0.910195
H36   H     H_    0.504288 0.531809 0.415477 0.244347
H37   H     H_    0.495210 0.572580 0.371852 0.243589
H38   H     H_    0.437652 0.539874 0.377745 0.230908
C179  C     C_3   0.458911 0.464370 0.367008 -0.944518
H39   H     H_    0.445682 0.435254 0.358772 0.246657
H40   H     H_    0.475834 0.465515 0.413364 0.253445
H41   H     H_    0.419046 0.481286 0.369251 0.213149
C180  C     C_3   0.456545 0.465024 0.633390 -0.924806
H42   H     H_    0.472768 0.467631 0.586943 0.250597
H43   H     H_    0.444500 0.435578 0.639843 0.245327
H44   H     H_    0.416057 0.481351 0.633292 0.211453
C181  C     C_3   0.457812 0.042941 0.134714 -0.917165
H45   H     H_    0.467974 0.033466 0.088882 0.246618
H46   H     H_    0.409832 0.039431 0.138915 0.219359
H47   H     H_    0.466149 0.073198 0.135796 0.251118
C182  C     C_3   0.462741 0.042479 0.867747 -0.908146
H48   H     H_    0.472337 0.072607 0.868230 0.245258
H49   H     H_    0.414639 0.039920 0.863821 0.230800
H50   H     H_    0.473500 0.031844 0.912784 0.244481
C183  C     C_3   0.437525 0.964388 0.857091 -0.942674
H51   H     H_    0.425942 0.935279 0.846614 0.247053
H52   H     H_    0.445975 0.965507 0.905708 0.254047
H53   H     H_    0.397912 0.981330 0.852288 0.212751
C184  C     C_3   0.432045 0.965011 0.145660 -0.922398
H54   H     H_    0.438221 0.967625 0.096854 0.251240
H55   H     H_    0.421643 0.935559 0.154460 0.246089
H56   H     H_    0.392401 0.981317 0.153978 0.210984
C185  C     C_3   0.958897 0.542931 0.134280 -0.916935
H57   H     H_    0.969474 0.533464 0.088529 0.246599
H58   H     H_    0.910879 0.539417 0.138040 0.219314
H59   H     H_    0.967210 0.573187 0.135419 0.250966
C186  C     C_3   0.969879 0.542470 0.869774 -0.909041
H60   H     H_    0.979499 0.572598 0.869722 0.244761
H61   H     H_    0.921631 0.539915 0.868565 0.230870
H62   H     H_    0.983166 0.531826 0.914126 0.244331
C187  C     C_3   0.944061 0.464386 0.860534 -0.943265
H63   H     H_    0.931901 0.435278 0.850724 0.247007
H64   H     H_    0.955241 0.465506 0.908597 0.253769
H65   H     H_    0.904246 0.481332 0.857963 0.212894
C188  C     C_3   0.933039 0.465010 0.144992 -0.922158
H66   H     H_    0.939648 0.467624 0.096239 0.251236
H67   H     H_    0.922557 0.435557 0.153679 0.245988
H68   H     H_    0.893298 0.481298 0.152958 0.210928
C189  C     C_3   0.999602 0.042914 0.626698 -0.922122
H69   H     H_    0.024130 0.033424 0.586663 0.246125
H70   H     H_    0.952860 0.039411 0.615063 0.219743
H71   H     H_    0.007157 0.073167 0.630417 0.248255
C190  C     C_3   0.986326 0.042444 0.373227 -0.909743
H72   H     H_    0.005133 0.031807 0.415554 0.244677
H73   H     H_    0.995839 0.072573 0.371978 0.243441
H74   H     H_    0.938314 0.039865 0.378140 0.230756
C191  C     C_3   0.959516 0.964372 0.367290 -0.944226
H75   H     H_    0.946242 0.935257 0.359133 0.246514
H76   H     H_    0.976652 0.965516 0.413572 0.253706
H77   H     H_    0.919649 0.981278 0.369721 0.213021
C192  C     C_3   0.971514 0.965014 0.628702 -0.926435
H78   H     H_    0.993242 0.967595 0.584547 0.250076
H79   H     H_    0.958735 0.935575 0.633665 0.244699
H80   H     H_    0.931337 0.981345 0.623686 0.211579
C193  C     C_3   0.581259 0.533181 0.672094 -0.868421
H81   H     H_    0.612822 0.518061 0.700728 0.223187
H82   H     H_    0.596376 0.528121 0.625856 0.236326
H83   H     H_    0.588398 0.563114 0.680339 0.235583
C194  C     C_3   0.582282 0.533659 0.327576 -0.879770
H84   H     H_    0.613719 0.519071 0.298137 0.224483
H85   H     H_    0.588758 0.563697 0.319757 0.235665
H86   H     H_    0.598141 0.528407 0.373520 0.238609
C195  C     C_3   0.563972 0.457340 0.346690 -0.854484
H87   H     H_    0.604663 0.459913 0.319837 0.216662
H88   H     H_    0.575153 0.467843 0.391670 0.231473
H89   H     H_    0.556321 0.427165 0.352010 0.241776
C196  C     C_3   0.561515 0.457031 0.653303 -0.862652
H90   H     H_    0.602055 0.459076 0.680529 0.216722
H91   H     H_    0.553213 0.426961 0.647479 0.241576
H92   H     H_    0.572998 0.467683 0.608494 0.233509
C197  C     C_3   0.562005 0.033222 0.157548 -0.867938
H93   H     H_    0.598863 0.018124 0.178989 0.222274
H94   H     H_    0.567147 0.028160 0.109177 0.236351
H95   H     H_    0.570684 0.063159 0.164092 0.235433
C198  C     C_3   0.565870 0.033676 0.840154 -0.876128
H96   H     H_    0.602030 0.019096 0.816738 0.222287
H97   H     H_    0.573619 0.063718 0.833657 0.235740
H98   H     H_    0.573303 0.028410 0.888180 0.238109
C199  C     C_3   0.544521 0.957369 0.855731 -0.854739
H99   H     H_    0.589319 0.959922 0.836480 0.214589
H100  H     H_    0.547558 0.967896 0.901965 0.231845
H101  H     H_    0.536040 0.927199 0.859676 0.242893
C200  C     C_3   0.538857 0.957074 0.143255 -0.860855
H102  H     H_    0.584179 0.959122 0.161457 0.215944
H103  H     H_    0.529548 0.927003 0.139236 0.242730
H104  H     H_    0.540736 0.967745 0.097046 0.233604
C201  C     C_3   0.062885 0.533224 0.158071 -0.867835
H105  H     H_    0.099563 0.518136 0.179839 0.222214
H106  H     H_    0.068484 0.528168 0.109744 0.236208
H107  H     H_    0.071517 0.563160 0.164685 0.235338
C202  C     C_3   0.071285 0.533661 0.836393 -0.876722
H108  H     H_    0.106059 0.519075 0.810975 0.222925
H109  H     H_    0.078659 0.563701 0.829457 0.235766
H110  H     H_    0.081418 0.528395 0.883922 0.238098
C203  C     C_3   0.050809 0.457353 0.853143 -0.855104
H111  H     H_    0.094451 0.459902 0.831400 0.214993
H112  H     H_    0.056450 0.467876 0.899133 0.231778
H113  H     H_    0.042550 0.427182 0.857544 0.242530
C204  C     C_3   0.039879 0.457080 0.143569 -0.860756
H114  H     H_    0.085038 0.459135 0.162171 0.215877
H115  H     H_    0.030628 0.427009 0.139455 0.242588
H116  H     H_    0.042186 0.467743 0.097368 0.233485
C205  C     C_3   0.090683 0.033151 0.682196 -0.868140
H117  H     H_    0.118552 0.018032 0.714435 0.223137
H118  H     H_    0.111305 0.028083 0.638130 0.236465
H119  H     H_    0.096798 0.063082 0.691239 0.235827
C206  C     C_3   0.082701 0.033657 0.327259 -0.879770
H120  H     H_    0.114006 0.019073 0.297673 0.224532
H121  H     H_    0.089155 0.063694 0.319414 0.235622
H122  H     H_    0.098795 0.028407 0.373127 0.238535
C207  C     C_3   0.064481 0.957341 0.346461 -0.854275
H123  H     H_    0.105050 0.959919 0.319423 0.216679
H124  H     H_    0.075883 0.967835 0.391396 0.231396
H125  H     H_    0.056871 0.927165 0.351817 0.241687
C208  C     C_3   0.073298 0.957003 0.661188 -0.864891
H126  H     H_    0.110234 0.959052 0.693118 0.219004
H127  H     H_    0.065766 0.926932 0.654419 0.241391
H128  H     H_    0.090160 0.967634 0.618093 0.233414
C209  C     C_3   0.410074 0.543082 0.827125 -0.854359
H129  H     H_    0.442157 0.540298 0.863618 0.219182
H130  H     H_    0.404879 0.573382 0.821027 0.231296
H131  H     H_    0.367491 0.532558 0.845146 0.226577
C210  C     C_3   0.408555 0.541781 0.174183 -0.873513
H132  H     H_    0.436075 0.534578 0.135488 0.225253
H133  H     H_    0.362179 0.534790 0.161675 0.222438
H134  H     H_    0.411145 0.572275 0.176214 0.230237
C211  C     C_3   0.427803 0.464990 0.160045 -0.858929
H135  H     H_    0.462850 0.476955 0.131827 0.224024
H136  H     H_    0.431165 0.434466 0.155915 0.231866
H137  H     H_    0.386271 0.473232 0.137309 0.228044
C212  C     C_3   0.425526 0.466069 0.840247 -0.872170
H138  H     H_    0.456488 0.481444 0.869072 0.231235
H139  H     H_    0.380653 0.469917 0.859815 0.229032
H140  H     H_    0.437492 0.436647 0.846679 0.226852
C213  C     C_3   0.426901 0.043050 0.344824 -0.853312
H141  H     H_    0.465914 0.040310 0.373818 0.219784
H142  H     H_    0.420455 0.073342 0.339912 0.231285
H143  H     H_    0.389062 0.032499 0.371361 0.226002
C214  C     C_3   0.422233 0.041759 0.658344 -0.873077
H144  H     H_    0.456147 0.034504 0.625127 0.225576
H145  H     H_    0.378788 0.034807 0.637833 0.222040
H146  H     H_    0.424517 0.072251 0.660802 0.230771
C215  C     C_3   0.443593 0.964930 0.647919 -0.857955
H147  H     H_    0.483085 0.976875 0.626320 0.224252
H148  H     H_    0.447629 0.934403 0.644501 0.232670
H149  H     H_    0.406731 0.973156 0.618200 0.227598
C216  C     C_3   0.444838 0.966021 0.354439 -0.871232
H150  H     H_    0.481099 0.981422 0.376199 0.231380
H151  H     H_    0.405019 0.969846 0.382913 0.228531
H152  H     H_    0.457913 0.936603 0.358228 0.228197
C217  C     C_3   0.926029 0.543046 0.344142 -0.852967
H153  H     H_    0.964775 0.540309 0.373499 0.219688
H154  H     H_    0.919616 0.573339 0.339193 0.231188
H155  H     H_    0.887950 0.532500 0.370349 0.225976
C218  C     C_3   0.917609 0.541778 0.662990 -0.873379
H156  H     H_    0.949602 0.534529 0.627920 0.225504
H157  H     H_    0.873079 0.534825 0.644956 0.222195
H158  H     H_    0.920025 0.572270 0.665319 0.230594
C219  C     C_3   0.938339 0.464954 0.651354 -0.858437
H159  H     H_    0.976554 0.476902 0.627576 0.224233
H160  H     H_    0.942172 0.434426 0.647709 0.232417
H161  H     H_    0.899866 0.473186 0.623758 0.227745
C220  C     C_3   0.943891 0.466023 0.353930 -0.870810
H162  H     H_    0.979947 0.481422 0.376036 0.231256
H163  H     H_    0.903817 0.469844 0.382055 0.228559
H164  H     H_    0.956932 0.436606 0.357863 0.228048
C221  C     C_3   0.901919 0.043117 0.815391 -0.854545
H165  H     H_    0.929318 0.040321 0.855517 0.218789
H166  H     H_    0.897533 0.073421 0.808740 0.231540
H167  H     H_    0.857434 0.032617 0.828094 0.226610
C222  C     C_3   0.908192 0.041781 0.174686 -0.873227
H168  H     H_    0.935518 0.034579 0.135847 0.225169
H169  H     H_    0.861753 0.034790 0.162397 0.222433
H170  H     H_    0.910779 0.072274 0.176693 0.230170
C223  C     C_3   0.927373 0.964994 0.160450 -0.858755
H171  H     H_    0.962283 0.976952 0.132053 0.223907
H172  H     H_    0.930709 0.934469 0.156285 0.231763
H173  H     H_    0.885728 0.973230 0.137907 0.228011
C224  C     C_3   0.915643 0.966122 0.830337 -0.872562
H174  H     H_    0.942886 0.981494 0.862699 0.231061
H175  H     H_    0.868729 0.969974 0.844343 0.229097
H176  H     H_    0.926739 0.936704 0.838209 0.226103
C225  C     C_3   0.378111 0.539392 0.721466 -0.417127
C226  C     C_3   0.314188 0.547227 0.744319 -0.354891
C227  C     C_3   0.270936 0.553366 0.692988 -0.889402
H177  H     H_    0.286350 0.576548 0.664543 0.270811
H178  H     H_    0.267187 0.527883 0.665732 0.257514
H179  H     H_    0.226284 0.560277 0.710801 0.250203
H180  H     H_    0.296667 0.524553 0.772052 0.214574
H181  H     H_    0.313993 0.572730 0.771800 0.229231
H182  H     H_    0.393553 0.566453 0.704164 0.216719
H183  H     H_    0.373185 0.521931 0.682654 0.184109
C228  C     C_3   0.374280 0.535453 0.277828 -0.410042
C229  C     C_3   0.366399 0.577083 0.291793 -0.339480
C230  C     C_3   0.311045 0.583633 0.329647 -0.890292
H184  H     H_    0.270605 0.574362 0.305620 0.259344
H185  H     H_    0.314560 0.568404 0.372333 0.260495
H186  H     H_    0.306597 0.613595 0.339435 0.265769
H187  H     H_    0.404500 0.587966 0.317202 0.245380
H188  H     H_    0.361233 0.593650 0.250792 0.230830
H189  H     H_    0.331517 0.526909 0.257986 0.220346
H190  H     H_    0.374413 0.520901 0.319903 0.174562
C231  C     C_3   0.374752 0.455473 0.256055 -0.407016
C232  C     C_3   0.315541 0.455022 0.220712 -0.359123
C233  C     C_3   0.262783 0.444796 0.260109 -0.897665
H191  H     H_    0.270331 0.417482 0.281354 0.272776
H192  H     H_    0.256258 0.466086 0.295042 0.258557
H193  H     H_    0.221769 0.443274 0.232805 0.247434
H194  H     H_    0.306121 0.482016 0.199582 0.216341
H195  H     H_    0.318361 0.434049 0.184744 0.227644
H196  H     H_    0.386529 0.425949 0.261896 0.207672
H197  H     H_    0.363953 0.464494 0.300934 0.197222
C234  C     C_3   0.369208 0.459134 0.746313 -0.396498
C235  C     C_3   0.362622 0.416586 0.748096 -0.342568
C236  C     C_3   0.298192 0.404900 0.737684 -0.891729
H198  H     H_    0.269251 0.415448 0.773863 0.255850
H199  H     H_    0.282001 0.415701 0.694435 0.264676
H200  H     H_    0.295233 0.374256 0.737028 0.262916
H201  H     H_    0.389115 0.403970 0.711981 0.238815
H202  H     H_    0.376712 0.404766 0.791164 0.230947
H203  H     H_    0.331328 0.469938 0.772268 0.211273
H204  H     H_    0.358718 0.466749 0.700664 0.189830
C237  C     C_3   0.373573 0.039307 0.248180 -0.417862
C238  C     C_3   0.315742 0.046981 0.283841 -0.351560
C239  C     C_3   0.262548 0.052712 0.242696 -0.898268
H205  H     H_    0.271351 0.075790 0.211373 0.271197
H206  H     H_    0.253395 0.027074 0.217145 0.257127
H207  H     H_    0.222559 0.059567 0.269409 0.251450
H208  H     H_    0.304712 0.024370 0.314847 0.215212
H209  H     H_    0.321040 0.072592 0.310542 0.227506
H210  H     H_    0.384987 0.066410 0.228133 0.215383
H211  H     H_    0.360761 0.021874 0.211187 0.184847
C240  C     C_3   0.370070 0.035460 0.754256 -0.407452
C241  C     C_3   0.359836 0.077097 0.766540 -0.342523
C242  C     C_3   0.298670 0.083651 0.794068 -0.893534
H212  H     H_    0.263087 0.074314 0.763361 0.259388
H213  H     H_    0.294651 0.068481 0.836763 0.261477
H214  H     H_    0.292521 0.113622 0.802819 0.264794
H215  H     H_    0.392882 0.088017 0.798206 0.245605
H216  H     H_    0.361949 0.093623 0.725227 0.228801
H217  H     H_    0.331508 0.026907 0.727157 0.220475
H218  H     H_    0.362727 0.020919 0.795698 0.174426
C243  C     C_3   0.374414 0.955462 0.733063 -0.407998
C244  C     C_3   0.322338 0.955024 0.687872 -0.354737
C245  C     C_3   0.263393 0.945000 0.717434 -0.906724
H219  H     H_    0.266980 0.917802 0.740050 0.272071
H220  H     H_    0.250786 0.966477 0.750357 0.257512
H221  H     H_    0.227897 0.943321 0.683303 0.251172
H222  H     H_    0.316930 0.981978 0.665256 0.216621
H223  H     H_    0.331352 0.933961 0.653075 0.226841
H224  H     H_    0.385003 0.925938 0.740880 0.205931
H225  H     H_    0.355873 0.964486 0.775334 0.197792
C246  C     C_3   0.370213 0.959037 0.274252 -0.393316
C247  C     C_3   0.364247 0.916480 0.277252 -0.344895
C248  C     C_3   0.299066 0.904730 0.280132 -0.899200
H226  H     H_    0.278088 0.915190 0.321488 0.257454
H227  H     H_    0.274354 0.915573 0.241142 0.265245
H228  H     H_    0.296093 0.874085 0.279955 0.259038
H229  H     H_    0.382855 0.903900 0.236496 0.236943
H230  H     H_    0.386860 0.904670 0.316537 0.230813
H231  H     H_    0.338535 0.969759 0.307548 0.211261
H232  H     H_    0.350414 0.966683 0.231814 0.189814
C249  C     C_3   0.873566 0.539297 0.247018 -0.417814
C250  C     C_3   0.815385 0.546963 0.282142 -0.351212
C251  C     C_3   0.762541 0.552678 0.240523 -0.897774
H233  H     H_    0.771573 0.575761 0.209287 0.271136
H234  H     H_    0.753632 0.527046 0.214872 0.257040
H235  H     H_    0.722282 0.559507 0.266859 0.251159
H236  H     H_    0.804078 0.524364 0.313061 0.215128
H237  H     H_    0.820412 0.572572 0.308891 0.227482
H238  H     H_    0.885152 0.566399 0.227074 0.215352
H239  H     H_    0.861107 0.521875 0.209890 0.184764
C252  C     C_3   0.870947 0.535478 0.761690 -0.408199
C253  C     C_3   0.861450 0.577114 0.774549 -0.341633
C254  C     C_3   0.801918 0.583681 0.805427 -0.892270
H240  H     H_    0.764683 0.574375 0.776718 0.259088
H241  H     H_    0.800258 0.568489 0.848259 0.261255
H242  H     H_    0.796304 0.613650 0.814538 0.265263
H243  H     H_    0.896204 0.588014 0.804353 0.245654
H244  H     H_    0.861282 0.593657 0.733197 0.229364
H245  H     H_    0.830916 0.526938 0.736800 0.220394
H246  H     H_    0.865944 0.520929 0.803472 0.174467
C255  C     C_3   0.874053 0.455482 0.740237 -0.407814
C256  C     C_3   0.819517 0.455077 0.698043 -0.355780
C257  C     C_3   0.762330 0.445062 0.730873 -0.903908
H247  H     H_    0.767117 0.417803 0.753076 0.272461
H248  H     H_    0.751739 0.466474 0.764603 0.257788
H249  H     H_    0.724908 0.443524 0.698837 0.248862
H250  H     H_    0.812869 0.482042 0.675791 0.216579
H251  H     H_    0.826535 0.434023 0.662776 0.227076
H252  H     H_    0.885037 0.425951 0.747415 0.206445
H253  H     H_    0.857938 0.464495 0.783496 0.197696
C258  C     C_3   0.869986 0.459039 0.273068 -0.393524
C259  C     C_3   0.863964 0.416480 0.276018 -0.344807
C260  C     C_3   0.798754 0.404715 0.278389 -0.898630
H254  H     H_    0.777452 0.415147 0.319602 0.257306
H255  H     H_    0.774311 0.415579 0.239241 0.265148
H256  H     H_    0.795779 0.374075 0.278143 0.259163
H257  H     H_    0.882910 0.403906 0.235419 0.237013
H258  H     H_    0.886261 0.404674 0.315473 0.230845
H259  H     H_    0.837998 0.469760 0.306072 0.211360
H260  H     H_    0.850575 0.466683 0.230449 0.189795
C261  C     C_3   0.883031 0.039428 0.706618 -0.416918
C262  C     C_3   0.816828 0.047374 0.721523 -0.355257
C263  C     C_3   0.780256 0.053756 0.665308 -0.886276
H261  H     H_    0.799177 0.076964 0.639132 0.270244
H262  H     H_    0.779730 0.028356 0.637603 0.257293
H263  H     H_    0.733789 0.060747 0.677532 0.251285
H264  H     H_    0.795902 0.024680 0.746739 0.214217
H265  H     H_    0.813379 0.072812 0.748938 0.230071
H266  H     H_    0.900531 0.066453 0.691253 0.217266
H267  H     H_    0.882787 0.021943 0.667520 0.183772
C264  C     C_3   0.874418 0.035451 0.278507 -0.410253
C265  C     C_3   0.866584 0.077079 0.292526 -0.339247
C266  C     C_3   0.811401 0.083630 0.330644 -0.890332
H268  H     H_    0.770838 0.074371 0.306817 0.259355
H269  H     H_    0.815095 0.068405 0.373314 0.260279
H270  H     H_    0.806994 0.113592 0.340466 0.265689
H271  H     H_    0.904806 0.087956 0.317751 0.245289
H272  H     H_    0.861235 0.093646 0.251556 0.230916
H273  H     H_    0.831553 0.026907 0.258878 0.220417
H274  H     H_    0.874765 0.020903 0.320585 0.174576
C267  C     C_3   0.874773 0.955479 0.256713 -0.407013
C268  C     C_3   0.815372 0.955027 0.221664 -0.358850
C269  C     C_3   0.762792 0.944791 0.261309 -0.897451
H275  H     H_    0.770422 0.917475 0.282504 0.272684
H276  H     H_    0.756426 0.966069 0.296289 0.258464
H277  H     H_    0.721630 0.943277 0.234216 0.247385
H278  H     H_    0.805839 0.982018 0.200580 0.216291
H279  H     H_    0.818008 0.934063 0.185673 0.227606
H280  H     H_    0.886574 0.925957 0.262501 0.207684
H281  H     H_    0.864195 0.964494 0.301649 0.197096
C270  C     C_3   0.871078 0.959195 0.730291 -0.398532
C271  C     C_3   0.864187 0.916657 0.731387 -0.340809
C272  C     C_3   0.801436 0.905013 0.713373 -0.887745
H282  H     H_    0.768409 0.915536 0.745891 0.255601
H283  H     H_    0.790495 0.915855 0.668540 0.263852
H284  H     H_    0.798537 0.874370 0.712288 0.264842
H285  H     H_    0.894796 0.903983 0.698741 0.239339
H286  H     H_    0.872971 0.904867 0.775856 0.231597
H287  H     H_    0.830346 0.970075 0.751408 0.211410
H288  H     H_    0.866265 0.966755 0.683676 0.189823

loop_
_geom_bond_atom_site_label_1
_geom_bond_atom_site_label_2
_ccdc_geom_bond_type
C255  H253  S    
C23   C58   S    
C234  C235  S    
C22   C150  S    
C256  C257  S    
C4    C171  S    
C100  C127  S    
C205  H117  S    
O8    Zn12  S    
C17   C48   S    
O95   Zn23  S    
C30   C51   S    
C18   C47   S    
C110  C118  S    
C8    O96   A    
C8    C175  S    
C137  H8    S    
C208  H126  S    
C209  H131  S    
C271  H286  S    
C91   O83   A    
C180  H42   S    
C253  H244  S    
C263  H262  S    
C87   O79   A    
C146  C147  S    
C244  H222  S    
C190  H73   S    
C135  H23   S    
C208  H128  S    
C250  C251  S    
O49   Zn25  S    
C10   O98   A    
C129  H16   S    
O31   Zn23  S    
C207  H125  S    
C235  C236  S    
C34   C35   S    
C5    C174  S    
C143  H2    S    
C177  H35   S    
C185  H59   S    
C259  H258  S    
C181  H46   S    
C133  H12   S    
C76   C94   S    
C110  O66   A    
O12   Zn6   S    
C203  H112  S    
C101  O49   A    
O102  Zn30  S    
O4    Zn6   S    
C34   C267  S    
C70   C84   S    
C42   C215  S    
C20   C45   S    
O43   Zn19  S    
O1    Zn23  S    
C183  H53   S    
C120  C128  T    
C206  H121  S    
C147  C179  S    
C194  H85   S    
C247  H229  S    
O69   Zn11  S    
C43   C240  S    
C24   C41   S    
C86   O78   A    
C229  H187  S    
C104  O54   A    
C20   C132  S    
C59   C171  T    
C21   C133  S    
C179  H40   S    
C46   C211  S    
C179  H39   S    
C37   C220  S    
O66   Zn16  S    
C260  H256  S    
C19   C46   S    
C252  H245  S    
C112  O68   A    
C150  C198  S    
C81   O73   A    
C99   O43   A    
C141  C144  S    
C112  C120  S    
C244  C245  S    
C236  H200  S    
C97   O41   A    
C130  H18   S    
C231  C232  S    
C204  H116  S    
C75   C76   T    
C199  H99   S    
C82   O26   A    
C218  H158  S    
C215  H149  S    
C7    O15   A    
C238  H208  S    
C212  H139  S    
C199  H101  S    
C87   O31   A    
O2    Zn24  S    
C103  O53   A    
O30   Zn22  S    
O10   Zn8   S    
C241  C242  S    
C153  C156  S    
O11   Zn5   S    
C3    O91   A    
C154  C155  S    
C116  C124  T    
C93   O37   A    
C266  H268  S    
O13   Zn3   S    
C83   O27   A    
C180  H44   S    
C224  H175  S    
C255  C256  S    
C205  H119  S    
C235  H202  S    
C18   C130  S    
C73   C95   S    
C31   C50   S    
C257  H247  S    
C145  C148  S    
C145  C177  S    
C75   C93   S    
C262  C263  S    
C249  C250  S    
C242  H214  S    
O100  Zn28  S    
C232  C233  S    
C77   C91   S    
C133  H21   S    
C148  C180  S    
C14   O102  A    
C131  H19   S    
O96   Zn24  S    
C97   C126  S    
C30   C142  S    
C99   C128  S    
C151  C183  S    
C189  H69   S    
C101  C122  S    
C32   C144  S    
C78   C92   S    
C150  C182  S    
C88   O80   A    
C130  C131  S    
C267  H281  S    
O41   Zn17  S    
C210  H133  S    
C192  H78   S    
C12   C163  S    
C138  H26   S    
C240  H217  S    
C13   C166  S    
C218  H156  S    
C220  H163  S    
C45   C212  S    
C12   O100  A    
C188  H66   S    
C13   O101  A    
C142  H30   S    
C31   C143  S    
C69   C70   T    
C33   C270  S    
C112  O70   A    
C14   O22   A    
C236  H199  S    
C3    C172  S    
C2    C169  S    
O7    Zn11  S    
C216  H151  S    
C36   C261  S    
C178  H38   S    
C45   C234  S    
C230  H185  S    
C272  H282  S    
O8    Zn28  S    
C245  H221  S    
C264  C265  S    
C2    O10   A    
C4    O92   A    
O104  Zn32  S    
C215  H148  S    
C193  H81   S    
C182  H48   S    
C5    O93   A    
C270  H288  S    
C6    O14   A    
C7    O95   A    
O27   Zn19  S    
C267  C268  S    
C155  C203  S    
O85   Zn13  S    
C50   C162  T    
C141  H4    S    
C246  C247  S    
C108  C116  S    
C33   C36   S    
C96   O88   A    
C191  H75   S    
O81   Zn9   S    
C269  H276  S    
C206  H120  S    
C4    O12   A    
C111  O69   A    
C105  C113  S    
C265  C266  S    
C266  H270  S    
C37   C40   S    
C140  H28   S    
C66   C88   S    
C38   C39   S    
C105  O57   A    
C252  C253  S    
C232  H195  S    
C253  C254  S    
O15   Zn1   S    
C111  C119  S    
C243  H225  S    
C20   C61   S    
C108  O60   A    
O1    Zn7   S    
C41   C216  S    
C153  C185  S    
C98   C125  S    
C201  H107  S    
C24   C57   S    
C188  H68   S    
C20   C148  S    
C21   C149  S    
C64   C176  T    
C102  C121  S    
C6    O94   A    
C49   C161  T    
O35   Zn27  S    
C261  H266  S    
O4    Zn20  S    
C258  H259  S    
C265  H272  S    
O3    Zn21  S    
O59   Zn5   S    
C222  H168  S    
C234  H204  S    
C227  H179  S    
C202  H108  S    
C195  H88   S    
C211  H135  S    
C233  H193  S    
C250  H236  S    
O9    Zn7   S    
C155  C187  S    
C189  H71   S    
C143  H31   S    
C217  H154  S    
C11   O99   A    
C74   C96   S    
C249  H239  S    
C132  H20   S    
C182  H50   S    
C241  H216  S    
O76   Zn4   S    
O23   Zn9   S    
C264  H273  S    
O89   Zn17  S    
C27   C139  S    
C237  H211  S    
C102  O50   A    
C219  H160  S    
C202  H110  S    
C25   C137  S    
O39   Zn31  S    
C212  H138  S    
C21   C44   S    
O60   Zn6   S    
O25   Zn17  S    
C22   C43   S    
O52   Zn28  S    
C256  H251  S    
C272  H284  S    
C29   C141  S    
C247  C248  S    
C92   O84   A    
C223  H171  S    
C31   C34   S    
C93   O85   A    
C144  H1    S    
C193  H83   S    
O37   Zn29  S    
C213  H142  S    
O2    Zn2   S    
C230  H184  S    
C89   O81   A    
C231  H197  S    
C196  H92   S    
C90   O34   A    
C224  H176  S    
C177  H34   S    
C82   O74   A    
C186  H62   S    
C191  H77   S    
C246  H232  S    
C186  H61   S    
C206  H122  S    
C255  H252  S    
C271  C272  S    
C135  H10   S    
C15   O23   A    
C142  C143  S    
O7    Zn27  S    
O5    Zn15  S    
C209  H129  S    
C91   O35   A    
O101  Zn29  S    
C134  C135  S    
O72   Zn10  S    
C209  H130  S    
C196  H91   S    
C233  H191  S    
C239  H207  S    
C145  C193  S    
C101  O55   A    
C257  H249  S    
O33   Zn25  S    
C71   C72   T    
C244  H223  S    
C254  H240  S    
C148  C196  S    
C41   C246  S    
C158  C190  S    
C137  H25   S    
C28   C37   S    
O75   Zn3   S    
O45   Zn21  S    
C207  H124  S    
C89   O33   A    
C141  H29   S    
C32   C49   S    
C185  H58   S    
O4    Zn4   S    
C262  H264  S    
O4    Zn22  S    
C113  C121  T    
C11   O19   A    
C203  H111  S    
C216  H152  S    
C227  H177  S    
O87   Zn15  S    
C150  C151  S    
C40   C249  S    
C9    O17   A    
C201  H106  S    
C187  H64   S    
C214  H144  S    
C117  C125  T    
O6    Zn10  S    
C160  C192  S    
C183  H52   S    
O20   Zn14  S    
C194  H84   S    
C247  H230  S    
C251  H234  S    
C73   C74   T    
O17   Zn15  S    
C229  H188  S    
C228  C229  S    
O74   Zn2   S    
O78   Zn6   S    
C55   C167  T    
O5    Zn9   S    
C248  H228  S    
C16   O104  A    
C261  C262  S    
C44   C237  S    
C109  C117  S    
C258  C259  S    
C77   C78   T    
C268  H279  S    
C260  H255  S    
C226  C227  S    
C178  H36   S    
C1    O89   A    
C84   O28   A    
C35   C264  S    
C212  H140  S    
C184  H55   S    
C25   C40   S    
C119  C127  T    
C220  H162  S    
C100  O46   A    
C26   C39   S    
C12   O20   A    
C107  O61   A    
C160  C208  S    
C27   C38   S    
C156  C188  S    
C88   O32   A    
C38   C219  S    
C1    C170  S    
C223  H173  S    
C134  H22   S    
C104  O52   A    
O8    Zn14  S    
C204  H115  S    
C146  C178  S    
C24   C152  S    
O2    Zn8   S    
C158  C206  S    
O3    Zn5   S    
C238  H209  S    
C199  H100  S    
O22   Zn12  S    
C48   C225  S    
C51   C163  T    
O40   Zn32  S    
C8    O16   A    
O18   Zn16  S    
C225  H183  S    
C97   O47   A    
C129  C132  S    
O53   Zn29  S    
C242  H213  S    
C46   C231  S    
O36   Zn28  S    
C7    C176  S    
C224  H174  S    
C27   C155  S    
C40   C217  S    
C197  H94   S    
O68   Zn14  S    
C152  C184  S    
C153  C201  S    
C54   C166  T    
C103  C124  S    
C137  C140  S    
C248  H226  S    
C110  O72   A    
C200  H103  S    
O91   Zn19  S    
C271  H285  S    
O77   Zn5   S    
C106  O58   A    
C67   C85   S    
C253  H243  S    
O90   Zn18  S    
C25   C153  S    
C67   C68   T    
C197  H93   S    
O79   Zn7   S    
C192  H80   S    
C263  H263  S    
C115  C123  T    
O80   Zn8   S    
C21   C60   S    
C47   C210  S    
C190  H74   S    
C269  H275  S    
C98   O42   A    
C29   C157  S    
C100  O44   A    
C198  H96   S    
C19   C147  S    
C239  H205  S    
C243  H224  S    
O6    Zn16  S    
C95   O87   A    
C17   C145  S    
C240  C241  S    
C210  H132  S    
O16   Zn2   S    
C189  H70   S    
C270  C271  S    
C203  H113  S    
C47   C228  S    
C146  C194  S    
O64   Zn2   S    
O29   Zn21  S    
C138  H7    S    
C94   O38   A    
C139  H6    S    
C85   O77   A    
C52   C164  T    
C149  C197  S    
C53   C165  T    
C22   C134  S    
C194  H86   S    
C211  H137  S    
O5    Zn31  S    
C26   C154  S    
O51   Zn27  S    
C251  H235  S    
C184  H56   S    
C42   C43   S    
O7    Zn13  S    
O99   Zn27  S    
C22   C59   S    
C179  H41   S    
C130  H15   S    
C198  H98   S    
C270  H287  S    
C187  H63   S    
C260  H254  S    
C45   C48   S    
O44   Zn20  S    
O47   Zn23  S    
C46   C47   S    
C254  H242  S    
C252  H246  S    
C149  C181  S    
C103  O51   A    
C134  H11   S    
C154  C202  S    
C43   C214  S    
C86   O30   A    
C26   C138  S    
C154  C186  S    
C220  H164  S    
O1    Zn17  S    
C28   C53   S    
O84   Zn12  S    
O61   Zn3   S    
C6    C173  S    
C210  H134  S    
O62   Zn4   S    
O54   Zn30  S    
C23   C135  S    
C32   C33   S    
C94   O86   A    
C192  H79   S    
C139  H27   S    
C223  H172  S    
O55   Zn31  S    
C131  H14   S    
O3    Zn3   S    
C90   O82   A    
C108  O62   A    
C107  C115  S    
C85   O29   A    
C48   C209  S    
C65   C66   T    
C196  H90   S    
O103  Zn31  S    
C18   C63   S    
C34   C223  S    
C83   O75   A    
C138  C139  S    
C109  O71   A    
C13   O21   A    
C9    O97   A    
C136  H24   S    
C3    O11   A    
C214  H146  S    
C188  H67   S    
C235  H201  S    
C1    O9    A    
C190  H72   S    
C267  H280  S    
C132  H13   S    
C96   O40   A    
C109  O65   A    
C144  H32   S    
C105  O63   A    
C5    O13   A    
C222  H170  S    
O86   Zn14  S    
C106  O64   A    
C136  H9    S    
C227  H178  S    
C200  H102  S    
C68   C86   S    
C263  H261  S    
C28   C140  S    
C25   C56   S    
C26   C55   S    
O82   Zn10  S    
C98   O48   A    
C195  H87   S    
C236  H198  S    
C27   C54   S    
C239  H206  S    
C233  H192  S    
C214  H145  S    
C250  H237  S    
C84   O76   A    
C29   C36   S    
C217  H153  S    
C259  H257  S    
C23   C42   S    
O8    Zn30  S    
C30   C35   S    
C106  C114  S    
C249  H238  S    
C229  C230  S    
C58   C170  T    
C245  H219  S    
O46   Zn22  S    
C219  H159  S    
C230  H186  S    
C182  H49   S    
C17   C64   S    
C240  H218  S    
C157  C205  S    
O63   Zn1   S    
C19   C62   S    
O97   Zn25  S    
C62   C174  T    
C237  H210  S    
O92   Zn20  S    
C215  H147  S    
C205  H118  S    
C202  H109  S    
C14   C165  S    
C211  H136  S    
O98   Zn26  S    
O88   Zn16  S    
C156  C204  S    
C104  C123  S    
C272  H283  S    
O5    Zn25  S    
C133  C136  S    
C251  H233  S    
C37   C258  S    
C39   C218  S    
C111  O67   A    
C193  H82   S    
C213  H141  S    
C159  C207  S    
O71   Zn9   S    
C187  H65   S    
C95   O39   A    
C38   C255  S    
C238  C239  S    
C231  H196  S    
C226  H180  S    
C178  H37   S    
C44   C213  S    
C9    C162  S    
O73   Zn1   S    
C2    O90   A    
O1    Zn1   S    
C191  H76   S    
C246  H231  S    
C10   O18   A    
C269  H277  S    
C57   C169  T    
C198  H97   S    
C19   C131  S    
O6    Zn32  S    
C79   C89   S    
C17   C129  S    
C60   C172  T    
O6    Zn26  S    
O42   Zn18  S    
C61   C173  T    
O19   Zn13  S    
O32   Zn24  S    
C254  H241  S    
C149  C152  S    
C218  H157  S    
O94   Zn22  S    
C33   C224  S    
O48   Zn24  S    
C225  C226  S    
C232  H194  S    
C16   O24   A    
C242  H212  S    
C181  H47   S    
C234  H203  S    
O56   Zn32  S    
C158  C159  S    
C180  H43   S    
C257  H248  S    
O67   Zn13  S    
C243  C244  S    
C69   C83   S    
C16   C167  S    
O26   Zn18  S    
C157  C189  S    
C36   C221  S    
C142  H3    S    
O83   Zn11  S    
C41   C44   S    
C56   C168  T    
C207  H123  S    
O7    Zn29  S    
O38   Zn30  S    
C42   C243  S    
C65   C87   S    
C228  H190  S    
O70   Zn12  S    
C185  H57   S    
C221  H166  S    
C262  H265  S    
C261  H267  S    
O3    Zn19  S    
C258  H260  S    
O14   Zn4   S    
C265  H271  S    
O65   Zn15  S    
C39   C252  S    
C222  H169  S    
C107  O59   A    
C268  C269  S    
C102  O56   A    
C15   C168  S    
C151  C199  S    
C159  C191  S    
C195  H89   S    
C228  H189  S    
O2    Zn18  S    
C183  H51   S    
C221  H165  S    
C152  C200  S    
C30   C158  S    
C23   C151  S    
C217  H155  S    
O24   Zn10  S    
C226  H181  S    
O57   Zn7   S    
O58   Zn8   S    
C259  C260  S    
C18   C146  S    
C241  H215  S    
C129  H17   S    
C63   C175  T    
C264  H274  S    
C157  C160  S    
C221  H167  S    
C181  H45   S    
C140  H5    S    
C219  H161  S    
C208  H127  S    
O34   Zn26  S    
C245  H220  S    
C248  H227  S    
C99   O45   A    
C184  H54   S    
C92   O36   A    
C24   C136  S    
C201  H105  S    
C186  H60   S    
C256  H250  S    
C35   C222  S    
C11   C164  S    
C197  H95   S    
C200  H104  S    
C266  H269  S    
C81   O25   A    
C80   C90   S    
C204  H114  S    
C213  H143  S    
C31   C159  S    
O50   Zn26  S    
C79   C80   T    
C114  C122  T    
C268  H278  S    
O28   Zn20  S    
C237  C238  S    
C147  C195  S    
C28   C156  S    
O93   Zn21  S    
C10   C161  S    
C118  C126  T    
C71   C81   S    
C177  H33   S    
C216  H150  S    
C72   C82   S    
O21   Zn11  S    
C225  H182  S    
C32   C160  S    
C29   C52   S    
C15   O103  A    
