data_mof_unit_42854.cif
_audit_creation_date              2013-03-05T16:43:18-0500
_audit_creation_method            fapswitch 2.2
_symmetry_space_group_name_H-M    P1
_symmetry_Int_Tables_number       1
_space_group_crystal_system       triclinic
_cell_length_a                    15.749849
_cell_length_b                    10.643696
_cell_length_c                    9.859529
_cell_angle_alpha                 89.870087
_cell_angle_beta                  89.765517
_cell_angle_gamma                 90.141988
_cell_volume                      1652.79476338

loop_
_atom_site_label
_atom_site_type_symbol
_atom_site_description
_atom_site_fract_x
_atom_site_fract_y
_atom_site_fract_z
_atom_type_partial_charge
O1    O     O_R   0.500010 0.316790 0.614690 -0.609403
O2    O     O_R   0.500000 0.316760 0.385350 -0.593999
C1    C     C_R   0.507187 0.260372 0.499995 0.906169
O3    O     O_R   0.377150 0.500020 0.614720 -0.604754
O4    O     O_R   0.377140 0.499990 0.385380 -0.624301
C2    C     C_R   0.338368 0.500382 0.500220 0.913579
Zn1   Zn    Zn3+2 0.500010 0.500020 0.653130 0.974187
Zn2   Zn    Zn3+2 0.499990 0.499980 0.346870 0.998073
O5    O     O_R   0.500000 0.683240 0.614650 -0.623657
O6    O     O_R   0.499990 0.683210 0.385310 -0.625638
O7    O     O_R   0.622860 0.500010 0.614620 -0.624087
O8    O     O_R   0.622850 0.499980 0.385280 -0.577471
C3    C     C_R   0.502636 0.740223 0.499934 0.879652
C4    C     C_R   0.661640 0.499866 0.499629 0.912128
C5    C     C_3   0.048485 0.451788 0.634818 -0.364836
C6    C     C_3   0.050286 0.412215 0.377389 -0.226574
C7    C     C_3   0.951790 0.398290 0.386922 -0.268938
H1    H     H_    0.927875 0.356108 0.652024 0.166625
H2    H     H_    0.070822 0.355028 0.657113 0.238695
H3    H     H_    0.066527 0.461985 0.281051 0.191577
H4    H     H_    0.936335 0.303764 0.429086 0.154035
C8    C     C_1   0.750299 0.498810 0.498304 -0.058442
C9    C     C_3   0.083068 0.497293 0.495667 0.154666
C10   C     C_3   0.950058 0.454439 0.634915 -0.223800
C11   C     C_3   0.917158 0.497759 0.491764 0.052720
C12   C     C_3   0.952549 0.632960 0.459919 -0.179962
C13   C     C_3   0.050776 0.632846 0.471481 -0.459478
C14   C     C_1   0.825468 0.497995 0.495401 -0.011660
C15   C     C_1   0.174518 0.499496 0.498628 -0.028635
C16   C     C_1   0.249688 0.500366 0.500100 -0.106359
H5    H     H_    0.070039 0.693886 0.557752 0.209768
H6    H     H_    0.081863 0.673841 0.379914 0.211450
H7    H     H_    0.928001 0.698607 0.538226 0.180860
H8    H     H_    0.074867 0.511942 0.716881 0.213951
C17   C     C_R   0.513189 0.064045 0.622635 0.092054
C18   C     C_R   0.526972 0.129435 0.501943 -0.186626
C19   C     C_R   0.557084 0.063832 0.386061 -0.055761
C20   C     C_R   0.549885 0.933229 0.386155 -0.235324
H9    H     H_    0.566989 0.880457 0.296184 0.202398
C21   C     C_R   0.518126 0.871541 0.501476 -0.119171
C22   C     C_R   0.509496 0.936402 0.622605 0.130100
C23   C     C_3   0.439847 0.932330 0.725875 -0.462276
C24   C     C_3   0.443726 0.074595 0.725919 -0.352588
H10   H     H_    0.379391 0.894197 0.684760 0.206564
H11   H     H_    0.460965 0.889668 0.823070 0.222638
H12   H     H_    0.385483 0.119262 0.684618 0.235822
H13   H     H_    0.467035 0.114197 0.823215 0.236069
C25   C     C_R   0.440668 0.432301 0.072110 0.188563
N1    N     N_R   0.499430 0.499140 0.142800 -0.109068
C26   C     C_R   0.562672 0.558181 0.071393 -0.073242
H14   H     H_    0.612169 0.607712 0.125258 0.168590
C27   C     C_R   0.562546 0.558507 0.927439 -0.107569
H15   H     H_    0.611891 0.608399 0.872726 0.166131
N2    N     N_R   0.499430 0.499180 0.857150 -0.136485
C28   C     C_R   0.441102 0.430845 0.929253 0.137894
C29   C     C_3   0.346729 0.447655 0.925800 0.097033
C30   C     C_3   0.346995 0.450590 0.079946 -0.522511
H16   H     H_    0.326432 0.537501 0.878021 0.128994
H17   H     H_    0.329560 0.544066 0.121654 0.194392
H18   H     H_    0.314374 0.369945 0.129798 0.258986
C31   C     C_2   0.915033 0.529365 0.753627 0.935866
O9    O     O_2   0.939608 0.636481 0.775538 -0.622592
O10   O     O_R   0.854925 0.473770 0.839678 -0.797665
H19   H     H_    0.836350 0.531759 0.915605 0.365344
C32   C     C_2   0.922977 0.686763 0.325552 0.982991
O11   O     O_2   0.857889 0.749105 0.321746 -0.604521
O12   O     O_R   0.969498 0.666255 0.206426 -0.794493
H20   H     H_    0.942440 0.706657 0.124081 0.372438
C33   C     C_2   0.594000 0.126091 0.264428 0.965916
O13   O     O_2   0.640021 0.218049 0.276951 -0.598967
O14   O     O_R   0.578747 0.076398 0.135528 -0.809549
H21   H     H_    0.607452 0.126599 0.060698 0.348125
N3    N     N_R   0.302795 0.337269 0.871907 0.247920
O15   O     O_R   0.318831 0.225256 0.918401 -0.393184
O16   O     O_R   0.243054 0.351618 0.782613 -0.391769
C34   C     C_2   0.093736 0.285215 0.369769 0.966147
O17   O     O_2   0.084569 0.207800 0.460527 -0.616235
O18   O     O_R   0.144646 0.257241 0.257403 -0.760563
H22   H     H_    0.170696 0.170400 0.263193 0.358415
C35   C     C_2   0.912141 0.395480 0.246202 0.975937
O19   O     O_2   0.850307 0.459473 0.217986 -0.597993
O20   O     O_R   0.945600 0.313559 0.149157 -0.758241
H23   H     H_    0.914253 0.317718 0.059665 0.374929

loop_
_geom_bond_atom_site_label_1
_geom_bond_atom_site_label_2
_geom_bond_distance
_ccdc_geom_bond_type
C25   C28   1.408613 A    
C28   C29   1.498058 S    
C21   C22   1.387170 A    
C10   C31   1.520309 S    
C19   C33   1.484638 S    
C22   C23   1.494106 S    
C17   C18   1.393171 A    
C25   C30   1.490313 S    
C11   C14   1.444411 S    
Zn1   O7    1.970246 S    
C12   C13   1.551734 S    
C19   C20   1.394438 A    
H1    C10   1.114816 S    
C9    C15   1.440870 S    
C18   C19   1.420811 A    
C34   O18   1.397981 S    
O4    C2    1.284260 A    
O7    C4    1.285614 A    
C30   H17   1.112061 S    
C29   C30   1.520221 S    
C31   O10   1.398058 S    
N3    O15   1.302037 A    
C33   O14   1.399126 S    
O5    C3    1.282665 A    
C3    C21   1.418370 S    
C6    C7    1.560427 S    
C32   O12   1.399606 S    
C26   C27   1.419325 A    
C9    C13   1.549260 S    
C17   C24   1.496168 S    
C5    H8    1.114015 S    
C6    H3    1.115040 S    
C5    C9    1.550191 S    
C6    C34   1.518486 S    
N3    O16   1.300243 A    
C31   O9    1.223093 D    
C23   H10   1.112517 S    
O3    Zn1   1.973257 S    
C27   N2    1.368108 A    
C13   H5    1.114142 S    
O12   H20   1.013832 S    
C10   C11   1.573963 S    
C35   O20   1.398359 S    
O18   H22   1.013801 S    
C30   H18   1.111839 S    
C11   C12   1.572467 S    
C7    C35   1.524143 S    
C7    H4    1.113729 S    
O1    C1    1.286291 A    
C23   H11   1.111986 S    
C5    H2    1.110915 S    
C15   C16   1.184086 T    
C12   H7    1.111364 S    
Zn2   O8    1.973257 S    
C26   H14   1.081807 S    
C34   O17   1.222920 D    
O3    C2    1.285767 A    
C5    C10   1.550529 S    
C2    C16   1.396692 S    
O8    C4    1.284507 A    
O20   H23   1.013771 S    
C6    C9    1.566508 S    
N1    C26   1.368162 A    
C23   C24   1.515309 S    
C27   H15   1.081762 S    
Zn1   O5    1.985857 S    
N2    C28   1.366499 A    
C25   N1    1.361124 A    
C29   N3    1.464030 S    
C13   H6    1.112964 S    
O1    Zn1   1.987573 S    
C12   C32   1.517527 S    
O2    Zn2   1.985857 S    
C35   O19   1.222457 D    
O6    C3    1.284739 A    
O4    Zn2   1.970245 S    
C7    C11   1.578010 S    
C4    C8    1.396450 S    
O2    C1    1.284135 A    
O14   H21   1.014156 S    
C20   C21   1.401585 A    
C20   H9    1.084437 S    
C1    C18   1.428921 S    
C29   H16   1.113236 S    
C33   O13   1.223261 D    
C17   C22   1.359694 A    
C24   H12   1.112506 S    
O10   H19   1.013983 S    
Zn2   O6    1.987573 S    
C32   O11   1.223169 D    
C8    C14   1.184189 T    
Zn1   N2    2.011524 S    
C24   H13   1.112045 S    
Zn2   N1    2.012130 S    
