data_mof_unit_49087.cif
_audit_creation_date              2012-12-10T16:54:07-0500
_audit_creation_method            fapswitch 2.2
_symmetry_space_group_name_H-M    P1
_symmetry_Int_Tables_number       1
_space_group_crystal_system       triclinic
_cell_length_a                    9.700262
_cell_length_b                    10.913473
_cell_length_c                    13.444912
_cell_angle_alpha                 90.300175
_cell_angle_beta                  73.837066
_cell_angle_gamma                 90.025818
_cell_volume                      1367.04813705

loop_
_atom_site_label
_atom_site_type_symbol
_atom_type_description
_atom_site_fract_x
_atom_site_fract_y
_atom_site_fract_z
_atom_type_partial_charge
C1    C     C_R   0.497484 0.734374 0.506727 0.804617
C2    C     C_R   0.454807 0.471077 0.974332 0.049716
C3    C     C_R   0.499122 0.463954 0.865501 0.099094
C4    C     C_R   0.555131 0.510132 0.027866 0.036141
C5    C     C_R   0.703695 0.518634 0.973648 0.068633
C6    C     C_R   0.748184 0.483495 0.869721 -0.173936
C7    C     C_R   0.648313 0.455312 0.817143 -0.206548
C8    C     C_R   0.513210 0.542257 0.133706 0.020581
C9    C     C_R   0.761952 0.543851 0.135275 -0.238008
C10   C     C_R   0.392327 0.458029 0.810772 -0.140385
C11   C     C_2   0.608934 0.066523 0.503630 -0.150206
C12   C     C_R   0.426125 0.487007 0.698958 0.787232
C13   C     C_2   0.504318 0.133731 0.484523 -0.336909
C14   C     C_2   0.606405 0.933309 0.494868 -0.193261
C15   C     C_2   0.488037 0.864326 0.532763 -0.033819
C16   C     C_2   0.061345 0.585577 0.544001 -0.031072
C17   C     C_2   0.902472 0.574296 0.556025 -0.121046
C18   C     C_R   0.501528 0.265470 0.495791 0.864594
C19   C     C_R   0.575293 0.510088 0.301060 0.819075
C20   C     C_R   0.804256 0.553668 0.027504 -0.010321
C21   C     C_R   0.616936 0.529667 0.188738 -0.108010
C22   C     C_R   0.252841 0.421837 0.864393 -0.227380
C23   C     C_R   0.217790 0.396397 0.970577 0.051096
C24   C     C_R   0.316725 0.426474 0.025749 -0.251820
Cu1   Cu    Cu3+1 0.361370 0.499980 0.499980 0.945900
Cu2   Cu    Cu3+1 0.638630 0.500020 0.500020 0.977844
H1    H     H_    0.840833 0.553268 0.178121 0.226304
H2    H     H_    0.416302 0.090386 0.462275 0.158158
H3    H     H_    0.706397 0.890764 0.451186 0.166858
H4    H     H_    0.099120 0.666336 0.575731 0.159965
H5    H     H_    0.112812 0.417165 0.488670 0.203778
H6    H     H_    0.830886 0.629333 0.615991 0.160731
H7    H     H_    0.860434 0.471476 0.829090 0.196192
H8    H     H_    0.173192 0.408893 0.822580 0.200360
H9    H     H_    0.287780 0.410018 0.108226 0.172637
H10   H     H_    0.692387 0.416739 0.741022 0.185913
H11   H     H_    0.701719 0.109156 0.519694 0.189237
N1    N     N_2   0.152660 0.501340 0.501130 -0.279155
N2    N     N_2   0.846520 0.501370 0.501160 -0.255911
O1    O     O_R   0.382960 0.678040 0.499980 -0.585869
O2    O     O_R   0.617100 0.678080 0.500020 -0.590318
O3    O     O_R   0.325800 0.499940 0.650950 -0.573871
O4    O     O_R   0.559930 0.499980 0.650990 -0.602101
O5    O     O_R   0.382900 0.321920 0.499980 -0.587151
O6    O     O_R   0.617040 0.321960 0.500020 -0.559020
O7    O     O_R   0.440070 0.500020 0.349010 -0.574635
O8    O     O_R   0.674200 0.500060 0.349050 -0.571264
C25   C     C_3   0.349848 0.910630 0.609222 -0.408628
C26   C     C_3   0.315372 0.839613 0.711637 -0.369922
C27   C     C_3   0.183745 0.892587 0.790562 -0.761004
H12   H     H_    0.201788 0.990254 0.806947 0.248180
H13   H     H_    0.087941 0.885271 0.760951 0.262346
H14   H     H_    0.163098 0.840802 0.864037 0.259042
H15   H     H_    0.293724 0.741933 0.698348 0.244548
H16   H     H_    0.408599 0.844192 0.744446 0.220400
H17   H     H_    0.356528 0.008255 0.629821 0.225304
H18   H     H_    0.259890 0.900632 0.573542 0.197736
C28   C     C_2   0.931498 0.464034 0.401219 1.046219
O9    O     O_2   0.925321 0.357953 0.373235 -0.579495
O10   O     O_R   0.012251 0.550180 0.332551 -0.791594
H19   H     H_    0.057741 0.513871 0.261458 0.333754
C29   C     C_2   0.948937 0.605908 0.976475 0.831959
O11   O     O_2   0.982098 0.635125 0.885239 -0.631591
O12   O     O_R   0.044352 0.630049 0.035396 -0.785002
H20   H     H_    0.137904 0.667445 0.993137 0.325329
C30   C     C_3   0.373287 0.612421 0.180123 -0.381412
C31   C     C_3   0.399770 0.739259 0.221842 -0.337589
C32   C     C_3   0.258562 0.804588 0.273055 -0.762517
H21   H     H_    0.194300 0.815785 0.216998 0.264887
H22   H     H_    0.195565 0.751504 0.340800 0.281956
H23   H     H_    0.281114 0.896649 0.300407 0.227923
H24   H     H_    0.461129 0.731638 0.279897 0.217444
H25   H     H_    0.463566 0.796086 0.156805 0.217312
H26   H     H_    0.316609 0.630298 0.120454 0.209742
H27   H     H_    0.299328 0.557757 0.241227 0.242122
C33   C     C_2   0.077214 0.340415 0.023688 0.849025
O13   O     O_2   0.041878 0.326716 0.117636 -0.583945
O14   O     O_R   0.984887 0.302182 0.966141 -0.794482
H28   H     H_    0.891943 0.266528 0.011068 0.339316

loop_
_geom_bond_atom_site_label_1
_geom_bond_atom_site_label_2
_ccdc_geom_bond_type
C8    C30   S    
C7    H10   S    
C23   C33   S    
C4    C8    A    
C19   O7    A    
C25   H18   S    
C5    C20   A    
C10   C22   A    
C13   C18   S    
C19   C21   S    
C33   O14   S    
C12   O4    A    
C3    C7    A    
Cu1   O1    S    
C5    C6    A    
C11   C14   S    
C19   O8    A    
Cu2   N2    S    
C28   O10   S    
C26   H15   S    
C30   H26   S    
C31   H24   S    
C17   N2    D    
C11   H11   S    
C12   O3    A    
Cu2   O6    S    
C16   C17   S    
C27   H13   S    
C23   C24   A    
C13   H2    S    
C31   H25   S    
C29   O12   S    
C1    O1    A    
C30   C31   S    
C15   C25   S    
Cu1   O5    S    
Cu2   O4    S    
C27   H12   S    
C22   H8    S    
C27   H14   S    
C31   C32   S    
C24   H9    S    
C33   O13   D    
O14   H28   S    
C32   H21   S    
C28   O9    D    
C26   H16   S    
N2    C28   S    
O10   H19   S    
C2    C4    A    
C29   O11   D    
C18   O5    A    
Cu1   N1    S    
C9    C20   A    
C8    C21   A    
C10   C12   S    
Cu2   O8    S    
C1    C15   S    
C1    O2    A    
C25   C26   S    
C2    C24   A    
C14   H3    S    
C18   O6    A    
C9    H1    S    
C25   H17   S    
C22   C23   A    
C4    C5    A    
Cu1   O3    S    
C6    H7    S    
C6    C7    A    
H5    N1    S    
O12   H20   S    
C2    C3    A    
Cu1   Cu2   S    
C3    C10   A    
C11   C13   D    
C9    C21   A    
C32   H23   S    
C30   H27   S    
C20   C29   S    
C32   H22   S    
C26   C27   S    
C17   H6    S    
C14   C15   D    
C16   H4    S    
Cu1   O7    S    
Cu2   O2    S    
C16   N1    D    
