data_mof_unit_11119.cif
_audit_creation_date              2013-03-05T15:55:02-0500
_audit_creation_method            fapswitch 2.2
_symmetry_space_group_name_H-M    P1
_symmetry_Int_Tables_number       1
_space_group_crystal_system       triclinic
_cell_length_a                    6.931884
_cell_length_b                    14.559366
_cell_length_c                    16.187726
_cell_angle_alpha                 90.440753
_cell_angle_beta                  90.011368
_cell_angle_gamma                 90.070678
_cell_volume                      1633.67779096

loop_
_atom_site_label
_atom_site_type_symbol
_atom_site_description
_atom_site_fract_x
_atom_site_fract_y
_atom_site_fract_z
_atom_type_partial_charge
O1    O     O_R   0.505810 0.583360 0.413880 -0.602110
O2    O     O_R   0.175870 0.595480 0.585520 -0.581034
O3    O     O_R   0.005540 0.416640 0.586120 -0.599128
C1    C     C_R   0.344863 0.615383 0.616383 0.999788
O4    O     O_R   0.176100 0.594390 0.414490 -0.605056
O5    O     O_R   0.005770 0.415540 0.413870 -0.603359
C2    C     C_R   0.345228 0.616476 0.385733 0.903338
O6    O     O_R   0.505580 0.584460 0.586130 -0.568091
O7    O     O_3   0.339190 0.441320 0.500000 -0.284056
V1    V     V_3+5 0.064350 0.510890 0.500000 1.183319
O8    O     O_R   0.676050 0.404520 0.414480 -0.607572
C3    C     C_R   0.845070 0.382081 0.385724 0.897871
O9    O     O_R   0.675830 0.405610 0.585510 -0.582553
C4    C     C_R   0.845066 0.383632 0.613690 1.087312
V2    V     V_3+5 0.564340 0.489110 0.500000 1.187688
O10   O     O_3   0.839370 0.558680 0.500000 -0.273506
C5    C     C_2   0.720414 0.209334 0.786375 -0.085060
C6    C     C_2   0.885768 0.181914 0.822636 -0.450730
H1    H     H_    0.584310 0.180878 0.807466 0.135994
H2    H     H_    0.023554 0.209738 0.803701 0.159047
C7    C     C_2   0.708046 0.277818 0.718458 -0.037005
C8    C     C_2   0.861598 0.315491 0.680534 -0.431923
H3    H     H_    0.563947 0.297169 0.698860 0.139320
H4    H     H_    0.006844 0.296897 0.698304 0.150205
C9    C     C_R   0.047455 0.222985 0.219489 -0.141089
H5    H     H_    0.188299 0.204404 0.195825 0.121945
C10   C     C_R   0.036118 0.286979 0.284297 -0.136505
H6    H     H_    0.168839 0.315900 0.308403 0.124042
C11   C     C_R   0.856343 0.313310 0.317346 -0.115278
C12   C     C_R   0.688220 0.273903 0.283730 -0.144512
H7    H     H_    0.547377 0.292485 0.307395 0.120477
C13   C     C_R   0.699557 0.209908 0.218922 -0.133574
H8    H     H_    0.566838 0.180987 0.194815 0.124187
C14   C     C_R   0.879333 0.183576 0.185874 -0.121407
C15   C     C_R   0.209492 0.745425 0.701033 -0.091975
H9    H     H_    0.086321 0.747628 0.659919 0.145206
C16   C     C_R   0.219521 0.809085 0.766287 -0.106787
H10   H     H_    0.103123 0.857956 0.774065 0.122029
C17   C     C_R   0.379493 0.811183 0.819646 -0.184450
C18   C     C_R   0.527209 0.746728 0.807346 -0.248124
H11   H     H_    0.648564 0.745548 0.849518 0.171418
C19   C     C_R   0.515144 0.679789 0.744256 0.387904
C20   C     C_R   0.356761 0.680421 0.688277 -0.302540
C21   C     C_R   0.188481 0.723268 0.283848 -0.143046
H12   H     H_    0.047664 0.704970 0.307566 0.120120
C22   C     C_R   0.199719 0.786378 0.219100 -0.131695
H13   H     H_    0.066992 0.814876 0.195142 0.123796
C23   C     C_R   0.379366 0.812396 0.185915 -0.124007
C24   C     C_R   0.547455 0.773489 0.219413 -0.139025
H14   H     H_    0.688266 0.791790 0.195691 0.121759
C25   C     C_R   0.536217 0.710376 0.284164 -0.135309
H15   H     H_    0.668936 0.681874 0.308126 0.123376
C26   C     C_R   0.356565 0.684366 0.317353 -0.119599
O11   O     O_R   0.230120 0.912300 0.917180 -0.593593
O12   O     O_R   0.559740 0.902430 0.088770 -0.599604
O13   O     O_R   0.729930 0.081310 0.089370 -0.598205
C27   C     C_R   0.390647 0.880305 0.117549 0.919640
O14   O     O_R   0.559840 0.901330 0.917750 -0.598083
O15   O     O_R   0.730030 0.080210 0.917120 -0.595281
C28   C     C_R   0.390742 0.879411 0.888559 0.951260
O16   O     O_R   0.230020 0.913400 0.089430 -0.596482
O17   O     O_3   0.396460 0.055470 0.003290 -0.275421
V3    V     V_3+5 0.671360 0.985960 0.003250 1.156363
O18   O     O_R   0.059740 0.091300 0.917690 -0.603533
C29   C     C_R   0.891027 0.113279 0.889494 1.014043
O19   O     O_R   0.059640 0.092400 0.088720 -0.600554
C30   C     C_R   0.890618 0.114802 0.117498 0.917777
V4    V     V_3+5 0.171350 0.007820 0.003190 1.155396
O20   O     O_3   0.896380 0.938200 0.003220 -0.273659
N1    N     N_R   0.657709 0.608337 0.741842 0.231527
O21   O     O_R   0.837139 0.627319 0.758358 -0.419107
O22   O     O_R   0.603394 0.522775 0.739707 -0.412517

loop_
_geom_bond_atom_site_label_1
_geom_bond_atom_site_label_2
_geom_bond_distance
_ccdc_geom_bond_type
O19   V4    2.002385 S    
C3    C11   1.488959 S    
C10   C11   1.408701 A    
C15   H9    1.083113 S    
C1    O6    1.296825 A    
C23   C27   1.491687 S    
O11   C28   1.296821 A    
C6    C29   1.479169 S    
C11   C12   1.405976 A    
O18   V4    2.004788 S    
C15   C16   1.401578 A    
C16   H10   1.083162 S    
O5    C3    1.296471 A    
C12   H7    1.082741 S    
O11   V4    2.002595 S    
O14   C28   1.302169 A    
V2    O10   2.157741 S    
C19   N1    1.436069 S    
O8    V2    2.002362 S    
C21   C26   1.406635 A    
V3    O20   1.708568 S    
V4    O20   2.157717 S    
C24   C25   1.401343 A    
O12   V3    2.004538 S    
N1    O21   1.301048 A    
O1    V2    2.005409 S    
C15   C20   1.407105 A    
O7    V1    2.158783 S    
C9    C14   1.405974 A    
C18   C19   1.408651 A    
O19   C30   1.301906 A    
O9    C4    1.299871 A    
C21   C22   1.401272 A    
C22   C23   1.408922 A    
C25   H15   1.082736 S    
C17   C18   1.402966 A    
O4    C2    1.302362 A    
C9    H5    1.082741 S    
C5    C7    1.492402 S    
C25   C26   1.408935 A    
C13   C14   1.408704 A    
O2    C1    1.304815 A    
O17   V3    2.158738 S    
C5    C6    1.349889 D    
O13   V3    2.001029 S    
O12   C27   1.302410 A    
O3    C4    1.292173 A    
C23   C24   1.406649 A    
O6    V2    2.002217 S    
O9    V2    2.004754 S    
C8    H4    1.082360 S    
C19   C20   1.423502 A    
C2    C26   1.491689 S    
O2    V1    2.000466 S    
C21   H12   1.082719 S    
O14   V3    2.000600 S    
C22   H13   1.082736 S    
C18   H11   1.083491 S    
O1    C2    1.297555 A    
C14   C30   1.488967 S    
O5    V1    2.001155 S    
O8    C3    1.301903 A    
C27   O16   1.297545 A    
C1    C20   1.496899 S    
C9    C10   1.400009 A    
O13   C30   1.296477 A    
O15   V3    2.005143 S    
O17   V4    1.706918 S    
C13   H8    1.082753 S    
C4    C8    1.478156 S    
C7    H3    1.086151 S    
O7    V2    1.708003 S    
O4    V1    2.004507 S    
C16   C17   1.405641 A    
O3    V1    2.005226 S    
V1    O10   1.708494 S    
O18   C29   1.296691 A    
C12   C13   1.400022 A    
O16   V4    2.008670 S    
C17   C28   1.489966 S    
C5    H1    1.086130 S    
C6    H2    1.082306 S    
C24   H14   1.082718 S    
C10   H6    1.082753 S    
N1    O22   1.301149 A    
C7    C8    1.347110 D    
O15   C29   1.295941 A    
