data_mof_unit_67603.cif
_audit_creation_date              2013-03-05T16:07:30-0500
_audit_creation_method            fapswitch 2.2
_symmetry_space_group_name_H-M    P1
_symmetry_Int_Tables_number       1
_space_group_crystal_system       triclinic
_cell_length_a                    10.96706
_cell_length_b                    11.048463
_cell_length_c                    9.661934
_cell_angle_alpha                 89.967058
_cell_angle_beta                  91.477768
_cell_angle_gamma                 89.989608
_cell_volume                      1170.33880207

loop_
_atom_site_label
_atom_site_type_symbol
_atom_site_description
_atom_site_fract_x
_atom_site_fract_y
_atom_site_fract_z
_atom_type_partial_charge
O1    O     O_R   0.499990 0.319660 0.618740 -0.587936
O2    O     O_R   0.500010 0.680340 0.381260 -0.587947
O3    O     O_R   0.499990 0.319630 0.381170 -0.509772
O4    O     O_R   0.500010 0.680370 0.618830 -0.509807
C1    C     C_R   0.505615 0.262367 0.500757 0.874713
C2    C     C_R   0.494446 0.737640 0.499234 0.874509
O5    O     O_R   0.319650 0.500020 0.618780 -0.557139
O6    O     O_R   0.680350 0.499980 0.381220 -0.557031
O7    O     O_R   0.319640 0.500000 0.381210 -0.554477
O8    O     O_R   0.680360 0.500000 0.618790 -0.554646
C3    C     C_R   0.262625 0.502186 0.498524 0.839925
C4    C     C_R   0.737372 0.497791 0.501476 0.839882
Cu1   Cu    Cu3+1 0.500000 0.500020 0.640660 1.070618
Cu2   Cu    Cu3+1 0.500000 0.499980 0.359340 1.070706
C5    C     C_R   0.169166 0.893353 0.286743 0.180412
C6    C     C_R   0.831038 0.106916 0.714315 0.180823
C7    C     C_R   0.141495 0.803812 0.384679 0.098099
C8    C     C_R   0.858447 0.196308 0.616056 0.097798
C9    C     C_R   0.118483 0.684292 0.340986 -0.146203
C10   C     C_R   0.881507 0.315923 0.659441 -0.145892
C11   C     C_R   0.129040 0.653923 0.201105 0.236786
C12   C     C_R   0.870993 0.346595 0.799281 0.236700
C13   C     C_R   0.157581 0.742520 0.103659 0.200490
C14   C     C_R   0.842447 0.258192 0.897011 0.200408
C15   C     C_R   0.171409 0.863880 0.145178 0.137356
C16   C     C_R   0.828937 0.136668 0.855851 0.137700
C17   C     C_R   0.932017 0.593683 0.435796 0.178180
C18   C     C_R   0.067981 0.406298 0.564258 0.178205
C19   C     C_R   0.871505 0.499065 0.503184 -0.109230
C20   C     C_R   0.128490 0.500897 0.496813 -0.109255
C21   C     C_R   0.939725 0.405165 0.567715 0.042844
C22   C     C_R   0.060266 0.594851 0.432403 0.042900
C23   C     C_R   0.526149 0.063277 0.378173 0.295072
C24   C     C_R   0.473986 0.936749 0.621749 0.295131
C25   C     C_R   0.508990 0.937789 0.373216 0.136897
C26   C     C_R   0.491326 0.062208 0.626741 0.137082
C27   C     C_R   0.489962 0.872064 0.497214 -0.248740
C28   C     C_R   0.510216 0.127946 0.502738 -0.248572
C29   C     C_R   0.423364 0.426128 0.069878 0.416755
C30   C     C_R   0.576637 0.573865 0.930134 0.416533
C31   C     C_R   0.421785 0.428873 0.922824 -0.033480
C32   C     C_R   0.578301 0.571028 0.077182 -0.033240
H1    H     H_    0.358745 0.371739 0.865543 0.198767
H2    H     H_    0.641454 0.628041 0.134468 0.198839
N1    N     N_R   0.500030 0.500030 0.852070 -0.230888
N2    N     N_R   0.499970 0.499970 0.147930 -0.230849
I1    I     I_    0.184002 0.004370 0.994627 0.010343
I2    I     I_    0.817493 0.996341 0.006902 0.010336
Br1   Br    Br    0.201929 0.056419 0.345897 -0.353773
Br2   Br    Br    0.798281 0.943774 0.655538 -0.353001
I3    I     I_    0.118205 0.852182 0.594523 -0.074084
I4    I     I_    0.881350 0.147656 0.406126 -0.075013
Br3   Br    Br    0.087872 0.492956 0.142471 -0.306006
Br4   Br    Br    0.912437 0.507624 0.857521 -0.305782
Br5   Br    Br    0.175114 0.694982 0.914676 -0.295954
Br6   Br    Br    0.824327 0.306227 0.085857 -0.296909
I5    I     I_    0.830097 0.738697 0.339376 -0.173723
I6    I     I_    0.169899 0.261386 0.660897 -0.173608
Br7   Br    Br    0.585256 0.140781 0.213647 -0.308807
Br8   Br    Br    0.414511 0.859341 0.786144 -0.308656
I7    I     I_    0.496754 0.859662 0.168964 -0.147401
I8    I     I_    0.504198 0.140264 0.831013 -0.147748
Br9   Br    Br    0.321732 0.307272 0.151592 -0.279714
Br10  Br    Br    0.678117 0.692890 0.848502 -0.279524

loop_
_geom_bond_atom_site_label_1
_geom_bond_atom_site_label_2
_geom_bond_distance
_ccdc_geom_bond_type
C6    Br2   1.921296 S    
C11   Br3   1.917264 S    
O7    Cu2   1.994686 S    
C13   Br5   1.914706 S    
C18   I6    2.151364 S    
C4    C19   1.470783 S    
C17   C19   1.406747 A    
C24   C27   1.414597 A    
C29   Br9   1.906525 S    
C15   I1    2.133575 S    
C32   N2    1.360707 A    
C8    C10   1.407650 A    
C23   C28   1.414689 A    
C30   Br10  1.906478 S    
C16   I2    2.134569 S    
O6    C4    1.305444 A    
C7    I3    2.118840 S    
C18   C20   1.406829 A    
C2    C27   1.486092 S    
C8    I4    2.119820 S    
C19   C21   1.414105 A    
C1    C28   1.486078 S    
C24   Br8   1.931808 S    
C31   H1    1.078693 S    
C23   C25   1.399873 A    
O7    C3    1.308782 A    
O2    C2    1.306977 A    
O3    Cu2   2.003601 S    
C32   H2    1.078709 S    
C25   I7    2.155468 S    
C29   N2    1.381457 A    
O1    C1    1.307061 A    
C9    C22   1.480758 S    
O8    C4    1.308773 A    
C6    C8    1.407426 A    
C9    C11   1.400414 A    
C10   C12   1.400794 A    
O5    C3    1.305452 A    
C24   C26   1.399837 A    
C12   Br4   1.917489 S    
C5    Br1   1.921575 S    
C11   C13   1.398873 A    
C6    C16   1.407419 A    
C30   N1    1.381481 A    
O2    Cu2   2.004045 S    
C12   C14   1.399260 A    
C5    C15   1.407033 A    
O4    C2    1.317132 A    
C14   Br6   1.915757 S    
C26   C28   1.420480 A    
C20   C22   1.414075 A    
O3    C1    1.317044 A    
O5    Cu1   1.983746 S    
C13   C15   1.406889 A    
O1    Cu1   2.004045 S    
Cu1   N1    2.042621 S    
C23   Br7   1.931884 S    
C17   I5    2.151324 S    
C25   C27   1.420613 A    
O4    Cu1   2.003601 S    
C5    C7    1.407138 A    
C31   N1    1.360763 A    
O6    Cu2   1.983745 S    
Cu2   N2    2.042621 S    
C7    C9    1.407445 A    
C17   C22   1.407808 A    
Cu1   Cu2   2.718097 S    
C10   C21   1.481115 S    
C18   C21   1.407906 A    
C29   C31   1.420790 A    
C3    C20   1.470814 S    
C14   C16   1.407287 A    
C30   C32   1.420745 A    
C26   I8    2.155609 S    
O8    Cu1   1.994685 S    
