data_mof_unit_54959.cif
_audit_creation_date              2012-12-11T15:12:46-0500
_audit_creation_method            fapswitch 2.2
_symmetry_space_group_name_H-M    P1
_symmetry_Int_Tables_number       1
_space_group_crystal_system       triclinic
_cell_length_a                    22.378115
_cell_length_b                    6.955652
_cell_length_c                    19.37583
_cell_angle_alpha                 89.99847
_cell_angle_beta                  99.118795
_cell_angle_gamma                 89.999943
_cell_volume                      2977.81706742

loop_
_atom_site_label
_atom_site_type_symbol
_atom_type_description
_atom_site_fract_x
_atom_site_fract_y
_atom_site_fract_z
_atom_type_partial_charge
O1    O     O_R   0.448420 0.506120 0.415750 -0.535585
O2    O     O_R   0.551580 0.006120 0.584250 -0.535561
O3    O     O_R   0.436490 0.174470 0.555610 -0.541133
O4    O     O_R   0.563510 0.674470 0.444390 -0.541147
C1    C     C_R   0.421373 0.344641 0.576036 0.792331
C2    C     C_R   0.578627 0.844644 0.423965 0.792302
O5    O     O_R   0.441310 0.176330 0.414520 -0.540732
O6    O     O_R   0.558690 0.676330 0.585480 -0.540746
O7    O     O_R   0.556430 0.007110 0.442150 -0.526377
O8    O     O_R   0.443570 0.507110 0.557850 -0.526395
C3    C     C_R   0.426709 0.345180 0.388549 0.910303
C4    C     C_R   0.573292 0.845175 0.611451 0.910283
O9    O     O_3   0.537770 0.339560 0.509230 -0.379123
O10   O     O_3   0.462230 0.839560 0.490770 -0.379136
V1    V     V_3+5 0.492990 0.064280 0.498290 1.597033
V2    V     V_3+5 0.507010 0.564280 0.501710 1.596996
C5    C     C_R   0.867811 0.995358 0.696066 0.251703
C6    C     C_R   0.132178 0.495129 0.303942 0.251708
H1    H     H_    0.953481 0.033194 0.763153 0.146284
H2    H     H_    0.046505 0.532959 0.236859 0.146294
H3    H     H_    0.784853 0.977704 0.580310 0.199542
H4    H     H_    0.215132 0.477375 0.419699 0.199545
C7    C     C_R   0.884779 0.942912 0.821478 -0.173853
C8    C     C_R   0.115220 0.442884 0.178521 -0.173851
C9    C     C_R   0.589802 0.834041 0.739678 0.554044
C10   C     C_R   0.410206 0.334201 0.260320 0.554043
C11   C     C_R   0.625752 0.849991 0.805456 0.136985
C12   C     C_R   0.374258 0.350215 0.194544 0.136980
C13   C     C_R   0.687977 0.880022 0.810346 -0.132046
C14   C     C_R   0.312029 0.380184 0.189654 -0.132028
C15   C     C_R   0.716843 0.888060 0.750529 -0.006908
C16   C     C_R   0.283159 0.388094 0.249469 -0.006911
C17   C     C_R   0.679139 0.883098 0.683351 -0.137824
C18   C     C_R   0.320861 0.383059 0.316649 -0.137825
C19   C     C_R   0.781443 0.911523 0.755358 -0.047250
C20   C     C_R   0.218557 0.411502 0.244640 -0.047257
C21   C     C_R   0.805558 0.952502 0.693111 -0.048627
C22   C     C_R   0.194435 0.452344 0.306893 -0.048628
C23   C     C_R   0.767348 0.950366 0.628377 -0.164475
C24   C     C_R   0.232643 0.450139 0.371629 -0.164463
C25   C     C_R   0.706005 0.911608 0.623083 0.589712
C26   C     C_R   0.293989 0.411440 0.376919 0.589711
C27   C     C_R   0.823434 0.895043 0.819072 0.559820
C28   C     C_R   0.176570 0.395091 0.180921 0.559826
C29   C     C_R   0.906133 0.995929 0.760553 -0.290420
C30   C     C_R   0.093857 0.495760 0.239454 -0.290461
C31   C     C_R   0.615383 0.853726 0.678625 -0.244124
C32   C     C_R   0.384619 0.353753 0.321375 -0.244128
H5    H     H_    0.711816 0.905815 0.862143 0.234965
H6    H     H_    0.288192 0.406034 0.137860 0.234972
C33   C     C_3   0.812308 0.772097 0.267487 0.489414
C34   C     C_3   0.187689 0.272115 0.732513 0.489399
C35   C     C_3   0.780408 0.112052 0.239860 0.311083
C36   C     C_3   0.219596 0.612062 0.760137 0.311097
C37   C     C_3   0.729128 0.101013 0.286600 0.671292
C38   C     C_3   0.270879 0.601014 0.713401 0.671280
H7    H     H_    0.856182 0.824247 0.296559 0.140718
H8    H     H_    0.143817 0.324272 0.703441 0.140716
H9    H     H_    0.769286 0.221494 0.198034 0.148288
H10   H     H_    0.230718 0.721502 0.801961 0.148310
C39   C     C_1   0.624285 0.855164 0.378538 -0.080735
C40   C     C_1   0.375715 0.355154 0.621463 -0.080721
C41   C     C_3   0.790231 0.913207 0.206165 -0.294297
C42   C     C_3   0.209769 0.413216 0.793834 -0.294306
C43   C     C_3   0.764081 0.755193 0.317619 -0.135232
C44   C     C_3   0.235916 0.255208 0.682381 -0.135211
C45   C     C_3   0.708021 0.886662 0.292095 -0.183294
C46   C     C_3   0.291980 0.386656 0.707907 -0.183313
C47   C     C_3   0.680847 0.815921 0.217155 0.350468
C48   C     C_3   0.319151 0.315900 0.782847 0.350466
C49   C     C_3   0.728020 0.836777 0.165591 0.634488
C50   C     C_3   0.271978 0.336770 0.834410 0.634507
C51   C     C_1   0.662036 0.867806 0.339989 0.207930
C52   C     C_1   0.337965 0.367794 0.660013 0.207898
C53   C     C_1   0.837048 0.928515 0.159227 0.188817
C54   C     C_1   0.162951 0.428528 0.840771 0.188814
C55   C     C_1   0.875196 0.939578 0.121102 -0.116447
C56   C     C_1   0.124804 0.439588 0.878897 -0.116433
H11   H     H_    0.668234 0.662416 0.220110 0.131551
H12   H     H_    0.331758 0.162390 0.779894 0.131554
H13   H     H_    0.747642 0.604016 0.315888 0.209668
H14   H     H_    0.252351 0.104027 0.684109 0.209675
O11   O     O_R   0.056480 0.288780 0.942210 -0.530589
O12   O     O_R   0.943520 0.788780 0.057790 -0.530587
O13   O     O_R   0.058700 0.616820 0.085490 -0.547984
O14   O     O_R   0.941300 0.116820 0.914510 -0.547992
C57   C     C_R   0.073070 0.448503 0.111685 0.792368
C58   C     C_R   0.926929 0.948508 0.888315 0.792347
O15   O     O_R   0.063520 0.618570 0.944410 -0.538368
O16   O     O_R   0.936480 0.118570 0.055590 -0.538370
O17   O     O_R   0.948420 0.787670 0.915740 -0.529015
O18   O     O_R   0.051580 0.287670 0.084260 -0.529036
C59   C     C_R   0.078929 0.449785 0.924097 0.725211
C60   C     C_R   0.921071 0.949782 0.075903 0.725192
O19   O     O_3   0.962260 0.453430 0.990800 -0.368231
O20   O     O_3   0.037740 0.953430 0.009200 -0.368239
V3    V     V_3+5 0.007000 0.728750 0.001710 1.543860
V4    V     V_3+5 0.993000 0.228750 0.998290 1.543838
F1    F     F_    0.834053 0.173757 0.279686 -0.592525
F2    F     F_    0.165954 0.673777 0.720307 -0.592532
F3    F     F_    0.750854 0.172015 0.352848 -0.619098
F4    F     F_    0.249160 0.672034 0.647153 -0.619094
N1    N     N_3   0.677952 0.222021 0.256246 -0.605913
H15   H     H_    0.693866 0.361343 0.251467 0.227036
H16   H     H_    0.647191 0.231072 0.291506 0.276077
N2    N     N_3   0.322055 0.722005 0.743762 -0.605952
H17   H     H_    0.306149 0.861354 0.748497 0.227042
H18   H     H_    0.352841 0.730955 0.708528 0.276099
F5    F     F_    0.737085 0.655961 0.138694 -0.608635
F6    F     F_    0.262908 0.155958 0.861310 -0.608621
N3    N     N_3   0.703575 0.960105 0.106079 -0.522585
H19   H     H_    0.734841 0.971165 0.071523 0.241918
H20   H     H_    0.694494 0.098304 0.122658 0.242934
N4    N     N_3   0.296425 0.460093 0.893920 -0.522588
H21   H     H_    0.265159 0.471162 0.928475 0.241928
H22   H     H_    0.305509 0.598289 0.877339 0.242942
F7    F     F_    0.823763 0.591735 0.242031 -0.597194
F8    F     F_    0.176233 0.091752 0.757971 -0.597193
F9    F     F_    0.627119 0.910740 0.192392 -0.606511
F10   F     F_    0.372882 0.410695 0.807611 -0.606529
N5    N     N_3   0.891849 0.041090 0.633417 -0.637856
H23   H     H_    0.893980 0.912925 0.605715 0.238992
H24   H     H_    0.936266 0.091832 0.645532 0.247554
N6    N     N_3   0.108133 0.540718 0.366597 -0.637862
H25   H     H_    0.106004 0.412496 0.394269 0.238988
H26   H     H_    0.063715 0.591455 0.354490 0.247566
F11   F     F_    0.807313 0.823347 0.878536 -0.707814
F12   F     F_    0.192701 0.323522 0.121445 -0.707822
F13   F     F_    0.529174 0.804795 0.734745 -0.684386
F14   F     F_    0.470837 0.305024 0.265253 -0.684381
N7    N     N_3   0.599904 0.841014 0.868710 -0.580712
H27   H     H_    0.552877 0.826762 0.857866 0.315435
H28   H     H_    0.616400 0.716601 0.895468 0.262455
N8    N     N_3   0.400110 0.341372 0.131291 -0.580724
H29   H     H_    0.447139 0.327181 0.142136 0.315433
H30   H     H_    0.383633 0.216970 0.104514 0.262474
F15   F     F_    0.673255 0.908364 0.557901 -0.712604
F16   F     F_    0.326736 0.408120 0.442103 -0.712617
N9    N     N_3   0.790497 0.794912 0.390565 -0.570449
H31   H     H_    0.818253 0.916352 0.393507 0.305957
H32   H     H_    0.818627 0.679679 0.408941 0.262814
N10   N     N_3   0.209501 0.294952 0.609435 -0.570433
H33   H     H_    0.181749 0.416400 0.606496 0.305966
H34   H     H_    0.181369 0.179731 0.591058 0.262804

loop_
_geom_bond_atom_site_label_1
_geom_bond_atom_site_label_2
_ccdc_geom_bond_type
C44   C46   S    
C7    C29   A    
C50   N4    S    
C11   C13   A    
C11   N7    S    
C35   C37   S    
N3    H19   S    
C18   C26   A    
C9    F13   S    
C2    O7    A    
N4    H21   S    
C35   H9    S    
O19   V4    S    
O18   V4    S    
C23   C25   A    
C36   H10   S    
C35   F1    S    
O5    C3    A    
C41   C53   S    
C12   N8    S    
O12   V3    S    
C16   C20   A    
C2    C39   S    
C19   C21   A    
C5    C29   A    
C47   H11   S    
O14   C58   A    
C26   F16   S    
N2    H17   S    
C56   C59   S    
C46   C52   S    
O11   C59   A    
C37   N1    S    
C55   C60   S    
C7    C27   A    
C33   C43   S    
C47   C49   S    
C35   C41   S    
C48   F10   S    
C43   C45   S    
O11   V4    S    
C49   N3    S    
C15   C17   A    
C45   C51   S    
C19   C27   A    
C9    C31   A    
C25   F15   S    
C10   F14   S    
C10   C32   A    
C24   C26   A    
C14   H6    S    
O2    C4    A    
O6    V2    S    
C22   C24   A    
C57   O18   A    
C36   F2    S    
C3    C32   S    
C4    C31   S    
C6    C30   A    
O16   C60   A    
C50   F6    S    
O13   C57   A    
C36   C38   S    
C48   H12   S    
C33   C41   S    
N3    H20   S    
C34   C42   S    
C27   F11   S    
C13   H5    S    
O5    V1    S    
C39   C51   T    
C38   C46   S    
C47   F9    S    
O20   V4    S    
N4    H22   S    
C45   C47   S    
C16   C18   A    
O4    V2    S    
N8    H30   S    
C44   H14   S    
C43   H13   S    
H3    C23   S    
C58   O17   A    
O6    C4    A    
H4    C24   S    
O20   V3    S    
H1    C29   S    
C42   C54   S    
N1    H16   S    
O1    V2    S    
O12   C60   A    
O17   V3    S    
O2    V1    S    
C53   C55   T    
C38   N2    S    
N5    H23   S    
C34   H8    S    
C33   H7    S    
C5    N5    S    
C41   C49   S    
C7    C58   S    
O9    V1    S    
C17   C31   A    
O10   V2    S    
C20   C28   A    
O4    C2    A    
C18   C32   A    
C5    C21   A    
N7    H27   S    
O3    C1    A    
O3    V1    S    
N6    H26   S    
C28   F12   S    
N10   H33   S    
C54   C56   T    
N7    H28   S    
C37   C45   S    
N9    H31   S    
O19   V3    S    
N8    H29   S    
C44   N10   S    
C9    C11   A    
C37   F3    S    
C10   C12   A    
C8    C30   A    
C12   C14   A    
C6    C22   A    
C17   C25   A    
C1    O8    A    
C21   C23   A    
O8    V2    S    
C14   C16   A    
N9    H32   S    
N2    H18   S    
C8    C28   A    
C49   F5    S    
C15   C19   A    
C20   C22   A    
C33   F7    S    
C1    C40   S    
N10   H34   S    
C42   C50   S    
O15   C59   A    
O14   V4    S    
C8    C57   S    
N5    H24   S    
O13   V3    S    
C38   F4    S    
C43   N9    S    
C34   C44   S    
C36   C42   S    
C13   C15   A    
O9    V2    S    
O15   V3    S    
N1    H15   S    
C46   C48   S    
O10   V1    S    
C40   C52   T    
C48   C50   S    
O1    C3    A    
O16   V4    S    
H2    C30   S    
O7    V1    S    
C6    N6    S    
N6    H25   S    
C34   F8    S    
