data_mof_unit_35669.cif
_audit_creation_date              2012-12-10T17:33:48-0500
_audit_creation_method            fapswitch 2.2
_symmetry_space_group_name_H-M    P1
_symmetry_Int_Tables_number       1
_space_group_crystal_system       triclinic
_cell_length_a                    10.75609
_cell_length_b                    12.119238
_cell_length_c                    12.920416
_cell_angle_alpha                 93.353193
_cell_angle_beta                  91.3479
_cell_angle_gamma                 87.7597
_cell_volume                      1679.69934062

loop_
_atom_site_label
_atom_site_type_symbol
_atom_type_description
_atom_site_fract_x
_atom_site_fract_y
_atom_site_fract_z
_atom_type_partial_charge
C1    C     C_R   0.499303 0.521444 0.701466 0.932940
C2    C     C_R   0.569939 0.449533 0.978690 0.020653
C3    C     C_R   0.548378 0.554014 0.030645 0.016694
C4    C     C_R   0.740994 0.501588 0.496258 0.919723
C5    C     C_R   0.543955 0.560211 0.137614 -0.312620
C6    C     C_R   0.572911 0.360358 0.142341 0.139889
C7    C     C_R   0.602450 0.356453 0.037127 0.196050
C8    C     C_R   0.364046 0.948866 0.414765 0.011447
C9    C     C_R   0.382637 0.834530 0.421766 -0.055649
C10   C     C_R   0.557869 0.860576 0.534987 0.306441
C11   C     C_R   0.551099 0.975935 0.520563 -0.042270
C12   C     C_3   0.119498 0.501751 0.504063 -0.116299
C13   C     C_R   0.449762 0.022748 0.466074 0.018840
C14   C     C_R   0.440024 0.140610 0.464911 0.122689
C15   C     C_R   0.626504 0.160104 0.566226 0.350714
C16   C     C_R   0.509752 0.477907 0.300369 0.915269
C17   C     C_R   0.644682 0.044768 0.558892 -0.296803
C18   C     C_R   0.257574 0.499798 0.502873 0.908045
C19   C     C_3   0.924778 0.460210 0.600927 -0.195676
C20   C     C_3   0.069737 0.436765 0.598283 0.313010
C21   C     C_3   0.929249 0.429933 0.404300 -0.159282
C22   C     C_3   0.920939 0.628372 0.489245 0.040624
C23   C     C_3   0.069790 0.450245 0.395895 -0.015306
C24   C     C_3   0.876400 0.506471 0.495875 -0.037164
C25   C     C_3   0.674591 0.219709 0.246884 -0.746788
C26   C     C_3   0.799402 0.281065 0.974632 -0.850424
C27   C     C_3   0.310249 0.739098 0.821905 -0.765852
C28   C     C_3   0.433381 0.266015 0.842607 -0.738788
C29   C     C_3   0.807411 0.177164 0.689569 -0.952723
C30   C     C_3   0.662486 0.866480 0.709634 -0.859487
C31   C     C_3   0.129197 0.397229 0.783282 -0.838398
C32   C     C_3   0.172661 0.346746 0.249575 -0.838695
C33   C     C_3   0.892706 0.793437 0.383757 -0.829892
C34   C     C_3   0.064605 0.627365 0.507153 -0.042009
C35   C     C_3   0.074672 0.811927 0.601374 -0.829115
C36   C     C_R   0.540742 0.464236 0.191705 -0.123527
C37   C     C_R   0.512366 0.532942 0.815542 -0.193934
C38   C     C_R   0.519333 0.648827 0.975495 0.049825
C39   C     C_R   0.496667 0.637684 0.868775 0.162161
C40   C     C_R   0.546195 0.438164 0.871532 0.109877
H1    H     H_    0.881407 0.379822 0.608314 0.192237
H2    H     H_    0.896606 0.507410 0.264786 0.201332
H3    H     H_    0.517928 0.198898 0.151168 0.203809
H4    H     H_    0.655158 0.141536 0.283125 0.228105
H5    H     H_    0.703658 0.279905 0.309622 0.278129
H6    H     H_    0.751561 0.203250 0.191840 0.220914
H7    H     H_    0.427343 0.757078 0.076416 0.186678
H8    H     H_    0.583951 0.775304 0.069871 0.183322
H9    H     H_    0.656026 0.187667 0.022766 0.230145
H10   H     H_    0.843654 0.205731 0.936052 0.243156
H11   H     H_    0.848978 0.299765 0.049654 0.242750
H12   H     H_    0.105793 0.667578 0.441259 0.182176
H13   H     H_    0.808666 0.350876 0.923640 0.243855
H14   H     H_    0.481936 0.804178 0.841827 0.245025
H15   H     H_    0.275867 0.805962 0.772614 0.235007
H16   H     H_    0.280368 0.759757 0.902706 0.234684
H17   H     H_    0.269549 0.660160 0.793790 0.232118
H18   H     H_    0.622616 0.286013 0.811855 0.261565
H19   H     H_    0.362472 0.316068 0.887844 0.232344
H20   H     H_    0.462963 0.193415 0.886938 0.220110
H21   H     H_    0.391262 0.235395 0.767694 0.237895
H22   H     H_    0.277550 0.221816 0.459952 0.214928
H23   H     H_    0.081498 0.514508 0.338878 0.160408
H24   H     H_    0.374917 0.248454 0.361800 0.271060
H25   H     H_    0.880988 0.488885 0.757032 0.191059
H26   H     H_    0.929029 0.603424 0.702105 0.220939
H27   H     H_    0.681171 0.301471 0.650146 0.278107
H28   H     H_    0.858484 0.242698 0.734309 0.240094
H29   H     H_    0.876811 0.125196 0.644618 0.257941
H30   H     H_    0.760770 0.127328 0.745725 0.263155
H31   H     H_    0.287233 0.027614 0.292375 0.210493
H32   H     H_    0.197626 0.033441 0.401780 0.198943
H33   H     H_    0.649060 0.731974 0.609024 0.298711
H34   H     H_    0.529693 0.639798 0.178559 0.184382
H35   H     H_    0.667503 0.802094 0.767399 0.240566
H36   H     H_    0.584543 0.926540 0.728931 0.255695
H37   H     H_    0.752696 0.907643 0.718050 0.242708
H38   H     H_    0.120407 0.550608 0.723290 0.224182
H39   H     H_    0.167415 0.439942 0.854851 0.239576
H40   H     H_    0.187475 0.321337 0.767121 0.246987
H41   H     H_    0.033362 0.372993 0.798087 0.233915
H42   H     H_    0.041641 0.269885 0.622357 0.180062
H43   H     H_    0.186005 0.295792 0.594869 0.212607
H44   H     H_    0.100851 0.276567 0.377075 0.244853
H45   H     H_    0.732478 0.008179 0.582983 0.193322
H46   H     H_    0.220014 0.266063 0.227544 0.240782
H47   H     H_    0.238009 0.413436 0.237825 0.243620
H48   H     H_    0.089356 0.356884 0.198157 0.236083
H49   H     H_    0.802458 0.649040 0.357631 0.266861
H50   H     H_    0.860577 0.817205 0.305517 0.239369
H51   H     H_    0.989801 0.819655 0.394746 0.256619
H52   H     H_    0.831637 0.837668 0.442018 0.248688
H53   H     H_    0.187476 0.677345 0.628308 0.261467
H54   H     H_    0.100604 0.851056 0.678131 0.233624
H55   H     H_    0.974740 0.833190 0.588743 0.255277
H56   H     H_    0.319093 0.778660 0.381723 0.156707
H57   H     H_    0.131035 0.847639 0.541498 0.248270
H58   H     H_    0.916414 0.343190 0.425214 0.178906
H59   H     H_    0.874225 0.680281 0.551598 0.190913
H60   H     H_    0.878307 0.372110 0.257537 0.189560
N1    N     N_R   0.523380 0.207800 0.519350 -0.155422
N2    N     N_3   0.879083 0.531854 0.689352 -0.492957
N3    N     N_2   0.716350 0.227203 0.620141 -0.288126
N4    N     N_3   0.257948 0.984451 0.354547 -0.483686
N5    N     N_2   0.648772 0.815354 0.605563 -0.317467
N6    N     N_2   0.132052 0.469637 0.697584 -0.303350
N7    N     N_3   0.093972 0.316888 0.575403 -0.485853
N8    N     N_2   0.136966 0.349819 0.357289 -0.285117
N9    N     N_2   0.885542 0.674891 0.389846 -0.313997
N10   N     N_2   0.098315 0.693219 0.601591 -0.321641
N11   N     N_R   0.476620 0.792180 0.480650 -0.151257
N12   N     N_3   0.861692 0.443629 0.305113 -0.481094
N13   N     N_2   0.563155 0.260168 0.194146 -0.296720
N14   N     N_3   0.503003 0.756685 0.027051 -0.484542
N15   N     N_2   0.669574 0.262523 0.991875 -0.313413
N16   N     N_2   0.444186 0.730023 0.817628 -0.264532
N17   N     N_2   0.540016 0.330065 0.822153 -0.263445
N18   N     N_3   0.341267 0.188855 0.406946 -0.486062
O1    O     O_R   0.506240 0.421700 0.658830 -0.616977
O2    O     O_R   0.491240 0.609310 0.646410 -0.606100
O3    O     O_R   0.692710 0.406190 0.506230 -0.643919
O4    O     O_R   0.677700 0.593810 0.493810 -0.670518
O5    O     O_R   0.508760 0.390690 0.353590 -0.605845
O6    O     O_R   0.493760 0.578300 0.341170 -0.638510
O7    O     O_R   0.322300 0.406190 0.506190 -0.612076
O8    O     O_R   0.307290 0.593810 0.493770 -0.652196
Zn1   Zn    Zn3+2 0.510020 0.374730 0.508290 0.929303
Zn2   Zn    Zn3+2 0.489980 0.625270 0.491710 0.924535

loop_
_geom_bond_atom_site_label_1
_geom_bond_atom_site_label_2
_ccdc_geom_bond_type
C9    N11   A    
H7    N14   S    
H31   N4    S    
C8    C13   A    
C30   H35   S    
H26   N2    S    
C19   C20   S    
H27   N3    S    
C31   H40   S    
C12   C23   S    
C16   C36   S    
C17   H45   S    
C16   O5    A    
O3    Zn1   S    
C37   C40   A    
C28   N17   S    
C33   H51   S    
C18   O7    A    
C38   C39   A    
C38   N14   S    
C19   N2    S    
C27   H15   S    
C35   H54   S    
C32   H48   S    
C5    C36   A    
H49   N9    S    
H24   N18   S    
C29   N3    S    
C1    O1    A    
C7    N15   S    
C5    H34   S    
H2    N12   S    
C26   N15   S    
N1    Zn1   S    
C30   H37   S    
H33   N5    S    
C2    C7    A    
C3    C38   A    
C6    C36   A    
C8    C9    A    
C14   N18   S    
H14   N16   S    
C20   N6    S    
C1    C37   S    
H53   N10   S    
O6    Zn2   S    
C20   N7    S    
C27   N16   S    
C23   H23   S    
C40   N17   S    
C13   C14   A    
H25   N2    S    
C25   H4    S    
C29   H29   S    
C28   H20   S    
C22   C34   S    
C27   H17   S    
C33   H52   S    
C27   H16   S    
C14   N1    A    
H32   N4    S    
C32   H47   S    
H18   N17   S    
C1    O2    A    
C6    N13   S    
C25   N13   S    
C29   H28   S    
C30   H36   S    
O5    Zn1   S    
C22   N9    S    
C32   H46   S    
C12   C20   S    
C4    O4    A    
C10   N11   A    
H42   N7    S    
C15   N1    A    
C8    N4    S    
C9    H56   S    
C35   N10   S    
H9    N15   S    
H60   N12   S    
H3    N13   S    
C21   C23   S    
C30   N5    S    
C34   N10   S    
C31   N6    S    
C22   C24   S    
C33   N9    S    
C12   C34   S    
C26   H13   S    
C25   H5    S    
C21   N12   S    
H8    N14   S    
C29   H30   S    
C28   H19   S    
C15   C17   A    
C11   C17   A    
O8    Zn2   S    
C22   H59   S    
C3    C5    A    
O2    Zn2   S    
C31   H39   S    
C6    C7    A    
C35   H55   S    
C34   H12   S    
C31   H41   S    
H38   N6    S    
C26   H10   S    
C2    C3    A    
C16   O6    A    
C37   C39   A    
C35   H57   S    
C26   H11   S    
C28   H21   S    
C21   H58   S    
C11   C13   A    
C4    C24   S    
C23   N8    S    
H44   N8    S    
H43   N7    S    
C4    O3    A    
C19   C24   S    
O4    Zn2   S    
H22   N18   S    
C10   C11   A    
C2    C40   A    
C39   N16   S    
C32   N8    S    
C21   C24   S    
C12   C18   S    
N11   Zn2   S    
O7    Zn1   S    
C10   N5    S    
C15   N3    S    
C33   H50   S    
C25   H6    S    
C18   O8    A    
C19   H1    S    
O1    Zn1   S    
