data_mof_unit_64154.cif
_audit_creation_date              2012-12-11T15:08:30-0500
_audit_creation_method            fapswitch 2.2
_symmetry_space_group_name_H-M    P1
_symmetry_Int_Tables_number       1
_space_group_crystal_system       triclinic
_cell_length_a                    26.821555
_cell_length_b                    7.102266
_cell_length_c                    11.901733
_cell_angle_alpha                 89.999939
_cell_angle_beta                  103.533601
_cell_angle_gamma                 90.000018
_cell_volume                      2204.25269613

loop_
_atom_site_label
_atom_site_type_symbol
_atom_type_description
_atom_site_fract_x
_atom_site_fract_y
_atom_site_fract_z
_atom_type_partial_charge
O1    O     O_R   0.437360 0.505910 0.042120 -0.537559
O2    O     O_R   0.562640 0.005910 0.957880 -0.537559
O3    O     O_R   0.542480 0.176660 0.157100 -0.536069
O4    O     O_R   0.457520 0.676660 0.842900 -0.536068
C1    C     C_R   0.556540 0.345623 0.199140 0.874649
C2    C     C_R   0.443460 0.845623 0.800859 0.874648
O5    O     O_R   0.436520 0.176250 0.054800 -0.532534
O6    O     O_R   0.563480 0.676250 0.945200 -0.532533
O7    O     O_R   0.455920 0.005040 0.854840 -0.535371
O8    O     O_R   0.544080 0.505040 0.145160 -0.535371
C3    C     C_R   0.417400 0.344123 0.063997 0.750980
C4    C     C_R   0.582600 0.844123 0.936003 0.750980
O9    O     O_3   0.506490 0.338900 0.934520 -0.382979
O10   O     O_3   0.493510 0.838900 0.065480 -0.382979
V1    V     V_3+5 0.498800 0.064400 0.012150 1.617486
V2    V     V_3+5 0.501200 0.564400 0.987850 1.617487
C5    C     C_R   0.680182 0.867119 0.750390 -0.196333
C6    C     C_R   0.319818 0.367121 0.249610 -0.196333
H1    H     H_    0.679340 0.884998 0.659954 0.168600
H2    H     H_    0.320660 0.385000 0.340045 0.168600
C7    C     C_R   0.631481 0.848359 0.898358 -0.013769
C8    C     C_R   0.368519 0.348359 0.101641 -0.013770
C9    C     C_R   0.866129 0.786586 0.207304 -0.044692
C10   C     C_R   0.133870 0.286585 0.792696 -0.044691
C11   C     C_R   0.819520 0.746102 0.234467 -0.178070
C12   C     C_R   0.180480 0.246102 0.765533 -0.178072
C13   C     C_R   0.773825 0.758674 0.151380 -0.146767
C14   C     C_R   0.226175 0.258674 0.848620 -0.146766
C15   C     C_R   0.772706 0.818669 0.037934 0.108636
C16   C     C_R   0.227294 0.318670 0.962066 0.108636
C17   C     C_R   0.820204 0.851140 0.007555 0.082963
C18   C     C_R   0.179795 0.351141 0.992445 0.082963
C19   C     C_R   0.725763 0.836726 0.952591 0.109965
C20   C     C_R   0.274237 0.336727 0.047409 0.109965
C21   C     C_R   0.727010 0.855160 0.834117 0.175240
C22   C     C_R   0.272989 0.355162 0.165883 0.175240
C23   C     C_R   0.775063 0.862189 0.803159 -0.023187
C24   C     C_R   0.224937 0.362191 0.196841 -0.023187
C25   C     C_R   0.820274 0.872111 0.890174 -0.275655
C26   C     C_R   0.179726 0.372113 0.109825 -0.275655
C27   C     C_R   0.677553 0.839392 0.982418 -0.162879
C28   C     C_R   0.322447 0.339392 0.017582 -0.162879
C29   C     C_R   0.632949 0.854237 0.780857 -0.092975
C30   C     C_R   0.367051 0.354238 0.219143 -0.092975
C31   C     C_R   0.867098 0.846118 0.094070 -0.073857
C32   C     C_R   0.132902 0.346118 0.905930 -0.073857
H3    H     H_    0.674547 0.836809 0.071154 0.109429
H4    H     H_    0.325452 0.336809 0.928846 0.109428
H5    H     H_    0.739927 0.711359 0.177096 0.162124
H6    H     H_    0.260073 0.211360 0.822905 0.162123
H7    H     H_    0.818606 0.695677 0.319992 0.143871
H8    H     H_    0.181394 0.195676 0.680008 0.143871
H9    H     H_    0.856216 0.886981 0.864323 0.096918
H10   H     H_    0.143784 0.386982 0.135676 0.096917
C33   C     C_R   0.094245 0.858875 0.311013 -0.165079
C34   C     C_R   0.905755 0.358875 0.688987 -0.165079
C35   C     C_R   0.410316 0.858395 0.682440 -0.271192
C36   C     C_R   0.589684 0.358394 0.317559 -0.271192
C37   C     C_R   0.113197 0.765984 0.512410 -0.129704
C38   C     C_R   0.886803 0.265986 0.487590 -0.129706
C39   C     C_R   0.077744 0.808361 0.409388 0.558360
C40   C     C_R   0.922256 0.308363 0.590611 0.558360
C41   C     C_R   0.146551 0.887509 0.318989 -0.345826
C42   C     C_R   0.853449 0.387507 0.681011 -0.345826
C43   C     C_R   0.184234 0.821179 0.415350 0.062808
C44   C     C_R   0.815766 0.321177 0.584650 0.062809
C45   C     C_R   0.166258 0.758087 0.512981 0.034188
C46   C     C_R   0.833741 0.258086 0.487019 0.034188
C47   C     C_R   0.238834 0.816664 0.420121 -0.011730
C48   C     C_R   0.761165 0.316662 0.579879 -0.011731
C49   C     C_R   0.272743 0.772180 0.528271 0.096144
C50   C     C_R   0.727257 0.272178 0.471729 0.096143
C51   C     C_R   0.252921 0.671049 0.610438 0.036268
C52   C     C_R   0.747079 0.171049 0.389561 0.036268
C53   C     C_R   0.200854 0.674125 0.605387 -0.211755
C54   C     C_R   0.799146 0.174124 0.394613 -0.211755
C55   C     C_R   0.261446 0.843112 0.322961 -0.020695
C56   C     C_R   0.738554 0.343110 0.677039 -0.020695
C57   C     C_R   0.315764 0.861075 0.340574 -0.007237
C58   C     C_R   0.684236 0.361074 0.659426 -0.007237
C59   C     C_R   0.347131 0.863680 0.454609 -0.133536
C60   C     C_R   0.652869 0.363679 0.545391 -0.133536
C61   C     C_R   0.325561 0.821262 0.549432 0.026439
C62   C     C_R   0.674439 0.321261 0.450568 0.026438
C63   C     C_R   0.400135 0.904580 0.476710 -0.253269
C64   C     C_R   0.599865 0.404581 0.523289 -0.253269
C65   C     C_R   0.430839 0.905075 0.588633 0.615310
C66   C     C_R   0.569161 0.405076 0.411367 0.615311
C67   C     C_R   0.357274 0.835074 0.663728 0.509975
C68   C     C_R   0.642726 0.335074 0.336272 0.509974
H11   H     H_    0.187307 0.598994 0.671349 0.154700
H12   H     H_    0.812693 0.098995 0.328651 0.154700
H13   H     H_    0.155991 0.962646 0.248399 0.151900
H14   H     H_    0.844008 0.462643 0.751602 0.151899
H15   H     H_    0.418938 0.938602 0.408657 0.183786
H16   H     H_    0.581062 0.438605 0.591342 0.183786
O11   O     O_R   0.955980 0.206520 0.854760 -0.533543
O12   O     O_R   0.044020 0.706520 0.145240 -0.533543
O13   O     O_R   0.063490 0.536770 0.945200 -0.541621
O14   O     O_R   0.936510 0.036770 0.054800 -0.541621
C69   C     C_R   0.082930 0.366837 0.937885 0.726543
C70   C     C_R   0.917069 0.866837 0.062115 0.726542
O15   O     O_R   0.957530 0.536190 0.842880 -0.548698
O16   O     O_R   0.042470 0.036190 0.157120 -0.548698
O17   O     O_R   0.937350 0.707210 0.042130 -0.518997
O18   O     O_R   0.062650 0.207210 0.957870 -0.518997
C71   C     C_R   0.942395 0.368347 0.802550 0.793258
C72   C     C_R   0.057605 0.868346 0.197450 0.793257
O19   O     O_3   0.993540 0.373870 0.065440 -0.368834
O20   O     O_3   0.006460 0.873870 0.934560 -0.368834
V3    V     V_3+5 0.001200 0.648440 0.987860 1.562674
V4    V     V_3+5 0.998800 0.148440 0.012140 1.562673
C73   C     C_2   0.586441 0.834767 0.686776 0.416551
H17   H     H_    0.584843 0.898760 0.603153 0.111873
O21   O     O_2   0.550966 0.735639 0.699179 -0.507280
C74   C     C_2   0.413559 0.334769 0.313223 0.416552
H18   H     H_    0.415156 0.398761 0.396846 0.111872
O22   O     O_2   0.449034 0.235642 0.300822 -0.507280
F1    F     F_    0.336651 0.846677 0.757527 -0.702058
F2    F     F_    0.663349 0.346678 0.242473 -0.702058
F3    F     F_    0.479917 0.964309 0.605267 -0.653343
F4    F     F_    0.520083 0.464310 0.394732 -0.653343
C75   C     C_2   0.340229 0.872289 0.239993 0.444073
H19   H     H_    0.370327 0.972466 0.238798 0.062943
O23   O     O_2   0.327684 0.765972 0.157707 -0.510500
C76   C     C_2   0.659771 0.372287 0.760007 0.444073
H20   H     H_    0.629672 0.472464 0.761201 0.062943
O24   O     O_2   0.672316 0.265970 0.842293 -0.510501
C77   C     C_2   0.092846 0.730791 0.616633 0.402573
H21   H     H_    0.054476 0.674296 0.607156 0.136661
O25   O     O_2   0.117323 0.773703 0.713173 -0.523865
C78   C     C_2   0.907154 0.230794 0.383367 0.402575
H22   H     H_    0.945524 0.174301 0.392844 0.136660
O26   O     O_2   0.882677 0.273705 0.286826 -0.523865
F5    F     F_    0.027039 0.811337 0.406932 -0.687131
F6    F     F_    0.972961 0.311341 0.593067 -0.687131
C79   C     C_2   0.284288 0.539521 0.694258 0.477370
H23   H     H_    0.277847 0.530327 0.780341 0.058226
O27   O     O_2   0.317286 0.442160 0.667740 -0.526414
C80   C     C_2   0.715712 0.039522 0.305741 0.477368
H24   H     H_    0.722153 0.030330 0.219658 0.058229
O28   O     O_2   0.682714 0.942160 0.332258 -0.526415
C81   C     C_2   0.229883 0.830195 0.202523 0.431384
H25   H     H_    0.199046 0.729016 0.181158 0.024082
O29   O     O_2   0.236284 0.937571 0.127125 -0.506557
C82   C     C_2   0.770117 0.330193 0.797477 0.431385
H26   H     H_    0.800953 0.229014 0.818843 0.024081
O30   O     O_2   0.763715 0.437569 0.872875 -0.506557
C83   C     C_2   0.781361 0.860731 0.682188 0.332664
H27   H     H_    0.814803 0.926988 0.662601 0.051830
O31   O     O_2   0.751867 0.776191 0.605113 -0.520113
C84   C     C_2   0.218639 0.360733 0.317811 0.332663
H28   H     H_    0.185197 0.426990 0.337399 0.051829
O32   O     O_2   0.248133 0.276194 0.394886 -0.520113
C85   C     C_2   0.912845 0.744723 0.297319 0.490555
H29   H     H_    0.914259 0.778205 0.387021 0.045972
O33   O     O_2   0.948337 0.658478 0.273650 -0.468291
C86   C     C_2   0.087155 0.244722 0.702680 0.490555
H30   H     H_    0.085742 0.278200 0.612978 0.045971
O34   O     O_2   0.051662 0.158480 0.726351 -0.468293

loop_
_geom_bond_atom_site_label_1
_geom_bond_atom_site_label_2
_ccdc_geom_bond_type
C44   C46   A    
C41   C43   A    
C76   H20   S    
C9    C31   A    
C9    C85   S    
C13   C15   A    
C47   C55   A    
O1    C3    A    
O2    C4    A    
C38   C78   S    
C2    O7    A    
C55   C81   S    
C75   H19   S    
O18   V4    S    
O5    C3    A    
C79   O27   D    
C35   C67   A    
C1    C36   S    
O15   V3    S    
C48   C56   A    
C21   C23   A    
C25   H9    S    
C82   H26   S    
C6    C30   A    
C83   O31   D    
C64   C66   A    
C75   O23   D    
C85   O33   D    
C81   H25   S    
C15   C19   A    
O12   C72   A    
C74   H18   S    
C70   O17   A    
C38   C40   A    
C40   F6    S    
C47   C49   A    
O20   V3    S    
C73   H17   S    
C37   C45   A    
C7    C29   A    
C14   H6    S    
C8    C30   A    
C67   F1    S    
C17   C25   A    
C78   H22   S    
C43   C45   A    
C33   C41   A    
C34   C42   A    
C16   C18   A    
C49   C61   A    
C53   H11   S    
O5    V1    S    
O17   V3    S    
O6    V2    S    
C86   O34   D    
C51   C53   A    
C2    C35   S    
C62   C68   A    
C24   C84   S    
C12   C14   A    
C59   C61   A    
C20   C28   A    
C85   H29   S    
C82   O30   D    
C63   C65   A    
C61   C67   A    
C32   C69   S    
C37   C39   A    
C16   C20   A    
C55   C57   A    
C80   H24   S    
C50   C52   A    
O19   V4    S    
C23   C83   S    
O16   V4    S    
O11   V4    S    
C5    H1    S    
C60   C64   A    
C52   C80   S    
C4    C7    S    
C35   C65   A    
C68   F2    S    
O4    V2    S    
C11   H7    S    
C34   C71   S    
C12   H8    S    
O6    C4    A    
O13   V3    S    
O14   C70   A    
C27   H3    S    
C56   C58   A    
O1    V2    S    
C28   H4    S    
C84   H28   S    
O2    V1    S    
C36   C68   A    
C30   C74   S    
C50   C62   A    
C64   H16   S    
C54   H12   S    
C78   O26   D    
C7    C27   A    
C58   C60   A    
O13   C69   A    
C84   O32   D    
O14   V4    S    
C60   C62   A    
C86   H30   S    
C34   C40   A    
O4    C2    A    
C11   C13   A    
C52   C54   A    
O16   C72   A    
O3    V1    S    
C39   F5    S    
C49   C51   A    
C77   H21   S    
C65   F3    S    
C69   O18   A    
C81   O29   D    
C37   C77   S    
C76   O24   D    
O12   V3    S    
C66   F4    S    
C18   C32   A    
C57   C75   S    
C10   C12   A    
C80   O28   D    
O3    C1    A    
C36   C66   A    
C6    H2    S    
O15   C71   A    
C57   C59   A    
C14   C16   A    
C46   C54   A    
C79   H23   S    
C41   H13   S    
C3    C8    S    
C26   H10   S    
C33   C72   S    
C19   C27   A    
C58   C76   S    
O19   V3    S    
O7    V1    S    
C42   H14   S    
C1    O8    A    
C15   C17   A    
O8    V2    S    
C83   H27   S    
C29   C73   S    
C24   C26   A    
C63   H15   S    
C8    C28   A    
C51   C79   S    
C43   C47   A    
C33   C39   A    
C22   C24   A    
C19   C21   A    
C20   C22   A    
C74   O22   D    
C10   C86   S    
C18   C26   A    
O20   V4    S    
C31   C70   S    
C56   C82   S    
O11   C71   A    
C9    C11   A    
C45   C53   A    
C44   C48   A    
C38   C46   A    
C23   C25   A    
C17   C31   A    
O9    V2    S    
C5    C29   A    
O10   V1    S    
C48   C50   A    
C5    C21   A    
C77   O25   D    
C6    C22   A    
C59   C63   A    
C13   H5    S    
C42   C44   A    
C10   C32   A    
C73   O21   D    
