data_mof_unit_32818.cif
_audit_creation_date              2012-12-10T16:43:24-0500
_audit_creation_method            fapswitch 2.2
_symmetry_space_group_name_H-M    P1
_symmetry_Int_Tables_number       1
_space_group_crystal_system       triclinic
_cell_length_a                    10.813996
_cell_length_b                    8.67407
_cell_length_c                    7.517496
_cell_angle_alpha                 102.295214
_cell_angle_beta                  96.861272
_cell_angle_gamma                 93.407311
_cell_volume                      681.420094899

loop_
_atom_site_label
_atom_site_type_symbol
_atom_type_description
_atom_site_fract_x
_atom_site_fract_y
_atom_site_fract_z
_atom_type_partial_charge
C1    C     C_R   0.490643 0.200267 0.454211 0.749806
C2    C     C_R   0.082234 0.621892 0.635770 -0.200475
C3    C     C_R   0.130338 0.518589 0.495087 -0.053679
C4    C     C_R   0.051605 0.408189 0.361468 -0.151505
C5    C     C_R   0.923447 0.396906 0.364639 0.153084
C6    C     C_R   0.874359 0.490617 0.514042 -0.029159
C7    C     C_2   0.471990 0.033178 0.431277 0.449345
C8    C     C_2   0.512897 0.967957 0.569547 -0.399535
C9    C     C_R   0.263389 0.507541 0.498982 0.890846
C10   C     C_R   0.504519 0.799987 0.545841 0.939244
C11   C     C_R   0.738290 0.496800 0.503220 0.741577
C12   C     C_R   0.155015 0.755156 0.751428 0.537314
C13   C     C_R   0.111773 0.837597 0.908536 0.582180
C14   C     C_R   0.000703 0.782743 0.958037 -0.429059
C15   C     C_R   0.925801 0.656408 0.840819 0.537409
C16   C     C_R   0.957848 0.588971 0.663827 -0.124805
Cu1   Cu    Cu3+1 0.513920 0.517380 0.684380 1.104429
Cu2   Cu    Cu3+1 0.486080 0.482620 0.315620 1.106606
H1    H     H_    0.090924 0.329185 0.254639 0.190244
H2    H     H_    0.974140 0.835101 0.090611 0.209086
H3    H     H_    0.557715 0.039013 0.701153 0.156529
N1    N     N_2   0.465100 0.456430 0.038520 0.222842
N2    N     N_2   0.534900 0.543570 0.961480 -0.021064
O1    O     O_R   0.509050 0.286130 0.619770 -0.557874
O2    O     O_R   0.485540 0.256780 0.308360 -0.513273
O3    O     O_R   0.331410 0.514680 0.655740 -0.517336
O4    O     O_R   0.307900 0.485330 0.344330 -0.568612
O5    O     O_R   0.514460 0.743220 0.691640 -0.571036
O6    O     O_R   0.490950 0.713870 0.380230 -0.589307
O7    O     O_R   0.692100 0.514670 0.655670 -0.527124
O8    O     O_R   0.668590 0.485320 0.344260 -0.623730
C17   C     C_3   0.594101 0.694729 0.064176 -0.342270
H4    H     H_    0.657471 0.742186 0.979617 0.190371
H5    H     H_    0.523051 0.779911 0.088153 0.238227
H6    H     H_    0.654221 0.686760 0.189847 0.176637
F1    F     F_    0.264557 0.811146 0.708222 -0.619399
F2    F     F_    0.181715 0.964595 0.019392 -0.556771
F3    F     F_    0.840573 0.582749 0.919579 -0.658899
C18   C     C_3   0.843037 0.275840 0.214174 -0.751199
H7    H     H_    0.777899 0.204084 0.274534 0.200608
H8    H     H_    0.789479 0.335836 0.117473 0.286739
H9    H     H_    0.900156 0.192428 0.132707 0.223367
F4    F     F_    0.405125 0.947937 0.272435 -0.595350
F5    F     F_    0.406577 0.325584 0.926017 -0.485028

loop_
_geom_bond_atom_site_label_1
_geom_bond_atom_site_label_2
_ccdc_geom_bond_type
C15   F3    S    
C3    C9    S    
C7    F4    S    
C12   F1    S    
C2    C16   A    
C13   F2    S    
C2    C12   A    
C17   H4    S    
C8    H3    S    
C11   O8    A    
C7    C8    D    
C18   H8    S    
Cu2   O6    S    
Cu2   N1    S    
C13   C14   A    
N2    C17   S    
C1    O2    A    
Cu1   O7    S    
Cu1   O5    S    
C10   O6    A    
Cu1   N2    S    
Cu2   O2    S    
Cu1   O3    S    
C9    O3    A    
Cu1   Cu2   S    
C18   H9    S    
C2    C3    A    
C5    C18   S    
C5    C6    A    
Cu1   O1    S    
C6    C16   A    
C3    C4    A    
C17   H6    S    
C14   H2    S    
C6    C11   S    
C12   C13   A    
C9    O4    A    
C1    O1    A    
C8    C10   S    
C10   O5    A    
C18   H7    S    
C14   C15   A    
Cu2   O8    S    
C1    C7    S    
C4    H1    S    
N1    N2    D    
N1    F5    S    
Cu2   O4    S    
C15   C16   A    
C11   O7    A    
C4    C5    A    
C17   H5    S    
