data_mof_unit_20596.cif
_audit_creation_date              2013-03-05T16:01:06-0500
_audit_creation_method            fapswitch 2.2
_symmetry_space_group_name_H-M    P1
_symmetry_Int_Tables_number       1
_space_group_crystal_system       triclinic
_cell_length_a                    14.861656
_cell_length_b                    14.806031
_cell_length_c                    15.830954
_cell_angle_alpha                 74.75204
_cell_angle_beta                  102.429501
_cell_angle_gamma                 116.130936
_cell_volume                      2997.39789506

loop_
_atom_site_label
_atom_site_type_symbol
_atom_site_description
_atom_site_fract_x
_atom_site_fract_y
_atom_site_fract_z
_atom_type_partial_charge
O1    O     O_R   0.977900 0.338120 0.529810 -0.565801
O2    O     O_R   0.022100 0.661880 0.470190 -0.576080
O3    O     O_R   0.839850 0.379180 0.491620 -0.529625
O4    O     O_R   0.160150 0.620820 0.508380 -0.500834
C1    C     C_R   0.879771 0.312135 0.517147 0.884035
C2    C     C_R   0.120061 0.688094 0.488960 0.867221
O5    O     O_R   0.069010 0.479460 0.640020 -0.532525
O6    O     O_R   0.930990 0.520540 0.359980 -0.534252
O7    O     O_R   0.930960 0.520530 0.601820 -0.549892
O8    O     O_R   0.069040 0.479470 0.398180 -0.548151
C3    C     C_R   0.999736 0.499664 0.659857 0.827998
C4    C     C_R   0.000091 0.500046 0.340175 0.863432
Cu1   Cu    Cu3+1 0.081740 0.475690 0.522610 1.090616
Cu2   Cu    Cu3+1 0.918260 0.524310 0.477390 1.062780
C5    C     C_3   0.972096 0.402793 0.046424 -0.117673
C6    C     C_3   0.027093 0.595479 0.953806 -0.135799
C7    C     C_3   0.906448 0.440218 0.967813 -0.127788
C8    C     C_3   0.092740 0.558057 0.032398 -0.131023
H1    H     H_    0.830005 0.391852 0.939901 0.184650
H2    H     H_    0.169195 0.606414 0.060296 0.182993
H3    H     H_    0.949536 0.323716 0.085825 0.191225
H4    H     H_    0.049658 0.674558 0.914407 0.179465
H5    H     H_    0.880366 0.567499 0.011850 0.185683
H6    H     H_    0.118818 0.430778 0.988348 0.188446
C9    C     C_1   0.999458 0.499331 0.749755 -0.064510
C10   C     C_1   0.000056 0.499792 0.250342 -0.058380
C11   C     C_3   0.065081 0.461600 0.994420 -0.118772
C12   C     C_3   0.934110 0.536677 0.005793 -0.126673
C13   C     C_3   0.999434 0.499028 0.917368 0.124624
C14   C     C_3   0.999758 0.499259 0.082853 0.123541
C15   C     C_1   0.999365 0.499103 0.825498 0.009952
C16   C     C_1   0.999949 0.499533 0.174671 0.015397
C17   C     C_R   0.810436 0.206547 0.550246 -0.167749
C18   C     C_R   0.188295 0.798019 0.486777 -0.209377
C19   C     C_R   0.757786 0.081507 0.684605 0.360504
C20   C     C_R   0.219091 0.976718 0.424824 0.364775
C21   C     C_R   0.831146 0.165048 0.638156 -0.255577
C22   C     C_R   0.153781 0.872962 0.439489 -0.255017
C23   C     C_R   0.713065 0.161876 0.506081 0.284081
C24   C     C_R   0.287433 0.828841 0.531198 0.310990
C25   C     C_R   0.633446 0.087725 0.555998 -0.053345
C26   C     C_R   0.354992 0.934669 0.517910 -0.065634
C27   C     C_R   0.657866 0.038917 0.642759 -0.123826
C28   C     C_R   0.323490 0.006190 0.454245 -0.118624
C29   C     C_R   0.529961 0.062198 0.522559 0.061753
C30   C     C_R   0.455040 0.970964 0.562024 0.043606
C31   C     C_R   0.481144 0.921705 0.646166 -0.157600
C32   C     C_R   0.498856 0.129560 0.455340 -0.196456
C33   C     C_R   0.580649 0.951861 0.685518 0.335213
C34   C     C_R   0.397544 0.103772 0.421670 0.328987
H7    H     H_    0.075265 0.850806 0.412954 0.235204
H8    H     H_    0.902605 0.203720 0.674148 0.220776
H9    H     H_    0.423890 0.860292 0.684069 0.218143
H10   H     H_    0.553012 0.204760 0.429387 0.198691
N1    N     N_R   0.795440 0.560790 0.443380 -0.241553
N2    N     N_R   0.204560 0.439210 0.556620 -0.242336
C35   C     C_R   0.731200 0.688492 0.369743 0.156244
C36   C     C_R   0.268264 0.309877 0.626104 0.168021
C37   C     C_R   0.801287 0.645845 0.379572 0.368496
C38   C     C_R   0.200964 0.354949 0.620495 0.378929
C39   C     C_R   0.711276 0.505837 0.487841 0.344430
C40   C     C_R   0.286743 0.492493 0.509171 0.391835
C41   C     C_R   0.628790 0.535754 0.466662 -0.092667
C42   C     C_R   0.368522 0.461500 0.527420 -0.102230
C43   C     C_R   0.647502 0.635590 0.417475 -0.018509
C44   C     C_R   0.349825 0.361410 0.575794 -0.010627
C45   C     C_R   0.531690 0.475004 0.497584 0.131857
C46   C     C_R   0.464968 0.521767 0.495010 0.115171
C47   C     C_R   0.499961 0.628227 0.465267 -0.130425
C48   C     C_R   0.496543 0.368368 0.526225 -0.111050
C49   C     C_R   0.584744 0.682250 0.420866 -0.077583
C50   C     C_R   0.411354 0.314038 0.570305 -0.055148
H11   H     H_    0.603086 0.762472 0.393252 0.207446
H12   H     H_    0.392507 0.233569 0.597142 0.186910
H13   H     H_    0.462513 0.671485 0.475541 0.226965
H14   H     H_    0.534663 0.325681 0.515362 0.171455
Br1   Br    Br    0.278782 0.589884 0.402008 -0.423634
Br2   Br    Br    0.717462 0.407965 0.595034 -0.493333
Br3   Br    Br    0.105459 0.295642 0.704605 -0.359531
Br4   Br    Br    0.906643 0.712270 0.303413 -0.354795
Br5   Br    Br    0.749307 0.817464 0.289602 -0.304427
Br6   Br    Br    0.250218 0.180218 0.704989 -0.348500
N3    N     N_R   0.602131 0.886289 0.764231 0.174238
O9    O     O_R   0.543312 0.847811 0.826388 -0.269409
O10   O     O_R   0.667423 0.849130 0.766153 -0.268228
N4    N     N_R   0.374416 0.172224 0.346306 0.172078
O11   O     O_R   0.416770 0.270580 0.344117 -0.320004
O12   O     O_R   0.327586 0.138828 0.273918 -0.252376
N5    N     N_R   0.321341 0.751800 0.582877 0.121673
O13   O     O_R   0.397581 0.744048 0.562601 -0.352922
O14   O     O_R   0.278155 0.691519 0.652173 -0.346536
N6    N     N_R   0.698513 0.178832 0.410838 0.119894
O15   O     O_R   0.641058 0.102188 0.371460 -0.287502
O16   O     O_R   0.750849 0.265872 0.363249 -0.341961
N7    N     N_R   0.782969 0.053921 0.777720 0.165862
O17   O     O_R   0.867794 0.044545 0.807285 -0.249411
O18   O     O_R   0.733210 0.060503 0.832547 -0.278552
N8    N     N_R   0.176741 0.050890 0.386046 0.169526
O19   O     O_R   0.099452 0.030522 0.325817 -0.254864
O20   O     O_R   0.203708 0.130410 0.421401 -0.306715

loop_
_geom_bond_atom_site_label_1
_geom_bond_atom_site_label_2
_geom_bond_distance
_ccdc_geom_bond_type
C9    C15   1.198501 T    
C41   C43   1.412214 A    
C38   Br3   1.912962 S    
C6    C12   1.548513 S    
N1    C37   1.373359 A    
C11   C13   1.534683 S    
C50   H12   1.081421 S    
C7    C13   1.534626 S    
C40   Br1   1.936112 S    
N7    O17   1.301360 A    
H6    C11   1.110152 S    
C23   C25   1.425422 A    
C29   C30   1.409071 A    
C32   H10   1.081048 S    
C17   C23   1.408903 A    
O1    C1    1.317389 A    
C42   C46   1.436360 A    
C19   C21   1.392174 A    
C36   Br6   1.935589 S    
N4    O12   1.301420 A    
C35   C37   1.402043 A    
C3    C9    1.422762 S    
C36   C38   1.404321 A    
C39   C41   1.426418 A    
C26   C30   1.426153 A    
O4    Cu1   1.918011 S    
C47   C49   1.385375 A    
C40   C42   1.428835 A    
C36   C44   1.402511 A    
C44   C50   1.402453 A    
C46   C47   1.403452 A    
C1    C17   1.470704 S    
O6    Cu2   1.925867 S    
C8    C14   1.534651 S    
C24   N5    1.436112 S    
N5    O14   1.302097 A    
C19   C27   1.418827 A    
C31   H9    1.078038 S    
Cu1   N2    2.050798 S    
C24   C26   1.428031 A    
Cu2   N1    2.050799 S    
Cu1   Cu2   2.730269 S    
C25   C27   1.426463 A    
O2    C2    1.317260 A    
C26   C28   1.424270 A    
C41   C45   1.435371 A    
C45   C46   1.427173 A    
C31   C33   1.393720 A    
C49   H11   1.081290 S    
C21   H8    1.075099 S    
N4    O11   1.301358 A    
C27   C33   1.417421 A    
C22   H7    1.081661 S    
C6    C13   1.534674 S    
C43   C49   1.399546 A    
C17   C21   1.393375 A    
N2    C38   1.372154 A    
C4    C10   1.423027 S    
C42   C44   1.411291 A    
O5    C3    1.306877 A    
O7    Cu2   1.926218 S    
C5    C11   1.548684 S    
N3    O9    1.301434 A    
C5    H3    1.110142 S    
C39   Br2   1.935136 S    
O6    C4    1.306953 A    
N6    O16   1.300766 A    
H5    C12   1.110150 S    
O7    C3    1.307255 A    
O3    Cu2   1.918009 S    
O8    C4    1.307219 A    
O4    C2    1.313172 A    
N3    O10   1.301516 A    
N8    O20   1.301746 A    
C48   H14   1.079105 S    
N2    C40   1.383061 A    
C20   C28   1.419178 A    
O1    Cu1   1.930846 S    
C23   N6    1.446227 S    
C5    C14   1.534773 S    
C29   C32   1.406037 A    
C28   C34   1.420008 A    
C5    C7    1.548703 S    
C30   C31   1.404467 A    
C6    H4    1.110143 S    
C18   C22   1.397802 A    
C7    C12   1.548646 S    
C8    C11   1.548613 S    
C35   C43   1.402459 A    
O3    C1    1.305852 A    
O8    Cu1   1.926218 S    
C37   Br4   1.924858 S    
C20   N8    1.437671 S    
N7    O18   1.301525 A    
C10   C16   1.198616 T    
C19   N7    1.435378 S    
C45   C48   1.403638 A    
C33   N3    1.436202 S    
C20   C22   1.397123 A    
C12   C14   1.534698 S    
C13   C15   1.453882 S    
C14   C16   1.454035 S    
N1    C39   1.379594 A    
C32   C34   1.397176 A    
N6    O15   1.301877 A    
C7    H1    1.110155 S    
C47   H13   1.074305 S    
C8    H2    1.110148 S    
O2    Cu2   1.930845 S    
C35   Br5   1.936096 S    
C34   N4    1.436354 S    
C2    C18   1.486669 S    
O5    Cu1   1.925868 S    
C6    C8    1.548508 S    
N8    O19   1.301574 A    
C25   C29   1.425189 A    
C18   C24   1.415652 A    
C48   C50   1.387410 A    
N5    O13   1.300195 A    
