data_mof_unit_35545.cif
_audit_creation_date              2013-03-05T16:08:48-0500
_audit_creation_method            fapswitch 2.2
_symmetry_space_group_name_H-M    P1
_symmetry_Int_Tables_number       1
_space_group_crystal_system       triclinic
_cell_length_a                    27.644023
_cell_length_b                    11.589944
_cell_length_c                    10.762369
_cell_angle_alpha                 89.95851
_cell_angle_beta                  90.011821
_cell_angle_gamma                 89.982065
_cell_volume                      3448.18308441

loop_
_atom_site_label
_atom_site_type_symbol
_atom_site_description
_atom_site_fract_x
_atom_site_fract_y
_atom_site_fract_z
_atom_type_partial_charge
O1    O     O_R   0.500000 0.334450 0.602530 -0.608492
O2    O     O_R   0.500000 0.665550 0.397470 -0.606116
O3    O     O_R   0.500000 0.665550 0.602530 -0.607546
O4    O     O_R   0.500000 0.334450 0.397470 -0.609611
C1    C     C_R   0.500004 0.281108 0.500036 0.912281
C2    C     C_R   0.499998 0.718893 0.499963 0.917292
O5    O     O_R   0.428750 0.500000 0.602520 -0.617756
O6    O     O_R   0.571250 0.500000 0.397480 -0.619369
O7    O     O_R   0.571250 0.500000 0.602520 -0.618236
O8    O     O_R   0.428750 0.500000 0.397480 -0.619646
C3    C     C_R   0.405574 0.499609 0.499826 0.941059
C4    C     C_R   0.594440 0.499395 0.499850 0.939059
Zn1   Zn    Zn3+2 0.500000 0.500000 0.636920 0.990010
Zn2   Zn    Zn3+2 0.500000 0.500000 0.363080 0.990235
C5    C     C_R   0.177665 0.386281 0.478175 0.637007
C6    C     C_R   0.822689 0.573331 0.429351 0.677144
C7    C     C_R   0.176096 0.592313 0.478885 0.595971
C8    C     C_R   0.823912 0.388134 0.526593 0.575758
O9    O     O_2   0.203507 0.289187 0.497603 -0.525460
O10   O     O_2   0.797357 0.669739 0.402708 -0.496259
O11   O     O_2   0.201656 0.691033 0.486673 -0.508004
O12   O     O_2   0.798263 0.300020 0.574970 -0.538687
N1    N     N_R   0.200382 0.490155 0.485387 -0.327521
N2    N     N_R   0.799681 0.482948 0.484493 -0.327456
C9    C     C_R   0.278315 0.476121 0.381054 0.520404
C10   C     C_R   0.721390 0.470483 0.381083 0.517462
C11   C     C_R   0.275550 0.509916 0.604712 0.530691
C12   C     C_R   0.724745 0.499550 0.605770 0.535727
C13   C     C_R   0.328655 0.476474 0.385560 -0.301354
C14   C     C_R   0.671212 0.477014 0.384958 -0.297602
C15   C     C_R   0.326133 0.514516 0.607327 -0.310359
C16   C     C_R   0.673970 0.505969 0.608230 -0.333453
C17   C     C_R   0.251939 0.491876 0.490933 0.100550
C18   C     C_R   0.748066 0.484882 0.490873 0.100371
C19   C     C_R   0.101394 0.486099 0.453385 -0.092207
C20   C     C_R   0.898792 0.473620 0.455456 -0.094308
C21   C     C_R   0.127783 0.381133 0.454531 -0.097534
C22   C     C_R   0.872400 0.567086 0.404247 -0.111303
C23   C     C_R   0.125297 0.593762 0.463660 -0.117321
C24   C     C_R   0.874847 0.382368 0.517658 -0.114242
C25   C     C_R   0.103137 0.275583 0.432095 -0.165430
C26   C     C_R   0.896856 0.650459 0.330587 -0.141842
C27   C     C_R   0.097467 0.697393 0.462608 -0.139630
C28   C     C_R   0.902644 0.291670 0.571552 -0.141115
C29   C     C_R   0.352746 0.496972 0.498033 -0.179255
C30   C     C_R   0.647271 0.494294 0.498128 -0.173503
H1    H     H_    0.344420 0.532472 0.694199 0.187453
H2    H     H_    0.655394 0.522460 0.694894 0.183704
H3    H     H_    0.348735 0.460402 0.300893 0.190919
H4    H     H_    0.651163 0.468564 0.298940 0.192075
C31   C     C_R   0.976283 0.376362 0.484262 0.000921
C32   C     C_R   0.023877 0.584429 0.427716 0.000849
C33   C     C_R   0.973705 0.573029 0.403741 0.001600
C34   C     C_R   0.026449 0.376040 0.457983 0.006914
C35   C     C_R   0.949485 0.473965 0.447798 -0.087646
C36   C     C_R   0.050684 0.482541 0.446171 -0.088987
C37   C     C_R   0.953343 0.286286 0.551187 0.474768
C38   C     C_R   0.046878 0.693062 0.440261 0.474090
C39   C     C_R   0.947597 0.651850 0.329603 0.498372
C40   C     C_R   0.052397 0.274043 0.432841 0.499408
C41   C     C_1   0.500005 0.160993 0.500090 -0.174379
C42   C     C_1   0.499999 0.839009 0.499906 -0.171247
C43   C     C_1   0.500004 0.059152 0.500044 0.018334
C44   C     C_1   0.500002 0.940851 0.499950 0.019872
N3    N     N_1   0.500000 0.500000 0.180630 -0.080856
N4    N     N_1   0.500000 0.500000 0.819370 -0.080976
C45   C     C_1   0.500000 0.499998 0.069717 0.043240
C46   C     C_1   0.500000 0.499998 0.930283 0.042264
O13   O     O_3   0.248684 0.531298 0.710596 -0.590188
C47   C     C_3   0.252225 0.435251 0.790558 -0.273523
H5    H     H_    0.289426 0.426126 0.828661 0.161876
H6    H     H_    0.240873 0.354224 0.743208 0.190847
H7    H     H_    0.227437 0.448794 0.870267 0.196944
O14   O     O_3   0.752804 0.517713 0.711017 -0.586395
C48   C     C_3   0.737653 0.445716 0.809490 -0.213658
H8    H     H_    0.729260 0.356348 0.777912 0.169762
H9    H     H_    0.706180 0.484029 0.858545 0.161349
H10   H     H_    0.767588 0.439256 0.877817 0.201811
O15   O     O_3   0.254385 0.452398 0.271152 -0.581048
C49   C     C_3   0.256103 0.551042 0.194554 -0.267570
H11   H     H_    0.293692 0.569696 0.163668 0.160067
H12   H     H_    0.240270 0.627690 0.241860 0.193828
H13   H     H_    0.234158 0.534259 0.110185 0.195665
O16   O     O_3   0.744883 0.458338 0.268500 -0.571292
C50   C     C_3   0.745015 0.340544 0.236088 -0.292885
H14   H     H_    0.707638 0.308040 0.220240 0.159715
H15   H     H_    0.763650 0.287430 0.307897 0.186854
H16   H     H_    0.765287 0.330300 0.147829 0.195647
C51   C     C_2   0.128251 0.167024 0.398076 0.588033
H17   H     H_    0.115568 0.085635 0.435375 0.080985
O17   O     O_2   0.161158 0.166943 0.322407 -0.490034
C52   C     C_2   0.871518 0.730781 0.244871 0.560685
H18   H     H_    0.885397 0.817445 0.231028 0.075782
O18   O     O_2   0.837067 0.698556 0.182929 -0.507612
C53   C     C_2   0.119237 0.809852 0.495368 0.520658
H19   H     H_    0.111356 0.848814 0.584727 0.053536
O19   O     O_2   0.144001 0.861983 0.420011 -0.528844
C54   C     C_2   0.880783 0.210763 0.661765 0.531204
H20   H     H_    0.885295 0.225574 0.760595 0.048577
O20   O     O_2   0.859021 0.125403 0.625790 -0.527305
O21   O     O_3   0.982430 0.210340 0.618572 -0.628889
C55   C     C_3   0.971048 0.093390 0.594313 -0.142380
H21   H     H_    0.950899 0.079452 0.505777 0.179475
H22   H     H_    0.950676 0.056290 0.673585 0.163725
H23   H     H_    0.005315 0.044006 0.588474 0.196151
O22   O     O_3   0.017930 0.790252 0.457476 -0.632235
C56   C     C_3   0.029553 0.879724 0.372970 -0.176216
H24   H     H_    0.049755 0.850263 0.289073 0.184343
H25   H     H_    0.050178 0.948128 0.421208 0.164241
H26   H     H_    0.995377 0.920037 0.340922 0.205174
O23   O     O_3   0.971225 0.722408 0.245467 -0.634599
C57   C     C_3   0.984891 0.656175 0.141257 -0.356918
H27   H     H_    0.953041 0.613900 0.097227 0.178642
H28   H     H_    0.012635 0.590599 0.166181 0.172411
H29   H     H_    0.001228 0.714609 0.071235 0.206111
O24   O     O_3   0.028441 0.175416 0.394651 -0.649753
C58   C     C_3   0.015509 0.188113 0.268465 -0.386003
H30   H     H_    0.047934 0.202051 0.208978 0.188819
H31   H     H_    0.989100 0.259499 0.255131 0.179442
H32   H     H_    0.997780 0.107596 0.236769 0.193889

loop_
_geom_bond_atom_site_label_1
_geom_bond_atom_site_label_2
_geom_bond_distance
_ccdc_geom_bond_type
N4    C46   1.193690 T    
O21   C55   1.416023 S    
C56   H25   1.106289 S    
C25   C51   1.483017 S    
C53   H19   1.084855 S    
O3    C2    1.264808 A    
C12   O14   1.388914 S    
C57   H28   1.112229 S    
C33   C39   1.410806 A    
C34   C40   1.408973 A    
C50   H14   1.113042 S    
C11   C17   1.403338 A    
O5    C3    1.277395 A    
C7    N1    1.362666 A    
O1    C1    1.264903 A    
C19   C21   1.418356 A    
C22   C26   1.420826 A    
C58   H31   1.112415 S    
O22   C56   1.415867 S    
O24   C58   1.411827 S    
C55   H23   1.108408 S    
C7    C23   1.413884 A    
C41   C43   1.180335 T    
O7    Zn1   2.004205 S    
C5    C21   1.403460 A    
C42   C44   1.180341 T    
C27   C38   1.419873 A    
C55   H21   1.115498 S    
C5    O9    1.348889 S    
C28   C54   1.478659 S    
C10   C18   1.402802 A    
O23   C57   1.411065 S    
N3    C45   1.193686 T    
C27   C53   1.478642 S    
C56   H24   1.115489 S    
C47   H5    1.112017 S    
C31   C37   1.417875 A    
C51   O17   1.221084 D    
C24   C28   1.424897 A    
C26   C52   1.485378 S    
C11   O13   1.382830 S    
O6    C4    1.274575 A    
C50   H15   1.113803 S    
C14   H4    1.083396 S    
C12   C18   1.405063 A    
C6    N2    1.361526 A    
C15   H1    1.083115 S    
C21   C25   1.421222 A    
C16   H2    1.081924 S    
O2    C2    1.264898 A    
C49   H13   1.109260 S    
C57   H27   1.113661 S    
O7    C4    1.277612 A    
Zn1   N4    1.963593 S    
C33   C35   1.411086 A    
C9    C13   1.392426 A    
C34   C36   1.410294 A    
O14   C48   1.412096 S    
C11   C15   1.399636 A    
C45   C46   1.500639 S    
C12   C16   1.405836 A    
O16   C50   1.409339 S    
C49   H12   1.113746 S    
O8    Zn2   2.004205 S    
C58   H32   1.108191 S    
O4    C1    1.264801 A    
C13   H3    1.083301 S    
N1    C17   1.426623 S    
C7    O11   1.347592 S    
O15   C49   1.409837 S    
C13   C29   1.401934 A    
C38   O22   1.394044 S    
C19   C23   1.416534 A    
C48   H8    1.114797 S    
C39   O23   1.383754 S    
C20   C24   1.415791 A    
C28   C37   1.419960 A    
C6    O10   1.349104 S    
C47   H7    1.109271 S    
C52   O18   1.221154 D    
C1    C41   1.392118 S    
C55   H22   1.108949 S    
C48   H9    1.110474 S    
C32   C38   1.417193 A    
C4    C30   1.461764 S    
C10   C14   1.389809 A    
C54   O20   1.221242 D    
C56   H26   1.108680 S    
C8    N2    1.363894 A    
C40   O24   1.383901 S    
O1    Zn1   1.954351 S    
C32   C33   1.416945 A    
C50   H16   1.109393 S    
O6    Zn2   2.004055 S    
C19   C36   1.404556 A    
C8    O12   1.347804 S    
C16   C30   1.402539 A    
C14   C30   1.400777 A    
C25   C40   1.402799 A    
C49   H11   1.112276 S    
O3    Zn1   1.953824 S    
C26   C39   1.402839 A    
C23   C27   1.426177 A    
C53   O19   1.221163 D    
C37   O21   1.394872 S    
C31   C34   1.415400 A    
C2    C42   1.392141 S    
C20   C22   1.417042 A    
C20   C35   1.403793 A    
C58   H30   1.113390 S    
C10   O16   1.382100 S    
C5    N1    1.360267 A    
C52   H18   1.085510 S    
Zn2   N3    1.963594 S    
C31   C35   1.407540 A    
O4    Zn2   1.953825 S    
O13   C47   1.409925 S    
O2    Zn2   1.954350 S    
C48   H10   1.109406 S    
N2    C18   1.428681 S    
C9    O15   1.382934 S    
C3    C29   1.460832 S    
O8    C3    1.274379 A    
C43   C44   1.371105 S    
O5    Zn1   2.004055 S    
C8    C24   1.412901 A    
C54   H20   1.084703 S    
C15   C29   1.402425 A    
C6    C22   1.402407 A    
C47   H6    1.113951 S    
C51   H17   1.083318 S    
C57   H29   1.109108 S    
C32   C36   1.407876 A    
C9    C17   1.401445 A    
