data_mof_unit_11161.cif
_audit_creation_date              2012-12-10T17:35:03-0500
_audit_creation_method            fapswitch 2.2
_symmetry_space_group_name_H-M    P1
_symmetry_Int_Tables_number       1
_space_group_crystal_system       triclinic
_cell_length_a                    12.361816
_cell_length_b                    13.168039
_cell_length_c                    13.990371
_cell_angle_alpha                 105.201095
_cell_angle_beta                  74.722946
_cell_angle_gamma                 116.2637
_cell_volume                      1941.98792737

loop_
_atom_site_label
_atom_site_type_symbol
_atom_type_description
_atom_site_fract_x
_atom_site_fract_y
_atom_site_fract_z
_atom_type_partial_charge
C1    C     C_R   0.145070 0.713981 0.508957 0.816468
C2    C     C_1   0.977825 0.504383 0.788860 -0.111382
C3    C     C_R   0.739066 0.958054 0.460608 0.052244
C4    C     C_R   0.775843 0.162457 0.494919 -0.103709
C5    C     C_R   0.184575 0.917524 0.581459 -0.225712
C6    C     C_R   0.262835 0.025550 0.623952 0.023521
C7    C     C_R   0.389272 0.059357 0.594903 -0.235677
C8    C     C_R   0.439246 0.985106 0.526170 0.077906
C9    C     C_R   0.359601 0.872867 0.488767 0.097946
C10   C     C_R   0.567656 0.016898 0.500628 0.062073
C11   C     C_R   0.614876 0.931812 0.458533 0.091898
C12   C     C_R   0.984619 0.503050 0.685462 0.832841
C13   C     C_R   0.536709 0.825013 0.413165 -0.232339
C14   C     C_R   0.412998 0.799808 0.421941 -0.182163
C15   C     C_R   0.649792 0.131673 0.510589 -0.285245
C16   C     C_R   0.819339 0.075666 0.485891 0.077114
C17   C     C_R   0.230275 0.837285 0.520439 -0.137878
C18   C     C_R   0.640424 0.679392 0.665104 -0.036274
C19   C     C_R   0.266749 0.364498 0.353404 0.266392
C20   C     C_R   0.383005 0.365800 0.310921 -0.279611
C21   C     C_R   0.481749 0.429755 0.360121 -0.050424
C22   C     C_R   0.462248 0.485663 0.460095 -0.059576
C23   C     C_R   0.856345 0.286025 0.492693 0.795168
C24   C     C_R   0.348123 0.498107 0.495376 0.214438
C25   C     C_R   0.554422 0.536374 0.523077 -0.049863
C26   C     C_R   0.539677 0.613586 0.613069 0.060219
C27   C     C_R   0.425355 0.623115 0.646417 -0.061138
C28   C     C_R   0.338829 0.574907 0.583731 -0.229088
C29   C     C_R   0.657719 0.507639 0.502000 0.058448
C30   C     C_R   0.739837 0.645680 0.639795 0.134437
C31   C     C_R   0.014933 0.495849 0.314018 0.795753
C32   C     C_1   0.021708 0.493022 0.209601 -0.131440
C33   C     C_2   0.033635 0.487114 0.016558 -0.250970
C34   C     C_2   0.960380 0.516034 0.982775 -0.004961
C35   C     C_1   0.971254 0.507569 0.876570 -0.013380
C36   C     C_1   0.027242 0.490438 0.121770 0.072949
Cu1   Cu    Cu3+1 0.899780 0.525060 0.522890 0.983684
Cu2   Cu    Cu3+1 0.100220 0.474940 0.477110 0.908142
H1    H     H_    0.360706 0.721645 0.376565 0.179453
H2    H     H_    0.664339 0.437173 0.444182 0.141429
H3    H     H_    0.399353 0.323611 0.234237 0.185741
H4    H     H_    0.263634 0.599003 0.608520 0.229365
H5    H     H_    0.098827 0.456499 0.963219 0.167489
H6    H     H_    0.570977 0.762499 0.365939 0.168905
H7    H     H_    0.615661 0.197937 0.525095 0.176227
H8    H     H_    0.087196 0.893243 0.602186 0.228608
H9    H     H_    0.448166 0.141102 0.631784 0.184598
N1    N     N_R   0.748810 0.563010 0.557590 -0.240491
N2    N     N_R   0.250540 0.437620 0.443020 -0.225361
O1    O     O_R   0.025040 0.682470 0.528790 -0.555807
O2    O     O_R   0.194310 0.640150 0.490130 -0.602729
O3    O     O_R   0.903380 0.524130 0.659910 -0.550209
O4    O     O_R   0.072660 0.481800 0.621240 -0.615122
O5    O     O_R   0.805690 0.359850 0.509870 -0.582647
O6    O     O_R   0.974960 0.317530 0.471210 -0.605672
O7    O     O_R   0.927340 0.518200 0.378760 -0.560853
O8    O     O_R   0.096620 0.475870 0.340090 -0.606536
C37   C     C_2   0.871626 0.562219 0.048874 0.865372
O9    O     O_2   0.781065 0.548401 0.018454 -0.565766
O10   O     O_R   0.894037 0.626679 0.143246 -0.760725
H10   H     H_    0.832031 0.661429 0.175447 0.358675
C38   C     C_2   0.821342 0.687148 0.714338 0.883317
O11   O     O_2   0.921443 0.766059 0.702497 -0.611484
O12   O     O_R   0.777727 0.642043 0.803650 -0.721926
H11   H     H_    0.839628 0.679064 0.850924 0.347349
C39   C     C_2   0.379902 0.662096 0.752325 0.834540
O13   O     O_2   0.335349 0.733247 0.772618 -0.606506
O14   O     O_R   0.379710 0.610600 0.828038 -0.750794
H12   H     H_    0.343201 0.641635 0.896972 0.331398
C40   C     C_3   0.647806 0.788323 0.743902 -0.392307
C41   C     C_3   0.638402 0.881211 0.702775 -0.375321
C42   C     C_3   0.613198 0.972340 0.787292 -0.762788
H13   H     H_    0.524272 0.933149 0.836380 0.282868
H14   H     H_    0.687382 0.014445 0.833179 0.249184
H15   H     H_    0.609387 0.038752 0.754577 0.246207
H16   H     H_    0.726809 0.925191 0.656030 0.216456
H17   H     H_    0.566281 0.844486 0.655476 0.245584
H18   H     H_    0.580273 0.766249 0.812686 0.244228
H19   H     H_    0.735852 0.831655 0.772240 0.207180
C43   C     C_3   0.170889 0.293969 0.285525 -0.370042
C44   C     C_3   0.157709 0.168488 0.248728 -0.434191
C45   C     C_3   0.048634 0.098527 0.193709 -0.826475
H20   H     H_    0.962144 0.095992 0.244909 0.245870
H21   H     H_    0.060186 0.137020 0.127982 0.270324
H22   H     H_    0.042292 0.009234 0.166426 0.256177
H23   H     H_    0.240509 0.164740 0.195338 0.241692
H24   H     H_    0.146251 0.127749 0.312853 0.218997
H25   H     H_    0.080192 0.290151 0.320681 0.257118
H26   H     H_    0.197717 0.335785 0.218509 0.197267
C46   C     C_2   0.604140 0.452373 0.296816 0.836877
O15   O     O_2   0.684839 0.549079 0.305710 -0.622364
O16   O     O_R   0.626034 0.364133 0.224983 -0.757181
H27   H     H_    0.713167 0.390347 0.186952 0.344382
C47   C     C_3   0.946895 0.108424 0.507198 -0.419832
C48   C     C_3   0.960263 0.169017 0.616147 -0.326391
C49   C     C_3   0.094719 0.238582 0.625457 -0.722399
H28   H     H_    0.133308 0.313026 0.586252 0.272335
H29   H     H_    0.103778 0.270746 0.705863 0.246947
H30   H     H_    0.148139 0.185289 0.590379 0.238968
H31   H     H_    0.912202 0.227880 0.643119 0.212427
H32   H     H_    0.918885 0.103436 0.666201 0.231740
H33   H     H_    0.972187 0.035036 0.495464 0.194108
H34   H     H_    0.016942 0.161127 0.452620 0.228175
C50   C     C_3   0.782475 0.861710 0.444790 -0.422472
C51   C     C_3   0.873899 0.859416 0.346848 -0.359696
C52   C     C_3   0.950524 0.795864 0.349503 -0.736718
H35   H     H_    0.015504 0.794942 0.277708 0.259008
H36   H     H_    0.004587 0.840098 0.411507 0.225602
H37   H     H_    0.890792 0.706237 0.360988 0.311536
H38   H     H_    0.823005 0.818167 0.283002 0.230139
H39   H     H_    0.937490 0.947519 0.334044 0.223164
H40   H     H_    0.823883 0.871399 0.509597 0.196574
H41   H     H_    0.706029 0.775795 0.445209 0.216664
C53   C     C_2   0.213122 0.099041 0.705988 0.829070
O17   O     O_2   0.104095 0.062462 0.742034 -0.589802
O18   O     O_R   0.291115 0.210054 0.743412 -0.760677
H42   H     H_    0.246627 0.251137 0.799776 0.341136

loop_
_geom_bond_atom_site_label_1
_geom_bond_atom_site_label_2
_ccdc_geom_bond_type
C3    C50   S    
C18   C40   S    
C39   O14   S    
C51   H38   S    
C40   H18   S    
C48   C49   S    
C18   C26   A    
C2    C12   S    
C53   O17   D    
C7    C8    A    
Cu2   N2    S    
C26   C27   A    
Cu1   Cu2   S    
C32   C36   T    
C30   N1    A    
C10   C15   A    
C5    C6    A    
C5    C17   A    
C52   H35   S    
C37   O10   S    
C49   H30   S    
C33   C36   S    
O18   H42   S    
C34   C35   S    
C43   H26   S    
C6    C53   S    
C38   O12   S    
C14   H1    S    
Cu1   O7    S    
Cu2   O6    S    
C19   C20   A    
C8    C9    A    
C22   C25   A    
C49   H29   S    
C40   C41   S    
C18   C30   A    
C31   O7    A    
C1    O1    A    
C12   O4    A    
C42   H13   S    
C39   O13   D    
C51   H39   S    
C21   C22   A    
C47   C48   S    
C42   H15   S    
C50   C51   S    
C12   O3    A    
C20   H3    S    
C21   C46   S    
C25   C29   A    
C29   N1    A    
C33   H5    S    
C24   C28   A    
C42   H14   S    
C50   H40   S    
Cu1   O3    S    
C48   H31   S    
O14   H12   S    
Cu2   O2    S    
C37   O9    D    
C2    C35   T    
C44   C45   S    
O10   H10   S    
C7    H9    S    
C4    C16   A    
C9    C14   A    
C38   O11   D    
Cu2   O8    S    
C19   N2    A    
C46   O16   S    
C31   C32   S    
C49   H28   S    
C33   C34   D    
Cu1   N1    S    
C1    O2    A    
C44   H24   S    
Cu1   O5    S    
C9    C17   A    
C47   H34   S    
C45   H21   S    
C30   C38   S    
C22   C24   A    
C15   H7    S    
C41   H17   S    
C23   O5    A    
C51   C52   S    
C24   N2    A    
C4    C23   S    
C40   H19   S    
C1    C17   S    
C44   H23   S    
C43   C44   S    
C53   O18   S    
C23   O6    A    
C6    C7    A    
C45   H22   S    
C5    H8    S    
C16   C47   S    
O12   H11   S    
C31   O8    A    
C4    C15   A    
C25   C26   A    
C41   C42   S    
C43   H25   S    
C27   C39   S    
Cu1   O1    S    
C11   C13   A    
C46   O15   D    
C41   H16   S    
Cu2   O4    S    
C52   H36   S    
C29   H2    S    
C28   H4    S    
O16   H27   S    
C19   C43   S    
C3    C11   A    
C10   C11   A    
C50   H41   S    
C20   C21   A    
C47   H33   S    
C8    C10   A    
C45   H20   S    
C27   C28   A    
C34   C37   S    
C13   C14   A    
C13   H6    S    
C3    C16   A    
C48   H32   S    
C52   H37   S    
