data_mof_unit_65441.cif
_audit_creation_date              2013-03-05T16:33:05-0500
_audit_creation_method            fapswitch 2.2
_symmetry_space_group_name_H-M    P1
_symmetry_Int_Tables_number       1
_space_group_crystal_system       triclinic
_cell_length_a                    38.621022
_cell_length_b                    32.121866
_cell_length_c                    21.662712
_cell_angle_alpha                 89.996716
_cell_angle_beta                  123.783517
_cell_angle_gamma                 90.003134
_cell_volume                      22336.4357545

loop_
_atom_site_label
_atom_site_type_symbol
_atom_site_description
_atom_site_fract_x
_atom_site_fract_y
_atom_site_fract_z
_atom_type_partial_charge
O1    O     O_R   0.939010 0.034440 0.439030 -0.617946
O2    O     O_R   0.060990 0.034440 0.560970 -0.617805
O3    O     O_R   0.439010 0.534440 0.439030 -0.617545
O4    O     O_R   0.560990 0.534440 0.560970 -0.618319
O5    O     O_R   0.939030 0.965580 0.439000 -0.581363
O6    O     O_R   0.060970 0.965580 0.561000 -0.581232
O7    O     O_R   0.439030 0.465580 0.439000 -0.577668
O8    O     O_R   0.560970 0.465580 0.561000 -0.581588
C1    C     C_R   0.919372 0.000012 0.419387 0.881967
C2    C     C_R   0.080629 0.000013 0.580612 0.882048
C3    C     C_R   0.419367 0.500013 0.419389 0.879810
C4    C     C_R   0.580629 0.500013 0.580618 0.880938
O9    O     O_R   0.000000 0.034440 0.591610 -0.625293
O10   O     O_R   0.000000 0.034440 0.408390 -0.625261
O11   O     O_R   0.500000 0.534440 0.591610 -0.625227
O12   O     O_R   0.500000 0.534440 0.408390 -0.624933
O13   O     O_R   0.000010 0.965580 0.591580 -0.597558
O14   O     O_R   0.999990 0.965580 0.408420 -0.597633
O15   O     O_R   0.500010 0.465580 0.591580 -0.596163
O16   O     O_R   0.499990 0.465580 0.408420 -0.597116
C5    C     C_R   0.001184 0.000063 0.621302 0.904035
C6    C     C_R   0.998819 0.000065 0.378698 0.904118
C7    C     C_R   0.501186 0.500063 0.621306 0.905312
C8    C     C_R   0.499011 0.500044 0.378914 0.900845
Zn1   Zn    Zn3+2 0.000000 0.045990 0.500000 1.070788
Zn2   Zn    Zn3+2 0.500000 0.545990 0.500000 1.071738
Zn3   Zn    Zn3+2 0.000000 0.954030 0.500000 1.112191
Zn4   Zn    Zn3+2 0.500000 0.454030 0.500000 1.116340
H1    H     H_    0.161776 0.098541 0.767710 0.247641
H2    H     H_    0.838362 0.098730 0.232446 0.247311
H3    H     H_    0.661554 0.598835 0.767373 0.247123
H4    H     H_    0.334319 0.588986 0.232179 0.247544
C9    C     C_R   0.096466 0.102395 0.724935 0.311632
C10   C     C_R   0.903670 0.102523 0.275184 0.311827
C11   C     C_R   0.596248 0.602578 0.724664 0.311984
C12   C     C_R   0.398991 0.596983 0.272514 0.313726
C13   C     C_R   0.062926 0.082159 0.720282 -0.224234
C14   C     C_R   0.937184 0.082254 0.279799 -0.223326
C15   C     C_R   0.562757 0.582290 0.720106 -0.224433
C16   C     C_R   0.433375 0.578916 0.276992 -0.225917
H5    H     H_    0.032666 0.097032 0.692067 0.215067
H6    H     H_    0.967460 0.097096 0.308019 0.215216
H7    H     H_    0.532468 0.597104 0.691865 0.215113
H8    H     H_    0.462731 0.595485 0.304028 0.215429
C17   C     C_R   0.068002 0.042865 0.752357 -0.155558
C18   C     C_R   0.932062 0.042965 0.247690 -0.155805
C19   C     C_R   0.567916 0.543014 0.752286 -0.155575
C20   C     C_R   0.430315 0.539566 0.246442 -0.157897
C21   C     C_R   0.107614 0.023630 0.791694 0.240788
C22   C     C_R   0.892430 0.023770 0.208348 0.240983
C23   C     C_R   0.607568 0.523863 0.791672 0.240929
C24   C     C_R   0.391912 0.518019 0.208969 0.241032
C25   C     C_R   0.141777 0.044020 0.797383 0.199973
C26   C     C_R   0.858294 0.044193 0.202695 0.200543
C27   C     C_R   0.641685 0.544308 0.797278 0.200206
C28   C     C_R   0.356973 0.536132 0.203750 0.199183
C29   C     C_R   0.135715 0.083159 0.763870 -0.309912
C30   C     C_R   0.864402 0.083324 0.236251 -0.310144
C31   C     C_R   0.635533 0.583417 0.763621 -0.310590
C32   C     C_R   0.360966 0.575423 0.235531 -0.311170
C33   C     C_R   0.030629 0.024252 0.813124 0.443238
C34   C     C_R   0.969414 0.024307 0.186907 0.443670
C35   C     C_R   0.530574 0.524323 0.813081 0.443435
C36   C     C_R   0.468516 0.523118 0.186284 0.444692
C37   C     C_R   0.000779 0.999434 0.813903 -0.142302
C38   C     C_R   0.999219 0.999437 0.186089 -0.142665
C39   C     C_R   0.500782 0.499435 0.813912 -0.142347
C40   C     C_R   0.499160 0.499322 0.186126 -0.144269
C41   C     C_R   0.971861 0.974998 0.752214 -0.034817
C42   C     C_R   0.028085 0.974945 0.247728 -0.034852
C43   C     C_R   0.471930 0.474925 0.752290 -0.035675
C44   C     C_R   0.528758 0.475636 0.248429 -0.032782
C45   C     C_R   0.972415 0.976468 0.689094 -0.216875
C46   C     C_R   0.027544 0.976422 0.310859 -0.216555
C47   C     C_R   0.472476 0.476400 0.689162 -0.214377
C48   C     C_R   0.528385 0.477264 0.311728 -0.216398
H9    H     H_    0.950039 0.958266 0.640757 0.170246
H10   H     H_    0.049885 0.958176 0.359160 0.170496
H11   H     H_    0.450146 0.458141 0.640872 0.173577
H12   H     H_    0.551305 0.459736 0.360583 0.168540
C49   C     C_R   0.002103 0.000343 0.688049 -0.081766
C50   C     C_R   0.997901 0.000351 0.311949 -0.081927
C51   C     C_R   0.502106 0.500347 0.688059 -0.083165
C52   C     C_R   0.498046 0.500250 0.312178 -0.079243
C53   C     C_R   0.032301 0.023528 0.750099 -0.018972
C54   C     C_R   0.967740 0.023585 0.249932 -0.018964
C55   C     C_R   0.532252 0.523603 0.750059 -0.019019
C56   C     C_R   0.466921 0.522211 0.249369 -0.018972
C57   C     C_R   0.898722 0.952494 0.701612 -0.268819
C58   C     C_R   0.101150 0.952268 0.298131 -0.268812
C59   C     C_R   0.398872 0.452171 0.701800 -0.265417
C60   C     C_R   0.602206 0.454068 0.299287 -0.270026
H13   H     H_    0.887801 0.978415 0.663164 0.143985
H14   H     H_    0.112160 0.978208 0.336545 0.144276
H15   H     H_    0.387855 0.478075 0.663307 0.145446
H16   H     H_    0.612817 0.480069 0.337523 0.143887
C61   C     C_R   0.869895 0.925148 0.700674 0.510676
C62   C     C_R   0.129883 0.924808 0.299015 0.510654
C63   C     C_R   0.370149 0.424694 0.700916 0.511742
C64   C     C_R   0.631358 0.427148 0.300378 0.510721
C65   C     C_R   0.884556 0.891770 0.750595 -0.062445
C66   C     C_R   0.115106 0.891396 0.249158 -0.061853
C67   C     C_R   0.384935 0.391330 0.750876 -0.062155
C68   C     C_R   0.617100 0.393684 0.250670 -0.062708
H17   H     H_    0.862727 0.870484 0.750300 0.179328
H18   H     H_    0.136861 0.870018 0.249425 0.180991
H19   H     H_    0.363187 0.369941 0.750614 0.180979
H20   H     H_    0.639186 0.372741 0.251059 0.179652
C69   C     C_R   0.927294 0.885538 0.800788 -0.204371
C70   C     C_R   0.072345 0.885246 0.199074 -0.201553
C71   C     C_R   0.427697 0.385241 0.801058 -0.200651
C72   C     C_R   0.574440 0.386932 0.200558 -0.204741
H21   H     H_    0.938252 0.859441 0.838701 0.173981
H22   H     H_    0.061295 0.859114 0.161232 0.179270
H23   H     H_    0.438754 0.359147 0.838984 0.179776
H24   H     H_    0.563780 0.360798 0.162747 0.173003
C73   C     C_R   0.955834 0.912793 0.801919 -0.116648
C74   C     C_R   0.043899 0.912622 0.197975 -0.117216
C75   C     C_R   0.456133 0.412631 0.802148 -0.116587
C76   C     C_R   0.545581 0.413736 0.199337 -0.114017
H25   H     H_    0.988892 0.907471 0.840906 0.140661
H26   H     H_    0.010822 0.907363 0.159072 0.140958
H27   H     H_    0.489211 0.407416 0.841122 0.140919
H28   H     H_    0.512591 0.408006 0.160421 0.140255
C77   C     C_R   0.941709 0.946569 0.752521 0.114948
C78   C     C_R   0.058142 0.946424 0.247327 0.114223
C79   C     C_R   0.441881 0.446390 0.752700 0.113334
C80   C     C_R   0.559292 0.447625 0.248460 0.116201
C81   C     C_R   0.728750 0.959515 0.223695 0.406670
C82   C     C_R   0.271249 0.959506 0.776213 0.407309
C83   C     C_R   0.228794 0.459740 0.224287 0.402835
C84   C     C_R   0.771250 0.459526 0.776703 0.407628
C85   C     C_R   0.706459 0.997419 0.205310 -0.127016
C86   C     C_R   0.293543 0.997414 0.794660 -0.129283
C87   C     C_R   0.206489 0.497591 0.206814 -0.121464
C88   C     C_R   0.793541 0.497418 0.794785 -0.127537
C89   C     C_R   0.727455 0.035334 0.229808 -0.145742
C90   C     C_R   0.272549 0.035331 0.770204 -0.141374
C91   C     C_R   0.227460 0.535313 0.234657 -0.138441
C92   C     C_R   0.772545 0.535320 0.770034 -0.146254
H29   H     H_    0.710018 0.064200 0.215299 0.203761
H30   H     H_    0.289989 0.064198 0.784754 0.206495
H31   H     H_    0.210018 0.564134 0.220973 0.205838
H32   H     H_    0.789983 0.564177 0.784323 0.203526
C93   C     C_R   0.770707 0.036877 0.272899 0.467314
C94   C     C_R   0.229298 0.036874 0.727099 0.466836
C95   C     C_R   0.270690 0.536697 0.280225 0.453120
C96   C     C_R   0.729294 0.536863 0.726978 0.467556
C97   C     C_R   0.793434 0.999190 0.291728 -0.177153
C98   C     C_R   0.206567 0.999185 0.708224 -0.177714
C99   C     C_R   0.293415 0.499063 0.298064 -0.179737
C100  C     C_R   0.706565 0.499187 0.708407 -0.176966
C101  C     C_R   0.772520 0.960543 0.267119 0.280819
C102  C     C_R   0.227479 0.960536 0.732784 0.280519
C103  C     C_R   0.272524 0.460618 0.270358 0.292057
C104  C     C_R   0.727479 0.460553 0.733287 0.280235
C105  C     C_1   0.661966 0.998527 0.161115 0.025340
C106  C     C_1   0.338035 0.998522 0.838872 0.029821
C107  C     C_1   0.161992 0.498719 0.161615 0.027444
C108  C     C_1   0.838034 0.498525 0.838927 0.026729
C109  C     C_1   0.837987 0.999732 0.337410 0.060700
C110  C     C_1   0.162014 0.999731 0.662559 0.060831
C111  C     C_1   0.337980 0.499719 0.341080 0.072082
C112  C     C_1   0.662013 0.499726 0.662679 0.060421
C113  C     C_1   0.875237 0.999982 0.375099 -0.118235
C114  C     C_1   0.124763 0.999984 0.624886 -0.118045
C115  C     C_1   0.375229 0.499986 0.376765 -0.114416
C116  C     C_1   0.624763 0.499981 0.624947 -0.118003
C117  C     C_1   0.624699 0.999355 0.124123 -0.124901
C118  C     C_1   0.375302 0.999351 0.875875 -0.116472
C119  C     C_1   0.124718 0.499487 0.124206 -0.120587
C120  C     C_1   0.875301 0.499353 0.875888 -0.121037
O17   O     O_R   0.034440 0.939000 0.034360 -0.610016
O18   O     O_R   0.965560 0.939000 0.965640 -0.611308
O19   O     O_R   0.534440 0.439000 0.034360 -0.611699
O20   O     O_R   0.465560 0.439000 0.965640 -0.609474
C121  C     C_R   0.000001 0.919364 0.999978 0.872532
C122  C     C_R   0.500004 0.419365 0.000082 0.872302
O21   O     O_R   0.034440 0.999990 0.942780 -0.547988
O22   O     O_R   0.965560 0.999990 0.057220 -0.548289
O23   O     O_R   0.534440 0.499990 0.942780 -0.548263
O24   O     O_R   0.465560 0.499990 0.057220 -0.546848
O25   O     O_R   0.965580 0.000000 0.873940 -0.635384
O26   O     O_R   0.034420 1.000000 0.126060 -0.635336
O27   O     O_R   0.465580 0.500000 0.873940 -0.635362
O28   O     O_R   0.534420 0.500000 0.126060 -0.635458
C123  C     C_R   0.000149 0.999688 0.879665 0.919528
C124  C     C_R   0.999850 0.999686 0.120333 0.920070
C125  C     C_R   0.500150 0.499685 0.879667 0.919830
C126  C     C_R   0.499836 0.499727 0.120354 0.917917
Zn5   Zn    Zn3+2 0.045990 0.999980 0.045940 1.078683
Zn6   Zn    Zn3+2 0.954010 0.999980 0.954060 1.078846
Zn7   Zn    Zn3+2 0.545990 0.499980 0.045940 1.076880
Zn8   Zn    Zn3+2 0.454010 0.499980 0.954060 1.079924
O29   O     O_R   0.034440 0.060970 0.034440 -0.599132
O30   O     O_R   0.965560 0.060970 0.965560 -0.596702
O31   O     O_R   0.534440 0.560970 0.034440 -0.599228
O32   O     O_R   0.465560 0.560970 0.965560 -0.597144
C127  C     C_R   0.000003 0.080629 0.999953 0.919305
C128  C     C_R   0.500003 0.580629 0.999944 0.918435
O33   O     O_R   0.500020 0.939060 0.051770 -0.589716
O34   O     O_R   0.499980 0.939060 0.948230 -0.598378
O35   O     O_R   0.000020 0.439060 0.051770 -0.589808
O36   O     O_R   0.999980 0.439060 0.948230 -0.597413
C129  C     C_R   0.499955 0.919572 0.999973 0.872182
C130  C     C_R   0.999954 0.419572 0.999971 0.871676
O37   O     O_R   0.561000 0.000050 0.112670 -0.603580
O38   O     O_R   0.439000 0.000050 0.887330 -0.600162
O39   O     O_R   0.061000 0.500050 0.112670 -0.601628
O40   O     O_R   0.939000 0.500050 0.887330 -0.602444
O41   O     O_R   0.561000 0.999980 0.009230 -0.600843
O42   O     O_R   0.439000 0.999980 0.990770 -0.597005
O43   O     O_R   0.061000 0.499980 0.009230 -0.598371
O44   O     O_R   0.939000 0.499980 0.990770 -0.598951
C131  C     C_R   0.580511 0.000000 0.080299 0.881433
C132  C     C_R   0.419489 0.999999 0.919701 0.891703
C133  C     C_R   0.080518 0.500036 0.080305 0.886626
C134  C     C_R   0.919489 0.499998 0.919702 0.886003
Zn9   Zn    Zn3+2 0.500010 0.000060 0.069050 1.097717
Zn10  Zn    Zn3+2 0.499990 0.000060 0.930950 1.093397
Zn11  Zn    Zn3+2 0.000010 0.500060 0.069050 1.099425
Zn12  Zn    Zn3+2 0.999990 0.500060 0.930950 1.092683
O45   O     O_R   0.500000 0.061030 0.051640 -0.594684
O46   O     O_R   0.500000 0.061030 0.948360 -0.592263
O47   O     O_R   0.000000 0.561030 0.051640 -0.592260
O48   O     O_R   0.000000 0.561030 0.948360 -0.594772
C135  C     C_R   0.499959 0.080546 0.999955 0.871240
C136  C     C_R   0.000037 0.580546 0.000040 0.871107
C137  C     C_R   0.492566 0.227998 0.048661 0.257501
C138  C     C_R   0.500892 0.228052 0.944424 0.258538
C139  C     C_R   0.998928 0.728014 0.055507 0.258314
C140  C     C_R   0.008174 0.728024 0.952340 0.257836
C141  C     C_R   0.495976 0.206480 0.995652 -0.287073
C142  C     C_R   0.004228 0.706472 0.004715 -0.287168
C143  C     C_R   0.006559 0.771642 0.950141 0.369060
C144  C     C_R   0.996953 0.771617 0.053503 0.366315
C145  C     C_R   0.502976 0.271649 0.946570 0.365871
C146  C     C_R   0.494345 0.271610 0.051066 0.369803
C147  C     C_R   0.000895 0.793463 0.000822 -0.198675
C148  C     C_R   0.499509 0.293461 0.999811 -0.198619
C149  C     C_1   0.497601 0.161928 0.997465 0.183959
C150  C     C_1   0.002502 0.661924 0.002704 0.183891
C151  C     C_1   0.000311 0.838030 0.000199 -0.035646
C152  C     C_1   0.499883 0.338030 0.000212 -0.033840
C153  C     C_1   0.000052 0.875262 0.999969 -0.185437
C154  C     C_1   0.500004 0.375262 0.000247 -0.185344
C155  C     C_1   0.498885 0.124692 0.998856 -0.068504
C156  C     C_1   0.001156 0.624691 0.001195 -0.068465
C157  C     C_R   0.478920 0.772050 0.931034 0.259859
C158  C     C_R   0.515730 0.772151 0.066671 0.258732
C159  C     C_R   0.980757 0.272051 0.931241 0.259833
C160  C     C_R   0.013597 0.272150 0.065959 0.258391
C161  C     C_R   0.496630 0.793642 0.998679 -0.284434
C162  C     C_R   0.996470 0.293643 0.998350 -0.284443
C163  C     C_R   0.015456 0.228548 0.066932 0.377466
C164  C     C_R   0.982478 0.228442 0.931503 0.376431
C165  C     C_R   0.517559 0.728550 0.067451 0.377325
C166  C     C_R   0.480585 0.728441 0.931095 0.376447
C167  C     C_R   0.999712 0.206643 0.999485 -0.200011
C168  C     C_R   0.499787 0.706644 0.999457 -0.200186
C169  C     C_1   0.497967 0.838192 0.998867 0.188362
C170  C     C_1   0.997876 0.338193 0.998702 0.188323
C171  C     C_1   0.999937 0.162035 0.999671 0.007404
C172  C     C_1   0.499967 0.662035 0.999620 0.007398
C173  C     C_1   0.000003 0.124779 0.999819 -0.136085
C174  C     C_1   0.500010 0.624779 0.999778 -0.136386
C175  C     C_1   0.499043 0.875429 0.999259 -0.065040
C176  C     C_1   0.999002 0.375429 0.999201 -0.064922
N1    N     N_R   0.795524 0.922117 0.286141 0.254638
O49   O     O_R   0.826568 0.918349 0.278690 -0.287568
O50   O     O_R   0.784235 0.890023 0.307570 -0.269507
N2    N     N_R   0.204473 0.922107 0.713701 0.255008
O51   O     O_R   0.173424 0.918311 0.721133 -0.286734
O52   O     O_R   0.215763 0.890036 0.692231 -0.266107
N3    N     N_R   0.295564 0.422271 0.288510 0.265266
O53   O     O_R   0.325707 0.414192 0.356735 -0.347829
O54   O     O_R   0.285254 0.394399 0.237463 -0.219938
N4    N     N_R   0.704475 0.422137 0.714545 0.254950
O55   O     O_R   0.673401 0.418505 0.721945 -0.286796
O56   O     O_R   0.715789 0.389924 0.693426 -0.267096
O57   O     O_3   0.709354 0.921162 0.199304 -0.660972
H33   H     H_    0.678737 0.924403 0.169495 0.350872
O58   O     O_3   0.290642 0.921150 0.800552 -0.655279
H34   H     H_    0.321260 0.924390 0.830352 0.354651
O59   O     O_3   0.209410 0.421414 0.199421 -0.666944
H35   H     H_    0.178851 0.424817 0.166738 0.351528
O60   O     O_3   0.790648 0.421193 0.801381 -0.656231
H36   H     H_    0.821265 0.424434 0.831180 0.354575
O61   O     O_3   0.788980 0.075792 0.294999 -0.704784
H37   H     H_    0.819668 0.073367 0.324936 0.346122
O62   O     O_3   0.211029 0.075792 0.705034 -0.703003
H38   H     H_    0.180340 0.073364 0.675025 0.346146
O63   O     O_3   0.288971 0.575436 0.305048 -0.702964
H39   H     H_    0.319547 0.572717 0.338924 0.348913
O64   O     O_3   0.711022 0.575767 0.704640 -0.705078
H40   H     H_    0.680334 0.573351 0.674886 0.346119
O65   O     O_3   0.992340 0.791403 0.105378 -0.671616
H41   H     H_    0.988330 0.821668 0.095927 0.345860
O66   O     O_3   0.011709 0.791419 0.898881 -0.667005
H42   H     H_    0.009996 0.821964 0.901703 0.344504
O67   O     O_3   0.489783 0.291366 0.103032 -0.665989
H43   H     H_    0.492356 0.321863 0.101222 0.344483
O68   O     O_3   0.507176 0.291477 0.894247 -0.671737
H44   H     H_    0.511714 0.321666 0.904256 0.345867
N5    N     N_R   0.487378 0.205644 0.100655 0.258685
O69   O     O_R   0.508407 0.216381 0.170331 -0.266848
O70   O     O_R   0.460381 0.175551 0.078074 -0.339388
N6    N     N_R   0.504142 0.205750 0.890154 0.256477
O71   O     O_R   0.531893 0.216408 0.876823 -0.259302
O72   O     O_R   0.478306 0.175753 0.851704 -0.344639
N7    N     N_R   0.995176 0.705675 0.109183 0.256396
O73   O     O_R   0.967127 0.716360 0.121753 -0.259526
O74   O     O_R   0.020846 0.675615 0.147869 -0.344465
N8    N     N_R   0.013773 0.705702 0.900816 0.258639
O75   O     O_R   0.993186 0.716542 0.831215 -0.267060
O76   O     O_R   0.040717 0.675536 0.923786 -0.339810
O77   O     O_3   0.965875 0.208601 0.863834 -0.661812
H45   H     H_    0.970893 0.178286 0.870603 0.352856
O78   O     O_3   0.031794 0.208824 0.134630 -0.661515
H46   H     H_    0.033886 0.178475 0.130054 0.353008
O79   O     O_3   0.461997 0.708596 0.862981 -0.661305
H47   H     H_    0.467139 0.678290 0.869390 0.353057
O80   O     O_3   0.535908 0.708827 0.135634 -0.661929
H48   H     H_    0.537815 0.678489 0.130641 0.353002
N9    N     N_R   0.090744 0.142411 0.690500 0.237236
O81   O     O_R   0.121833 0.161331 0.694844 -0.311858
O82   O     O_R   0.054291 0.160156 0.653838 -0.325474
N10   N     N_R   0.909440 0.142533 0.309657 0.237448
O83   O     O_R   0.878374 0.161485 0.305342 -0.312498
O84   O     O_R   0.945912 0.160240 0.346324 -0.324964
N11   N     N_R   0.590437 0.642569 0.690105 0.236702
O85   O     O_R   0.621480 0.661537 0.694358 -0.314215
O86   O     O_R   0.553951 0.660245 0.653427 -0.327213
N12   N     N_R   0.402662 0.637065 0.305432 0.237447
O87   O     O_R   0.370835 0.653882 0.301524 -0.311744
O88   O     O_R   0.437978 0.656976 0.340269 -0.326435
N13   N     N_R   0.459282 0.794329 0.861720 0.259263
O89   O     O_R   0.466104 0.783601 0.811444 -0.256641
O90   O     O_R   0.433196 0.824364 0.847313 -0.342108
N14   N     N_R   0.533635 0.794532 0.135577 0.257043
O91   O     O_R   0.569871 0.783941 0.193385 -0.260781
O92   O     O_R   0.513074 0.824506 0.141745 -0.335186
N15   N     N_R   0.963115 0.294332 0.862295 0.259092
O93   O     O_R   0.972165 0.283602 0.814913 -0.256195
O94   O     O_R   0.936631 0.324374 0.845221 -0.342056
N16   N     N_R   0.029455 0.294530 0.134299 0.257352
O95   O     O_R   0.064759 0.283928 0.194296 -0.260358
O96   O     O_R   0.007893 0.324519 0.137630 -0.334519
N17   N     N_R   0.113426 0.984750 0.828972 0.252590
O97   O     O_R   0.089798 0.952982 0.792814 -0.334672
O98   O     O_R   0.140628 0.981820 0.900253 -0.271490
N18   N     N_R   0.886572 0.984898 0.171030 0.252430
O99   O     O_R   0.910158 0.953100 0.207158 -0.335478
O100  O     O_R   0.859372 0.982001 0.099743 -0.272757
N19   N     N_R   0.613463 0.485012 0.829075 0.252555
O101  O     O_R   0.589925 0.453177 0.793002 -0.334995
O102  O     O_R   0.640630 0.482178 0.900382 -0.272537
N20   N     N_R   0.388000 0.479006 0.173269 0.250417
O103  O     O_R   0.413729 0.448677 0.210220 -0.340544
O104  O     O_R   0.359889 0.474404 0.102673 -0.270576
N21   N     N_R   0.182527 0.025287 0.835931 0.235295
O105  O     O_R   0.215608 0.048536 0.864434 -0.334471
O106  O     O_R   0.186777 0.985063 0.836954 -0.281214
N22   N     N_R   0.817523 0.025503 0.164139 0.235189
O107  O     O_R   0.784468 0.048785 0.135689 -0.336461
O108  O     O_R   0.813227 0.985282 0.163046 -0.282311
N23   N     N_R   0.682479 0.525668 0.835892 0.235159
O109  O     O_R   0.715503 0.548986 0.864197 -0.336655
O110  O     O_R   0.686827 0.485448 0.837201 -0.281443
N24   N     N_R   0.317626 0.514720 0.167987 0.234395
O111  O     O_R   0.283103 0.535723 0.138519 -0.342456
O112  O     O_R   0.316246 0.474362 0.171424 -0.291665
O113  O     O_3   0.057303 0.048647 0.874596 -0.726461
H49   H     H_    0.071913 0.069055 0.862639 0.353214
O114  O     O_3   0.942780 0.048741 0.125467 -0.725270
H50   H     H_    0.928201 0.069171 0.137452 0.353797
O115  O     O_3   0.557191 0.548775 0.874503 -0.726664
H51   H     H_    0.571760 0.569214 0.862507 0.353004
O116  O     O_3   0.440946 0.546646 0.124160 -0.724172
H52   H     H_    0.425622 0.566397 0.135626 0.354143
O117  O     O_3   0.827480 0.930138 0.651793 -0.719458
H53   H     H_    0.822257 0.954940 0.620465 0.345001
O118  O     O_3   0.172317 0.929715 0.347791 -0.717724
H54   H     H_    0.177627 0.954554 0.379085 0.345380
O119  O     O_3   0.327715 0.429539 0.652042 -0.717257
H55   H     H_    0.322398 0.454349 0.620679 0.346320
O120  O     O_3   0.673711 0.432653 0.349180 -0.719147
H56   H     H_    0.678637 0.457447 0.380353 0.345015

loop_
_geom_bond_atom_site_label_1
_geom_bond_atom_site_label_2
_geom_bond_distance
_ccdc_geom_bond_type
C63   C67   1.399501 A    
C37   C123  1.438252 S    
C157  C161  1.407706 A    
C27   C31   1.404797 A    
O28   Zn7   2.018546 S    
O62   H38   0.988208 S    
C88   C92   1.394219 A    
C70   C74   1.397086 A    
N13   O89   1.301341 A    
C127  C173  1.418170 S    
C57   C77   1.404471 A    
O67   H43   0.987625 S    
C85   C89   1.394226 A    
O41   Zn10  1.995987 S    
C59   C79   1.404463 A    
C6    C50   1.426596 S    
C160  C162  1.407745 A    
C167  C171  1.432930 S    
C164  C167  1.418424 A    
Zn11  O47   1.994392 S    
C148  C152  1.431683 S    
O47   C136  1.282261 A    
C16   C20   1.400976 A    
H3    C31   1.082093 S    
C97   C101  1.413776 A    
C105  C117  1.196554 T    
C94   C98   1.415719 A    
C100  C104  1.413815 A    
N2    O51   1.301318 A    
C42   C46   1.380141 A    
C139  C144  1.402040 A    
O24   Zn8   2.020982 S    
C99   C103  1.413403 A    
O4    C4    1.272946 A    
C168  C172  1.432927 S    
C42   C78   1.482647 S    
C158  C161  1.407740 A    
C3    C115  1.417001 S    
C82   C86   1.414573 A    
C102  N2    1.440687 S    
C45   C49   1.389996 A    
C163  C167  1.418306 A    
C146  C148  1.418250 A    
C87   C107  1.428998 S    
O80   H48   0.987760 S    
C112  C116  1.195861 T    
N14   O91   1.301334 A    
O33   Zn9   1.994931 S    
C83   O59   1.384819 S    
O16   Zn4   2.018033 S    
N8    O75   1.301339 A    
C62   C66   1.399500 A    
O17   Zn5   1.993562 S    
O13   C5    1.269289 A    
O7    Zn4   1.992021 S    
O28   C126  1.271133 A    
O15   C7    1.269335 A    
C157  N13   1.440623 S    
C25   N21   1.440408 S    
O43   Zn12  1.995987 S    
O4    Zn2   1.992642 S    
O68   H44   0.987848 S    
C40   C44   1.411165 A    
N18   O99   1.301043 A    
C140  C142  1.407813 A    
C108  C120  1.196555 T    
C64   O120  1.378893 S    
O9    C5    1.265873 A    
O18   C121  1.272848 A    
C11   N11   1.440173 S    
C33   C53   1.402437 A    
C81   C85   1.414578 A    
N1    O50   1.301285 A    
O117  H53   0.991803 S    
O8    Zn4   1.991995 S    
C158  N14   1.440589 S    
C13   C17   1.400980 A    
O118  H54   0.991801 S    
C120  C134  1.418554 S    
C15   C19   1.400977 A    
C146  O67   1.386228 S    
C161  C169  1.431892 S    
C171  C173  1.196745 T    
C149  C155  1.196803 T    
O3    Zn2   1.992622 S    
C52   C56   1.405323 A    
O114  H50   0.988811 S    
C75   H27   1.083236 S    
C140  N8    1.440571 S    
O39   C133  1.283558 A    
C159  C164  1.402236 A    
C38   C42   1.410406 A    
C21   C25   1.415635 A    
C1    C113  1.416740 S    
C139  C142  1.407800 A    
C23   C27   1.415675 A    
C23   N19   1.435431 S    
O3    C3    1.272973 A    
C33   C37   1.409411 A    
C20   C24   1.413788 A    
O21   C123  1.268717 A    
C61   O117  1.378893 S    
O79   H47   0.987786 S    
C10   C30   1.403274 A    
C45   H9    1.085715 S    
O32   C128  1.273250 A    
O24   C126  1.268660 A    
C65   C69   1.396725 A    
O19   Zn7   1.993562 S    
C109  C113  1.195856 T    
N17   O97   1.301040 A    
O40   Zn12  1.991466 S    
C17   C53   1.488025 S    
C64   C68   1.399579 A    
C157  C166  1.402242 A    
N24   O111  1.301486 A    
O5    C1    1.273398 A    
C34   C54   1.402452 A    
C82   O58   1.384856 S    
C36   C40   1.410505 A    
C67   C71   1.396724 A    
O45   C135  1.282393 A    
C60   H16   1.083570 S    
N22   O107  1.301500 A    
C71   C75   1.397085 A    
C74   H26   1.083236 S    
O34   Zn10  1.994889 S    
N9    O82   1.301617 A    
O5    Zn3   1.992021 S    
C91   H31   1.084747 S    
C129  C175  1.418265 S    
N5    O70   1.301370 A    
C130  C176  1.418285 S    
C36   O116  1.386531 S    
C70   H22   1.081523 S    
O8    C4    1.273386 A    
O20   C122  1.272923 A    
C122  C154  1.416659 S    
O30   C127  1.273233 A    
N6    O72   1.301365 A    
O29   C127  1.273114 A    
C117  C131  1.418562 S    
C65   H17   1.082707 S    
C34   C38   1.409366 A    
O13   Zn3   2.018077 S    
C137  C141  1.407868 A    
O44   C134  1.283667 A    
C68   C72   1.396754 A    
N12   O87   1.301624 A    
C106  C118  1.196545 T    
C159  C162  1.407707 A    
C150  C156  1.196798 T    
C19   C55   1.488057 S    
C95   C99   1.415549 A    
C104  N4    1.440718 S    
O63   H39   0.988386 S    
C159  N15   1.440627 S    
C94   O62   1.383491 S    
N16   O96   1.301368 A    
C84   C88   1.414573 A    
O61   H37   0.988213 S    
O21   Zn5   2.020984 S    
C82   C102  1.405385 A    
N20   O104  1.301093 A    
O15   Zn4   2.018077 S    
C142  C150  1.432042 S    
C160  C163  1.401997 A    
C86   C106  1.428638 S    
N7    O74   1.301366 A    
N17   O98   1.301084 A    
C72   H24   1.081733 S    
C164  O77   1.385984 S    
C96   O64   1.383501 S    
N19   O102  1.301084 A    
O14   C6    1.269313 A    
C48   H12   1.085714 S    
C5    C49   1.426522 S    
N10   O83   1.301614 A    
C67   H19   1.082708 S    
C145  O68   1.386044 S    
O27   C125  1.270361 A    
C136  C156  1.418454 S    
C26   N22   1.440418 S    
C2    C114  1.416754 S    
O48   C136  1.282434 A    
C144  C147  1.418141 A    
C9    N9    1.440171 S    
C165  C168  1.418284 A    
O10   C6    1.265886 A    
N15   O94   1.301382 A    
C81   C101  1.405370 A    
Zn8   O32   1.993876 S    
C47   H11   1.085716 S    
C90   C94   1.389249 A    
C35   O115  1.386707 S    
C152  C154  1.195972 T    
C85   C105  1.428649 S    
C13   H5    1.083172 S    
Zn5   O29   1.993895 S    
C14   C18   1.400977 A    
C59   H15   1.083585 S    
C88   C108  1.428649 S    
C16   H8    1.083148 S    
C162  C170  1.431915 S    
N2    O52   1.301284 A    
C145  C148  1.418065 A    
O58   H34   0.988388 S    
O33   C129  1.283685 A    
N4    O55   1.301319 A    
C138  C145  1.402009 A    
C59   C63   1.409341 A    
C73   C77   1.403766 A    
O1    Zn1   1.992622 S    
C49   C53   1.406495 A    
O18   Zn6   1.993581 S    
C75   C79   1.403761 A    
C51   C55   1.406571 A    
O39   Zn11  1.991470 S    
N3    O53   1.301329 A    
O27   Zn8   2.018549 S    
N7    O73   1.301333 A    
C166  O79   1.385969 S    
C43   C79   1.482687 S    
O25   Zn6   2.018549 S    
C48   C52   1.389608 A    
C69   C73   1.397104 A    
O116  H52   0.988929 S    
N21   O106  1.301093 A    
C22   C26   1.415636 A    
C107  C119  1.196772 T    
Zn6   O30   1.993876 S    
C89   C93   1.389255 A    
N14   O92   1.301369 A    
C84   O60   1.384858 S    
C118  C132  1.418543 S    
N8    O76   1.301369 A    
C11   C31   1.403268 A    
O22   C124  1.268680 A    
C110  C114  1.195862 T    
O23   C125  1.268677 A    
C121  C153  1.416666 S    
O34   C129  1.284283 A    
N18   O100  1.301084 A    
C20   C56   1.487931 S    
C41   C45   1.380155 A    
O23   Zn7   2.020984 S    
C38   C124  1.438182 S    
C158  C165  1.401979 A    
C41   C77   1.482723 S    
N1    O49   1.301319 A    
C22   N18   1.435451 S    
C46   C50   1.390029 A    
N13   O90   1.301385 A    
C58   H14   1.083583 S    
O19   C122  1.272658 A    
O12   Zn2   2.018924 S    
C98   C110  1.430621 S    
O35   C130  1.283716 A    
C96   C100  1.415710 A    
O1    C1    1.272924 A    
C103  N3    1.440336 S    
C90   H30   1.084774 S    
O64   H40   0.988211 S    
C28   N24   1.439867 S    
C19   C23   1.413718 A    
C50   C54   1.406542 A    
C9    C13   1.401908 A    
C28   C32   1.404515 A    
O31   C128  1.273100 A    
C11   C15   1.401902 A    
N11   O85   1.301610 A    
C4    C116  1.416751 S    
O59   H35   0.988389 S    
O44   Zn11  1.995990 S    
O25   C123  1.270367 A    
O60   H36   0.988389 S    
C40   C126  1.439526 S    
O37   C131  1.283448 A    
N23   O110  1.301086 A    
C119  C133  1.418938 S    
C93   O61   1.383490 S    
C139  N7    1.440581 S    
H1    C29   1.082078 S    
C66   C70   1.396726 A    
C97   C109  1.430614 S    
H4    C32   1.082223 S    
O46   C135  1.282302 A    
C68   H20   1.082706 S    
C72   C76   1.396977 A    
O119  H55   0.991799 S    
C89   H29   1.084771 S    
C25   C29   1.404775 A    
O36   Zn12  1.994889 S    
C143  C147  1.418342 A    
C92   H32   1.084770 S    
O6    C2    1.273395 A    
N24   O112  1.301291 A    
C76   C80   1.403982 A    
C14   H6    1.083173 S    
O42   Zn9   1.995990 S    
C87   C91   1.394518 A    
C83   C103  1.405232 A    
C144  O65   1.386100 S    
C47   C51   1.390027 A    
C37   C41   1.410499 A    
N22   O108  1.301093 A    
O2    Zn1   1.992642 S    
C39   C43   1.410423 A    
O10   Zn1   2.018924 S    
N9    O81   1.301611 A    
C160  N16   1.440593 S    
C63   O119  1.378893 S    
Zn9   O45   1.994392 S    
O78   H46   0.987752 S    
C172  C174  1.196745 T    
N5    O69   1.301336 A    
C46   H10   1.085711 S    
O20   Zn8   1.993581 S    
C137  C146  1.402133 A    
C36   C56   1.402069 A    
C93   C97   1.415716 A    
O38   Zn10  1.991466 S    
O41   C131  1.283687 A    
N15   O93   1.301345 A    
O65   H41   0.987794 S    
O12   C8    1.266033 A    
N23   O109  1.301502 A    
C44   C48   1.380287 A    
C92   C96   1.389246 A    
O7    C3    1.273504 A    
C91   C95   1.389626 A    
C34   O114  1.386708 S    
C44   C80   1.483059 S    
C62   O118  1.378893 S    
N3    O54   1.301287 A    
C169  C175  1.196692 T    
C83   C87   1.414594 A    
C170  C176  1.196706 T    
N12   O88   1.301606 A    
Zn12  O48   1.994434 S    
C10   N10   1.440173 S    
O35   Zn11  1.994931 S    
C138  C141  1.407801 A    
C73   H25   1.083233 S    
C84   C104  1.405409 A    
C76   H28   1.083247 S    
N19   O101  1.301039 A    
C151  C153  1.195994 T    
C17   C21   1.413717 A    
C69   H21   1.081554 S    
C27   N23   1.440454 S    
O11   C7    1.265874 A    
O38   C132  1.283443 A    
C57   H13   1.083583 S    
O9    Zn1   2.018880 S    
O77   H45   0.987776 S    
C60   C80   1.404478 A    
C58   C78   1.404444 A    
C35   C39   1.409366 A    
O26   Zn5   2.018546 S    
O42   C132  1.283686 A    
C12   C16   1.402297 A    
N10   O84   1.301614 A    
O22   Zn6   2.020982 S    
O66   H42   0.987576 S    
O43   C133  1.283775 A    
O11   Zn2   2.018880 S    
C15   H7    1.083175 S    
C95   O63   1.383427 S    
C21   N17   1.435456 S    
O57   H33   0.988385 S    
C135  C155  1.418459 S    
C140  C143  1.402094 A    
O26   C124  1.270368 A    
C57   C61   1.409338 A    
C111  C115  1.196019 T    
C138  N6    1.440579 S    
O6    Zn3   1.991995 S    
O17   C121  1.272738 A    
C143  O66   1.386267 S    
C81   O57   1.384848 S    
N11   O86   1.301617 A    
C24   N20   1.435786 S    
O115  H51   0.988809 S    
C100  C112  1.430628 S    
C141  C149  1.432045 S    
O36   C130  1.284264 A    
C99   C111  1.430917 S    
C7    C51   1.426609 S    
N4    O56   1.301287 A    
O2    C2    1.272932 A    
C166  C168  1.418410 A    
Zn10  O46   1.994434 S    
N6    O71   1.301334 A    
C60   C64   1.409414 A    
C26   C30   1.404783 A    
C9    C29   1.403267 A    
C35   C55   1.402457 A    
C10   C14   1.401909 A    
C101  N1    1.440684 S    
O14   Zn3   2.018033 S    
C12   C32   1.403437 A    
C86   C90   1.394219 A    
C71   H23   1.081528 S    
C39   C125  1.438175 S    
N21   O105  1.301497 A    
C18   C22   1.413715 A    
O37   Zn9   1.991470 S    
O40   C134  1.283473 A    
C8    C52   1.425307 S    
O113  H49   0.988805 S    
C43   C47   1.380152 A    
N16   O95   1.301334 A    
Zn7   O31   1.993895 S    
H2    C30   1.082081 S    
C128  C174  1.418172 S    
C165  O80   1.386011 S    
C66   H18   1.082708 S    
N20   O103  1.301037 A    
O16   C8    1.268301 A    
C61   C65   1.399488 A    
C137  N5    1.440568 S    
C33   O113  1.386712 S    
C24   C28   1.415103 A    
C147  C151  1.431683 S    
C98   C102  1.413789 A    
C12   N12   1.440113 S    
C74   C78   1.403749 A    
C58   C62   1.409348 A    
C163  O78   1.386026 S    
O120  H56   0.991799 S    
C18   C54   1.488017 S    
