data_mof_unit_9321.cif
_audit_creation_date              2013-03-05T15:39:55-0500
_audit_creation_method            fapswitch 2.2
_symmetry_space_group_name_H-M    P1
_symmetry_Int_Tables_number       1
_space_group_crystal_system       triclinic
_cell_length_a                    27.629801
_cell_length_b                    27.589191
_cell_length_c                    27.6015
_cell_angle_alpha                 89.927371
_cell_angle_beta                  90.110299
_cell_angle_gamma                 89.959587
_cell_volume                      21040.1167202

loop_
_atom_site_label
_atom_site_type_symbol
_atom_site_description
_atom_site_fract_x
_atom_site_fract_y
_atom_site_fract_z
_atom_type_partial_charge
C1    C     C_R   0.029619 0.087444 0.028383 0.073301
C2    C     C_R   0.031955 0.031619 0.093209 0.076858
C3    C     C_R   0.089372 0.026684 0.030441 0.074373
N1    N     N_R   0.011652 0.070206 0.070558 -0.116890
N2    N     N_R   0.070489 0.009516 0.072515 -0.115294
N3    N     N_R   0.068552 0.065448 0.008160 -0.107942
C4    C     C_R   0.949371 0.110069 0.996547 -0.228347
C5    C     C_R   0.023686 0.967614 0.157424 -0.228373
C6    C     C_R   0.159013 0.016857 0.974193 -0.230672
C7    C     C_R   0.955856 0.018324 0.137810 -0.220277
C8    C     C_R   0.018562 0.156983 0.971206 -0.231970
C9    C     C_R   0.115608 0.946144 0.002137 -0.230978
C10   C     C_R   0.918980 0.136241 0.965536 0.012249
C11   C     C_R   0.994016 0.938223 0.186616 0.019414
C12   C     C_R   0.187866 0.987736 0.944288 0.014305
C13   C     C_R   0.924708 0.988295 0.163711 0.012946
C14   C     C_R   0.988606 0.185847 0.941800 0.015661
C15   C     C_R   0.141677 0.916563 0.970561 0.010994
C16   C     C_R   0.938268 0.175210 0.938033 0.000778
C17   C     C_R   0.942720 0.945979 0.187557 0.000254
C18   C     C_R   0.178231 0.937232 0.940864 0.001452
C19   C     C_R   0.998983 0.119691 0.999074 0.130292
C20   C     C_R   0.004459 0.006769 0.131747 0.119248
C21   C     C_R   0.123118 0.996230 0.003126 0.129825
H1    H     H_    0.934631 0.079748 0.016764 0.132327
H2    H     H_    0.061990 0.959598 0.154439 0.133177
H3    H     H_    0.165169 0.055643 0.975702 0.131085
H4    H     H_    0.940565 0.049189 0.118749 0.136593
H5    H     H_    0.057035 0.164436 0.973399 0.131188
H6    H     H_    0.086934 0.930289 0.023758 0.134354
C22   C     C_R   0.915987 0.743872 0.221403 -0.133828
C23   C     C_R   0.221141 0.915977 0.743907 -0.133343
C24   C     C_R   0.742529 0.224801 0.917637 -0.112392
C25   C     C_R   0.917467 0.224663 0.741678 -0.128315
C26   C     C_R   0.223835 0.742233 0.917158 -0.108307
C27   C     C_R   0.743003 0.916669 0.222575 -0.126492
H7    H     H_    0.951053 0.761128 0.220929 0.098875
H8    H     H_    0.220513 0.951048 0.761224 0.094193
H9    H     H_    0.760153 0.226137 0.952575 0.087584
H10   H     H_    0.952723 0.225410 0.758626 0.089331
H11   H     H_    0.223887 0.759563 0.952226 0.093508
H12   H     H_    0.760756 0.951570 0.221901 0.106045
N4    N     N_R   0.877910 0.758550 0.247710 -0.039331
N5    N     N_R   0.247710 0.877910 0.758550 -0.039342
N6    N     N_R   0.758550 0.247710 0.877910 -0.041444
N7    N     N_R   0.877910 0.247710 0.758550 -0.039589
N8    N     N_R   0.247710 0.758550 0.877910 -0.041904
N9    N     N_R   0.758550 0.877910 0.247710 -0.040549
C28   C     C_R   0.686284 0.861175 0.223745 -0.121967
C29   C     C_R   0.223457 0.686511 0.860701 -0.133861
C30   C     C_R   0.860791 0.224090 0.686212 -0.129897
C31   C     C_R   0.685840 0.225199 0.862190 -0.125194
C32   C     C_R   0.221685 0.860325 0.687237 -0.122653
C33   C     C_R   0.860401 0.687167 0.221962 -0.120130
H13   H     H_    0.651226 0.843888 0.223949 0.084306
H14   H     H_    0.224049 0.651391 0.843452 0.089949
H15   H     H_    0.843325 0.224977 0.651171 0.087466
H16   H     H_    0.650763 0.225869 0.844848 0.085894
H17   H     H_    0.220659 0.842798 0.652280 0.086606
H18   H     H_    0.842986 0.652145 0.221087 0.086145
N10   N     N_R   0.725540 0.845080 0.247770 -0.039277
N11   N     N_R   0.247770 0.725540 0.845080 -0.039425
N12   N     N_R   0.845080 0.247770 0.725540 -0.039135
N13   N     N_R   0.725540 0.247770 0.845080 -0.040115
N14   N     N_R   0.247770 0.845080 0.725540 -0.040440
N15   N     N_R   0.845080 0.725540 0.247770 -0.040104
C34   C     C_R   0.742307 0.686475 0.223487 -0.118664
C35   C     C_R   0.224392 0.741711 0.686085 -0.122225
C36   C     C_R   0.686259 0.224089 0.741915 -0.121486
C37   C     C_R   0.742761 0.223670 0.686416 -0.130386
C38   C     C_R   0.223835 0.686308 0.742807 -0.129457
C39   C     C_R   0.686719 0.743023 0.222957 -0.126837
H19   H     H_    0.759680 0.651402 0.223550 0.084610
H20   H     H_    0.224885 0.758825 0.650870 0.084558
H21   H     H_    0.651240 0.224243 0.759266 0.085927
H22   H     H_    0.760123 0.224376 0.651388 0.087835
H23   H     H_    0.224643 0.651271 0.760306 0.088357
H24   H     H_    0.651719 0.760489 0.223240 0.087306
N16   N     N_R   0.758420 0.725600 0.247730 -0.039985
N17   N     N_R   0.247730 0.758420 0.725600 -0.039789
N18   N     N_R   0.725600 0.247730 0.758420 -0.039576
N19   N     N_R   0.758420 0.247730 0.725600 -0.039279
N20   N     N_R   0.247730 0.725600 0.758420 -0.038751
N21   N     N_R   0.725600 0.758420 0.247730 -0.039383
C40   C     C_R   0.862160 0.918493 0.227088 -0.120316
C41   C     C_R   0.223902 0.860620 0.917185 -0.111811
C42   C     C_R   0.916208 0.221361 0.859809 -0.116071
C43   C     C_R   0.860774 0.222208 0.916534 -0.113509
C44   C     C_R   0.222307 0.916517 0.860848 -0.118449
C45   C     C_R   0.917054 0.861906 0.224011 -0.121893
H25   H     H_    0.845264 0.953238 0.232066 0.106112
H26   H     H_    0.224944 0.843329 0.952305 0.099483
H27   H     H_    0.950355 0.219174 0.841071 0.109568
H28   H     H_    0.843652 0.221668 0.951685 0.096829
H29   H     H_    0.220472 0.951151 0.842791 0.108528
H30   H     H_    0.950356 0.842090 0.221474 0.118801
N22   N     N_R   0.845030 0.878030 0.247760 -0.043098
N23   N     N_R   0.247760 0.845030 0.878030 -0.044113
N24   N     N_R   0.878030 0.247760 0.845030 -0.042728
N25   N     N_R   0.845030 0.247760 0.878030 -0.043965
N26   N     N_R   0.247760 0.878030 0.845030 -0.042301
N27   N     N_R   0.878030 0.845030 0.247760 -0.042718
C46   C     C_R   0.905329 0.698594 0.203249 0.031305
C47   C     C_R   0.202820 0.905282 0.698661 0.030669
C48   C     C_R   0.695925 0.209214 0.908707 0.028062
C49   C     C_R   0.907051 0.207945 0.695602 0.031257
C50   C     C_R   0.206783 0.696333 0.906691 0.028176
C51   C     C_R   0.696786 0.906694 0.206019 0.027800
C52   C     C_R   0.696597 0.697069 0.205967 0.031108
C53   C     C_R   0.207530 0.695689 0.696552 0.030277
C54   C     C_R   0.696650 0.207219 0.695918 0.030118
C55   C     C_R   0.908516 0.909819 0.210012 0.041370
C56   C     C_R   0.205463 0.905889 0.906931 0.029375
C57   C     C_R   0.906023 0.203598 0.905523 0.026476
C58   C     C_R   0.917205 0.861544 0.379735 -0.119524
C59   C     C_R   0.382233 0.916061 0.859752 -0.129122
C60   C     C_R   0.861057 0.380379 0.916946 -0.118958
C61   C     C_R   0.916587 0.381026 0.860393 -0.126468
C62   C     C_R   0.381614 0.860379 0.916425 -0.121991
C63   C     C_R   0.860570 0.917028 0.380244 -0.130022
H31   H     H_    0.952341 0.844397 0.379488 0.082967
H32   H     H_    0.382827 0.951148 0.842393 0.089096
H33   H     H_    0.843785 0.380433 0.952006 0.084923
H34   H     H_    0.951572 0.381020 0.843004 0.088083
H35   H     H_    0.382412 0.842953 0.951473 0.085486
H36   H     H_    0.843105 0.952061 0.379710 0.086965
N28   N     N_R   0.877970 0.845080 0.355840 -0.038381
N29   N     N_R   0.355840 0.877970 0.845080 -0.036761
N30   N     N_R   0.845080 0.355840 0.877970 -0.040335
N31   N     N_R   0.877970 0.355840 0.845080 -0.037251
N32   N     N_R   0.355840 0.845080 0.877970 -0.040064
N33   N     N_R   0.845080 0.877970 0.355840 -0.038997
C64   C     C_R   0.687232 0.743169 0.381672 -0.119195
C65   C     C_R   0.380568 0.686609 0.743146 -0.124875
C66   C     C_R   0.741714 0.379150 0.685980 -0.118992
C67   C     C_R   0.686194 0.379467 0.742493 -0.129840
C68   C     C_R   0.379940 0.742237 0.686436 -0.119988
C69   C     C_R   0.743868 0.687414 0.382315 -0.128390
H37   H     H_    0.652267 0.760663 0.382513 0.086239
H38   H     H_    0.380404 0.651613 0.760749 0.088280
H39   H     H_    0.758896 0.378814 0.650859 0.085109
H40   H     H_    0.651098 0.378381 0.759631 0.087215
H41   H     H_    0.379822 0.759536 0.651322 0.083967
H42   H     H_    0.761281 0.652362 0.383049 0.089476
N34   N     N_R   0.725530 0.758500 0.355850 -0.040064
N35   N     N_R   0.355850 0.725530 0.758500 -0.039136
N36   N     N_R   0.758500 0.355850 0.725530 -0.039565
N37   N     N_R   0.725530 0.355850 0.758500 -0.038470
N38   N     N_R   0.355850 0.758500 0.725530 -0.039909
N39   N     N_R   0.758500 0.725530 0.355850 -0.039448
C70   C     C_R   0.860593 0.687097 0.381499 -0.124315
C71   C     C_R   0.381629 0.860283 0.687211 -0.120589
C72   C     C_R   0.687574 0.382383 0.859515 -0.129182
C73   C     C_R   0.860978 0.380201 0.686483 -0.118809
C74   C     C_R   0.379064 0.686022 0.861823 -0.121018
C75   C     C_R   0.686487 0.861246 0.379901 -0.119737
H43   H     H_    0.843479 0.651932 0.382060 0.085073
H44   H     H_    0.382497 0.842780 0.652250 0.086130
H45   H     H_    0.652614 0.383195 0.841964 0.088937
H46   H     H_    0.843406 0.380418 0.651493 0.085413
H47   H     H_    0.378592 0.650842 0.844704 0.084450
H48   H     H_    0.651441 0.843951 0.379798 0.084171
N40   N     N_R   0.845000 0.725590 0.355820 -0.039796
N41   N     N_R   0.355820 0.845000 0.725590 -0.040292
N42   N     N_R   0.725590 0.355820 0.845000 -0.038869
N43   N     N_R   0.845000 0.355820 0.725590 -0.039989
N44   N     N_R   0.355820 0.725590 0.845000 -0.039028
N45   N     N_R   0.725590 0.845000 0.355820 -0.039709
C76   C     C_R   0.742983 0.916912 0.380468 -0.127490
C77   C     C_R   0.379590 0.742614 0.917347 -0.127037
C78   C     C_R   0.916813 0.380513 0.742955 -0.127581
C79   C     C_R   0.743209 0.381745 0.916306 -0.119532
C80   C     C_R   0.382196 0.916098 0.743703 -0.128247
C81   C     C_R   0.916065 0.743915 0.382383 -0.125028
H49   H     H_    0.760319 0.951988 0.380134 0.087421
H50   H     H_    0.378682 0.759914 0.952424 0.087265
H51   H     H_    0.951915 0.380040 0.760250 0.087954
H52   H     H_    0.760647 0.382586 0.951344 0.086443
H53   H     H_    0.382762 0.951233 0.760886 0.090280
H54   H     H_    0.950958 0.761532 0.383219 0.090397
N46   N     N_R   0.758510 0.877990 0.355880 -0.039016
N47   N     N_R   0.355880 0.758510 0.877990 -0.039309
N48   N     N_R   0.877990 0.355880 0.758510 -0.038503
N49   N     N_R   0.758510 0.355880 0.877990 -0.040170
N50   N     N_R   0.355880 0.877990 0.758510 -0.038426
N51   N     N_R   0.877990 0.758510 0.355880 -0.039088
Ni1   Ni    Ni4+2 0.877260 0.801820 0.301780 0.216247
Ni2   Ni    Ni4+2 0.301780 0.877260 0.801820 0.217801
Ni3   Ni    Ni4+2 0.801820 0.301780 0.877260 0.206481
Ni4   Ni    Ni4+2 0.877260 0.301780 0.801820 0.216376
Ni5   Ni    Ni4+2 0.301780 0.801820 0.877260 0.206189
Ni6   Ni    Ni4+2 0.801820 0.877260 0.301780 0.210004
Ni7   Ni    Ni4+2 0.726220 0.801790 0.301810 0.207946
Ni8   Ni    Ni4+2 0.301810 0.726220 0.801790 0.209991
Ni9   Ni    Ni4+2 0.801790 0.301810 0.726220 0.209142
Ni10  Ni    Ni4+2 0.726220 0.301810 0.801790 0.208775
Ni11  Ni    Ni4+2 0.301810 0.801790 0.726220 0.206859
Ni12  Ni    Ni4+2 0.801790 0.726220 0.301810 0.208439
C82   C     C_R   0.906578 0.907338 0.397106 0.028110
C83   C     C_R   0.400393 0.905347 0.905058 0.026665
C84   C     C_R   0.906509 0.398234 0.906201 0.027748
C85   C     C_R   0.698625 0.698130 0.400458 0.031194
C86   C     C_R   0.397427 0.696472 0.697139 0.031089
C87   C     C_R   0.695621 0.395774 0.696271 0.031056
C88   C     C_R   0.905532 0.698516 0.400382 0.030076
C89   C     C_R   0.400377 0.905303 0.698498 0.029781
C90   C     C_R   0.698258 0.400564 0.904813 0.031397
C91   C     C_R   0.906738 0.397612 0.697045 0.030185
C92   C     C_R   0.395800 0.696347 0.907934 0.031006
C93   C     C_R   0.697072 0.906997 0.397347 0.031368
C94   C     C_R   0.573730 0.031629 0.093209 0.093078
C95   C     C_R   0.096295 0.570758 0.030346 0.097398
C96   C     C_R   0.030464 0.097545 0.569908 0.096662
C97   C     C_R   0.572618 0.097205 0.033769 0.096678
C98   C     C_R   0.086111 0.029275 0.577848 0.093848
C99   C     C_R   0.028704 0.578077 0.086577 0.095107
C100  C     C_R   0.516551 0.029076 0.026049 0.093668
C101  C     C_R   0.031240 0.511236 0.028911 0.093845
C102  C     C_R   0.028897 0.032300 0.510478 0.095884
C103  C     C_R   0.588977 0.077627 0.077889 -0.229246
C104  C     C_R   0.073392 0.594533 0.068879 -0.220502
C105  C     C_R   0.068609 0.074191 0.594108 -0.216925
C106  C     C_R   0.534378 0.073848 0.009634 -0.218182
C107  C     C_R   0.007831 0.536428 0.066226 -0.218535
C108  C     C_R   0.065828 0.008517 0.536108 -0.218958
C109  C     C_R   0.536527 0.008232 0.067928 -0.219916
C110  C     C_R   0.014123 0.078457 0.525730 -0.230313
C111  C     C_R   0.077135 0.526697 0.013854 -0.230021
H55   H     H_    0.520964 0.088248 0.975770 0.105830
H56   H     H_    0.971208 0.526564 0.076021 0.114505
H57   H     H_    0.075460 0.971739 0.526459 0.113530
H58   H     H_    0.526622 0.971595 0.077964 0.114740
H59   H     H_    0.985858 0.097175 0.505924 0.110240
H60   H     H_    0.095443 0.507246 0.985170 0.110776
C112  C     C_R   0.654781 0.004770 0.121739 -0.178303
C113  C     C_R   0.163160 0.632185 0.019743 -0.189645
C114  C     C_R   0.020028 0.164676 0.631181 -0.181750
C115  C     C_R   0.652849 0.135147 0.014555 -0.177083
C116  C     C_R   0.113896 0.000597 0.659403 -0.173919
C117  C     C_R   0.000385 0.659568 0.114516 -0.175751
C118  C     C_R   0.684187 0.973544 0.148117 -0.178674
C119  C     C_R   0.188322 0.664270 0.989691 -0.173638
C120  C     C_R   0.990021 0.189828 0.663304 -0.168420
C121  C     C_R   0.682431 0.161878 0.983904 -0.183449
C122  C     C_R   0.142036 0.970412 0.688419 -0.172527
C123  C     C_R   0.970378 0.688516 0.142683 -0.170851
C124  C     C_R   0.664211 0.940334 0.180518 0.142257
C125  C     C_R   0.182812 0.661680 0.939194 0.140351
C126  C     C_R   0.939557 0.184541 0.660532 0.141876
C127  C     C_R   0.662913 0.186811 0.944253 0.142666
C128  C     C_R   0.175090 0.938249 0.667408 0.143051
C129  C     C_R   0.938258 0.667393 0.175689 0.142707
C130  C     C_R   0.613788 0.939009 0.186832 -0.166774
C131  C     C_R   0.153122 0.625857 0.919165 -0.183664
C132  C     C_R   0.919543 0.155397 0.624203 -0.174254
C133  C     C_R   0.612451 0.188475 0.938552 -0.167201
C134  C     C_R   0.180780 0.937668 0.616936 -0.169755
C135  C     C_R   0.937608 0.616885 0.181390 -0.169322
C136  C     C_R   0.583951 0.970475 0.160365 -0.181507
C137  C     C_R   0.127408 0.594585 0.948959 -0.172160
C138  C     C_R   0.949283 0.129716 0.592883 -0.168592
C139  C     C_R   0.582373 0.163118 0.970503 -0.179678
C140  C     C_R   0.153341 0.968733 0.587830 -0.178797
C141  C     C_R   0.968531 0.587835 0.153946 -0.178672
C142  C     C_R   0.604254 0.003426 0.127220 0.141355
C143  C     C_R   0.131352 0.597724 0.999730 0.137986
C144  C     C_R   0.000011 0.133098 0.596485 0.135728
C145  C     C_R   0.602311 0.134142 0.007659 0.140783
C146  C     C_R   0.119099 0.000106 0.608713 0.135597
C147  C     C_R   0.999796 0.608829 0.119687 0.136422
H61   H     H_    0.722589 0.973511 0.141665 0.134130
H62   H     H_    0.211678 0.691232 0.005951 0.111058
H63   H     H_    0.006299 0.212904 0.690505 0.109788
H64   H     H_    0.721043 0.160831 0.989871 0.125841
H65   H     H_    0.136744 0.971023 0.727296 0.114999
H66   H     H_    0.971051 0.727430 0.137397 0.117061
H67   H     H_    0.671583 0.028194 0.095139 0.106346
H68   H     H_    0.167509 0.635341 0.058589 0.113958
H69   H     H_    0.058848 0.168711 0.634596 0.113127
H70   H     H_    0.670536 0.112967 0.041617 0.101932
H71   H     H_    0.086861 0.022963 0.676802 0.116890
H72   H     H_    0.022648 0.677079 0.087455 0.114832
H73   H     H_    0.545098 0.968439 0.165012 0.112732
H74   H     H_    0.102231 0.569915 0.931857 0.108939
H75   H     H_    0.932144 0.104841 0.567923 0.108514
H76   H     H_    0.543668 0.164892 0.964813 0.111508
H77   H     H_    0.158513 0.967836 0.548964 0.113149
H78   H     H_    0.967574 0.548932 0.159090 0.112986
C148  C     C_R   0.448965 0.969049 0.015914 -0.175577
C149  C     C_R   0.007029 0.479846 0.947711 -0.167245
C150  C     C_R   0.948024 0.009503 0.477007 -0.170093
C151  C     C_R   0.489226 0.000341 0.944485 -0.173366
C152  C     C_R   0.019095 0.969001 0.445537 -0.177315
C153  C     C_R   0.968697 0.445675 0.018844 -0.177302
C154  C     C_R   0.421657 0.938017 0.986762 -0.176953
C155  C     C_R   0.976129 0.453366 0.918115 -0.187025
C156  C     C_R   0.918516 0.978678 0.450291 -0.170874
C157  C     C_R   0.461248 0.970186 0.915427 -0.181347
C158  C     C_R   0.989340 0.937482 0.419381 -0.170867
C159  C     C_R   0.937218 0.419512 0.989023 -0.171019
C160  C     C_R   0.427926 0.938267 0.936361 0.131697
C161  C     C_R   0.940361 0.423775 0.938424 0.131167
C162  C     C_R   0.938789 0.941721 0.422103 0.140919
C163  C     C_R   0.483574 0.000084 0.995129 0.136313
C164  C     C_R   0.003367 0.476874 0.998466 0.137854
C165  C     C_R   0.998711 0.004691 0.475579 0.136025
H79   H     H_    0.395516 0.914131 0.003560 0.108719
H80   H     H_    0.979061 0.457536 0.879208 0.114130
H81   H     H_    0.879641 0.982445 0.453526 0.110865
H82   H     H_    0.466872 0.970611 0.876594 0.115801
H83   H     H_    0.005915 0.909624 0.397534 0.101897
H84   H     H_    0.910415 0.396206 0.005553 0.107631
H85   H     H_    0.443446 0.968364 0.054737 0.112939
H86   H     H_    0.032134 0.504546 0.930548 0.108405
H87   H     H_    0.930725 0.035371 0.500795 0.108241
H88   H     H_    0.516523 0.022461 0.927175 0.116198
H89   H     H_    0.057967 0.964578 0.443310 0.112277
H90   H     H_    0.965203 0.442394 0.057776 0.111899
C166  C     C_R   0.029325 0.577392 0.516866 0.093767
C167  C     C_R   0.517254 0.028629 0.577755 0.093795
C168  C     C_R   0.574768 0.516864 0.025748 0.093751
C169  C     C_R   0.031835 0.510321 0.574465 0.095644
C170  C     C_R   0.506577 0.572518 0.033676 0.097003
C171  C     C_R   0.574512 0.031467 0.510652 0.095491
C172  C     C_R   0.097171 0.569622 0.573062 0.096698
C173  C     C_R   0.573079 0.096687 0.570086 0.096657
C174  C     C_R   0.571996 0.574071 0.092994 0.095651
C175  C     C_R   0.074141 0.593641 0.534582 -0.217138
C176  C     C_R   0.534846 0.073492 0.594087 -0.216842
C177  C     C_R   0.595661 0.537121 0.067445 -0.218080
C178  C     C_R   0.077871 0.525582 0.589536 -0.230449
C179  C     C_R   0.525815 0.588823 0.077800 -0.230676
C180  C     C_R   0.589392 0.077558 0.525985 -0.230490
H91   H     H_    0.088809 0.627442 0.521279 0.107508
H92   H     H_    0.521624 0.088104 0.627897 0.107375
H93   H     H_    0.632433 0.527503 0.077104 0.114311
H94   H     H_    0.096285 0.505931 0.618128 0.110391
H95   H     H_    0.507227 0.617124 0.097565 0.110278
H96   H     H_    0.617758 0.096142 0.506340 0.110572
C181  C     C_R   0.008388 0.535758 0.537179 -0.218653
C182  C     C_R   0.537495 0.007807 0.536075 -0.218757
C183  C     C_R   0.529826 0.534375 0.009513 -0.216367
C184  C     C_R   0.000865 0.659015 0.489151 -0.173494
C185  C     C_R   0.489457 0.000185 0.659260 -0.173643
C186  C     C_R   0.635206 0.449600 0.015696 -0.177767
C187  C     C_R   0.008240 0.477981 0.655519 -0.169861
C188  C     C_R   0.474359 0.653864 0.010613 -0.168114
C189  C     C_R   0.655458 0.008249 0.478064 -0.169435
C190  C     C_R   0.970717 0.688109 0.461074 -0.172260
C191  C     C_R   0.461235 0.970214 0.688258 -0.171886
C192  C     C_R   0.666114 0.422236 0.986551 -0.168186
C193  C     C_R   0.977355 0.451476 0.685066 -0.172175
C194  C     C_R   0.448580 0.683706 0.979285 -0.172379
C195  C     C_R   0.685018 0.977579 0.451334 -0.170972
C196  C     C_R   0.938571 0.667173 0.427901 0.141906
C197  C     C_R   0.428086 0.938133 0.667225 0.143201
C198  C     C_R   0.665357 0.428132 0.936078 0.141587
C199  C     C_R   0.940861 0.422712 0.664759 0.142025
C200  C     C_R   0.419340 0.663729 0.943006 0.140322
C201  C     C_R   0.664787 0.941138 0.422441 0.142148
C202  C     C_R   0.938008 0.616696 0.421991 -0.170439
C203  C     C_R   0.422405 0.937408 0.616729 -0.169294
C204  C     C_R   0.633152 0.461302 0.915106 -0.171605
C205  C     C_R   0.937031 0.419246 0.614143 -0.166232
C206  C     C_R   0.414059 0.613197 0.940299 -0.168248
C207  C     C_R   0.614216 0.937192 0.419046 -0.166793
C208  C     C_R   0.969031 0.587508 0.449382 -0.178831
C209  C     C_R   0.449930 0.968275 0.587627 -0.178276
C210  C     C_R   0.603110 0.489360 0.944162 -0.173067
C211  C     C_R   0.968582 0.445328 0.584353 -0.179735
C212  C     C_R   0.439309 0.583083 0.972434 -0.180911
C213  C     C_R   0.584413 0.968520 0.445364 -0.179546
C214  C     C_R   0.000349 0.608320 0.483775 0.135324
C215  C     C_R   0.484241 0.999585 0.608550 0.135707
C216  C     C_R   0.603795 0.483958 0.994852 0.135108
C217  C     C_R   0.003935 0.475803 0.604767 0.136630
C218  C     C_R   0.470976 0.603066 0.007078 0.134921
C219  C     C_R   0.604767 0.003782 0.475983 0.136767
H97   H     H_    0.971310 0.726981 0.466550 0.116653
H98   H     H_    0.466555 0.970906 0.727150 0.113357
H99   H     H_    0.690300 0.396325 0.003436 0.109416
H100  H     H_    0.980768 0.455204 0.723979 0.110658
H101  H     H_    0.453545 0.722553 0.981944 0.114272
H102  H     H_    0.723890 0.981070 0.455025 0.111080
H103  H     H_    0.913870 0.599843 0.396076 0.108348
H104  H     H_    0.396536 0.913291 0.599799 0.107887
H105  H     H_    0.632411 0.466765 0.876236 0.114420
H106  H     H_    0.909597 0.396682 0.597574 0.108195
H107  H     H_    0.390901 0.596952 0.913141 0.109207
H108  H     H_    0.597683 0.909801 0.396397 0.106764
H109  H     H_    0.023184 0.676353 0.516316 0.117822
H110  H     H_    0.516560 0.022472 0.676706 0.116690
H111  H     H_    0.636255 0.444287 0.054560 0.113512
H112  H     H_    0.033815 0.502141 0.672785 0.108333
H113  H     H_    0.499294 0.670989 0.035527 0.109353
H114  H     H_    0.672688 0.033765 0.502321 0.108409
H115  H     H_    0.968110 0.548635 0.444101 0.113093
H116  H     H_    0.444760 0.967282 0.548744 0.112808
H117  H     H_    0.580703 0.516496 0.926797 0.117016
H118  H     H_    0.964563 0.442596 0.545424 0.112214
H119  H     H_    0.435272 0.544212 0.969071 0.113520
H120  H     H_    0.545532 0.964390 0.442700 0.111703
C220  C     C_R   0.164352 0.630811 0.583583 -0.181226
C221  C     C_R   0.583649 0.163835 0.631326 -0.181387
C222  C     C_R   0.635198 0.584136 0.158100 -0.179510
C223  C     C_R   0.128952 0.593085 0.654411 -0.168236
C224  C     C_R   0.595057 0.655196 0.125584 -0.169066
C225  C     C_R   0.654348 0.128470 0.593493 -0.168512
C226  C     C_R   0.189470 0.663047 0.613582 -0.168173
C227  C     C_R   0.613689 0.188991 0.663491 -0.168183
C228  C     C_R   0.666565 0.614049 0.184302 -0.166077
C229  C     C_R   0.154611 0.624509 0.684154 -0.173280
C230  C     C_R   0.625782 0.684872 0.152202 -0.171378
C231  C     C_R   0.684128 0.154162 0.624855 -0.174050
C232  C     C_R   0.183973 0.660604 0.664078 0.142705
C233  C     C_R   0.664143 0.183535 0.660955 0.141752
C234  C     C_R   0.662446 0.664688 0.180937 0.140619
C235  C     C_R   0.132590 0.596333 0.603630 0.135731
C236  C     C_R   0.603621 0.132092 0.596814 0.135507
C237  C     C_R   0.599711 0.604439 0.127621 0.136020
H121  H     H_    0.212729 0.690053 0.597277 0.107349
H122  H     H_    0.597452 0.212264 0.690506 0.108880
H123  H     H_    0.694122 0.597541 0.206841 0.107826
H124  H     H_    0.149497 0.622055 0.722978 0.110751
H125  H     H_    0.622136 0.723793 0.148554 0.113842
H126  H     H_    0.722919 0.149084 0.622333 0.111402
H127  H     H_    0.168587 0.633955 0.544730 0.112724
H128  H     H_    0.544836 0.168041 0.634530 0.113349
H129  H     H_    0.639475 0.545207 0.160730 0.112229
H130  H     H_    0.103936 0.568306 0.671562 0.108203
H131  H     H_    0.569341 0.672387 0.101437 0.109438
H132  H     H_    0.671441 0.103455 0.568683 0.108519
C238  C     C_R   0.577596 0.574808 0.517027 0.093755
C239  C     C_R   0.510520 0.572019 0.574299 0.095556
C240  C     C_R   0.569678 0.506485 0.572652 0.096790
C241  C     C_R   0.593745 0.529763 0.534473 -0.216331
C242  C     C_R   0.536019 0.595746 0.537338 -0.218261
C243  C     C_R   0.525676 0.525765 0.589036 -0.230454
C244  C     C_R   0.659136 0.603021 0.489399 -0.172923
C245  C     C_R   0.445405 0.635156 0.584312 -0.179384
C246  C     C_R   0.592941 0.474287 0.653933 -0.167825
C247  C     C_R   0.630871 0.439174 0.583141 -0.180766
C248  C     C_R   0.477937 0.595026 0.655376 -0.168711
C249  C     C_R   0.587705 0.635336 0.449753 -0.177946
C250  C     C_R   0.688220 0.632975 0.461239 -0.171126
C251  C     C_R   0.419129 0.666448 0.614185 -0.166087
C252  C     C_R   0.624346 0.448556 0.683716 -0.172380
C253  C     C_R   0.663089 0.413975 0.613195 -0.167429
C254  C     C_R   0.451254 0.625682 0.685014 -0.170473
C255  C     C_R   0.616885 0.666161 0.422284 -0.168576
C256  C     C_R   0.667325 0.665244 0.428065 0.140836
C257  C     C_R   0.422470 0.662311 0.664811 0.141435
C258  C     C_R   0.660536 0.419312 0.663698 0.141200
C259  C     C_R   0.608484 0.603845 0.484095 0.134801
C260  C     C_R   0.475920 0.599710 0.604637 0.136362
C261  C     C_R   0.596311 0.470854 0.603157 0.135087
H133  H     H_    0.727059 0.632127 0.466635 0.117251
H134  H     H_    0.396557 0.693970 0.597652 0.106585
H135  H     H_    0.621810 0.453561 0.722545 0.111660
H136  H     H_    0.690180 0.390807 0.596935 0.108851
H137  H     H_    0.454892 0.622023 0.723921 0.113253
H138  H     H_    0.600050 0.690414 0.396388 0.109017
H139  H     H_    0.676463 0.580565 0.516530 0.118154
H140  H     H_    0.442786 0.639452 0.545397 0.111783
H141  H     H_    0.568100 0.499235 0.671078 0.108867
H142  H     H_    0.634106 0.435098 0.544285 0.113278
H143  H     H_    0.502105 0.569337 0.672580 0.109005
H144  H     H_    0.548871 0.636499 0.444519 0.113187
C262  C     C_R   0.868296 0.118945 0.960349 0.123378
C263  C     C_R   0.839353 0.112021 0.001665 -0.167090
C264  C     C_R   0.792859 0.092595 0.997239 -0.133085
C265  C     C_R   0.774681 0.080239 0.951612 -0.098406
C266  C     C_R   0.803095 0.087015 0.910343 -0.100721
C267  C     C_R   0.849882 0.105820 0.914646 -0.124202
H145  H     H_    0.852912 0.121394 0.037302 0.119418
H146  H     H_    0.770764 0.087383 0.029167 0.108171
H147  H     H_    0.738547 0.065468 0.948259 0.114345
H148  H     H_    0.789055 0.077201 0.875049 0.113767
H149  H     H_    0.871917 0.109613 0.882449 0.115254
C268  C     C_R   0.018789 0.900453 0.215544 0.121872
C269  C     C_R   0.016125 0.900808 0.266404 -0.146245
C270  C     C_R   0.038931 0.864354 0.293350 -0.123796
C271  C     C_R   0.064862 0.827790 0.269892 -0.093069
C272  C     C_R   0.068293 0.827659 0.219403 -0.119510
C273  C     C_R   0.045562 0.863941 0.192255 -0.182482
H150  H     H_    0.995929 0.928824 0.284994 0.116776
H151  H     H_    0.036490 0.864255 0.332410 0.096722
H152  H     H_    0.082363 0.799589 0.290861 0.101653
H153  H     H_    0.088439 0.799350 0.201282 0.108961
H154  H     H_    0.048142 0.863182 0.153106 0.115977
C274  C     C_R   0.229072 0.010984 0.919162 0.125112
C275  C     C_R   0.276760 0.996102 0.929002 -0.128137
C276  C     C_R   0.315634 0.018690 0.905820 -0.120530
C277  C     C_R   0.307239 0.055966 0.872536 -0.101730
C278  C     C_R   0.259935 0.071105 0.862735 -0.108887
C279  C     C_R   0.220941 0.048954 0.886167 -0.183493
H155  H     H_    0.283782 0.967258 0.954743 0.110192
H156  H     H_    0.352291 0.007481 0.913796 0.122187
H157  H     H_    0.337403 0.073270 0.854519 0.101256
H158  H     H_    0.253488 0.100101 0.837071 0.107900
H159  H     H_    0.184447 0.061018 0.878297 0.114357
C280  C     C_R   0.873437 0.002523 0.159836 0.117999
C281  C     C_R   0.846886 0.988971 0.118635 -0.124716
C282  C     C_R   0.803231 0.012164 0.107750 -0.144137
C283  C     C_R   0.785427 0.048401 0.138309 -0.116534
C284  C     C_R   0.811127 0.061307 0.179950 -0.103733
C285  C     C_R   0.855407 0.039058 0.190310 -0.189555
H160  H     H_    0.861259 0.962325 0.093712 0.115675
H161  H     H_    0.783378 0.002382 0.075365 0.115731
H162  H     H_    0.751714 0.066480 0.129694 0.100994
H163  H     H_    0.797425 0.089522 0.203434 0.108941
H164  H     H_    0.876385 0.051210 0.221176 0.116795
C286  C     C_R   0.011067 0.227746 0.917079 0.125256
C287  C     C_R   0.047910 0.220361 0.882857 -0.182894
C288  C     C_R   0.069548 0.259949 0.859837 -0.111784
C289  C     C_R   0.055085 0.307087 0.871343 -0.102820
C290  C     C_R   0.018970 0.314689 0.905870 -0.121389
C291  C     C_R   0.996772 0.275232 0.928555 -0.127108
H165  H     H_    0.059504 0.183988 0.873753 0.114860
H166  H     H_    0.097660 0.254089 0.833224 0.107065
H167  H     H_    0.072033 0.337732 0.853708 0.100677
H168  H     H_    0.008411 0.351183 0.915215 0.123913
H169  H     H_    0.968801 0.281635 0.955244 0.110769
C292  C     C_R   0.127843 0.864631 0.967964 0.129963
C293  C     C_R   0.110359 0.844638 0.924499 -0.125238
C294  C     C_R   0.098360 0.795457 0.922086 -0.106491
C295  C     C_R   0.103171 0.766043 0.963075 -0.083958
C296  C     C_R   0.119942 0.785761 0.006582 -0.126702
C297  C     C_R   0.132064 0.834911 0.009154 -0.187901
H170  H     H_    0.106424 0.867054 0.892489 0.113634
H171  H     H_    0.085369 0.780130 0.888417 0.114050
H172  H     H_    0.093925 0.727974 0.961125 0.118351
H173  H     H_    0.123686 0.762907 0.038275 0.109742
H174  H     H_    0.145335 0.849682 0.043000 0.114474
H175  H     H_    0.617298 0.095704 0.098082 0.109636
H176  H     H_    0.088034 0.628321 0.082215 0.105274
H177  H     H_    0.081839 0.088730 0.627989 0.107400
H178  H     H_    0.597488 0.913631 0.211887 0.107350
H179  H     H_    0.147918 0.623434 0.880336 0.112934
H180  H     H_    0.880751 0.150416 0.621496 0.111189
H181  H     H_    0.596187 0.208746 0.909140 0.107309
H182  H     H_    0.206600 0.913518 0.600028 0.108035
H183  H     H_    0.913487 0.599906 0.207189 0.108178
H184  H     H_    0.971691 0.526104 0.527345 0.113898
H185  H     H_    0.527789 0.971076 0.526323 0.114155
H186  H     H_    0.515180 0.521178 0.975663 0.107421
H187  H     H_    0.627486 0.515064 0.521201 0.107589
H188  H     H_    0.526400 0.632577 0.527730 0.114230
H189  H     H_    0.505973 0.507140 0.617363 0.110635

loop_
_geom_bond_atom_site_label_1
_geom_bond_atom_site_label_2
_geom_bond_distance
_ccdc_geom_bond_type
C121  H64   1.079554 S    
N42   Ni10  1.909887 S    
C112  C142  1.405008 A    
C133  C139  1.399949 A    
C15   C18   1.421253 A    
C24   N6    1.341001 A    
C27   H12   1.081072 S    
C278  C279  1.398286 A    
C194  H101  1.083149 S    
C26   N8    1.346586 A    
C173  C236  1.486974 S    
C3    C21   1.465228 S    
C129  C135  1.402276 A    
C77   H50   1.080291 S    
C262  C263  1.406997 A    
C228  C234  1.404572 A    
C94   C103  1.402424 A    
C116  H71   1.082032 S    
C293  H170  1.083072 S    
C212  C218  1.408060 A    
C78   N48   1.341230 A    
C80   H53   1.079816 S    
C10   C262  1.486498 S    
C270  H151  1.080340 S    
C171  C180  1.402344 A    
C5    C20   1.395439 A    
C5    H2    1.084340 S    
C150  H87   1.082030 S    
C52   C234  1.471733 S    
C209  H116  1.082809 S    
C265  H147  1.082463 S    
C191  C197  1.399895 A    
N22   Ni6   1.912014 S    
N40   Ni12  1.908160 S    
C74   N44   1.347713 A    
C296  C297  1.398853 A    
C292  C297  1.405518 A    
N28   Ni1   1.912001 S    
C23   C47   1.379010 A    
C30   H15   1.080295 S    
N35   Ni8   1.914252 S    
N26   Ni2   1.912461 S    
C190  C196  1.399916 A    
C100  C109  1.402467 A    
C9    H6    1.084822 S    
C271  H152  1.082301 S    
C95   C143  1.486056 S    
C283  H162  1.082220 S    
C223  C229  1.388754 A    
C268  C269  1.405950 A    
C231  C233  1.399264 A    
C221  C227  1.399403 A    
N17   N20   1.280012 A    
C101  C111  1.401796 A    
C137  H74   1.081753 S    
C138  H75   1.081798 S    
N43   Ni9   1.910122 S    
C295  H172  1.082470 S    
C110  H59   1.082822 S    
C44   C56   1.386362 A    
C244  C259  1.407016 A    
C140  H77   1.082828 S    
C116  C146  1.406850 A    
C62   C83   1.381077 A    
C25   C49   1.383204 A    
C33   C46   1.381936 A    
C74   C92   1.383334 A    
C34   N16   1.346275 A    
C204  H105  1.083370 S    
C288  H166  1.082296 S    
C171  C219  1.483883 S    
C291  H169  1.083278 S    
C85   C256  1.467524 S    
C104  H176  1.081167 S    
C203  C209  1.396531 A    
C284  C285  1.397356 A    
C155  H80   1.083082 S    
C22   H7    1.079908 S    
C141  H78   1.082813 S    
C226  C232  1.403854 A    
C99   C107  1.403515 A    
C227  C233  1.403924 A    
C96   C105  1.402621 A    
C250  C256  1.399821 A    
C138  C144  1.408104 A    
N4    Ni1   1.912415 S    
C13   C17   1.428213 A    
C245  C260  1.406256 A    
C173  C176  1.402446 A    
C61   H34   1.080040 S    
C83   C160  1.466485 S    
C98   C146  1.482706 S    
C187  C193  1.389286 A    
N19   Ni9   1.914385 S    
C39   N21   1.341870 A    
C31   H16   1.080242 S    
C223  H130  1.081785 S    
C126  C132  1.399401 A    
C238  C259  1.482720 S    
C41   C56   1.377367 A    
C29   C50   1.378402 A    
C64   N34   1.345119 A    
N11   Ni8   1.914238 S    
C137  C143  1.408167 A    
C189  H114  1.082086 S    
C230  C234  1.400123 A    
C282  C283  1.398575 A    
C239  C243  1.402348 A    
C266  H148  1.082655 S    
C170  C183  1.402586 A    
C44   N26   1.346820 A    
C134  C140  1.396302 A    
C231  H126  1.083178 S    
C297  H174  1.083091 S    
C91   C199  1.471442 S    
C289  C290  1.397054 A    
C152  H89   1.082717 S    
C65   H38   1.080345 S    
C4    C19   1.398061 A    
C200  C206  1.403932 A    
C114  C144  1.408111 A    
C45   N27   1.345988 A    
C115  C145  1.409212 A    
C6    C12   1.402041 A    
C7    C13   1.392830 A    
C157  H82   1.083386 S    
C209  C215  1.406692 A    
C69   C85   1.379543 A    
N4    N15   1.285842 A    
C195  C201  1.400115 A    
N17   Ni11  1.914985 S    
C172  C178  1.402809 A    
C246  C261  1.408084 A    
C247  C253  1.399548 A    
C37   N19   1.340889 A    
C29   H14   1.080248 S    
C26   C50   1.382141 A    
C169  C181  1.402240 A    
C225  H132  1.081792 S    
C4    C10   1.397822 A    
C255  H138  1.082617 S    
N45   N46   1.287205 A    
C92   C200  1.471235 S    
C148  C163  1.406652 A    
C97   C103  1.405315 A    
C100  C163  1.482594 S    
N51   Ni1   1.911354 S    
C264  H146  1.082518 S    
N31   Ni4   1.911823 S    
C211  H118  1.082727 S    
C100  C106  1.404984 A    
C152  C158  1.397708 A    
C58   H31   1.079683 S    
C193  C199  1.400255 A    
C27   C51   1.383391 A    
N36   N37   1.288863 A    
C40   C55   1.386402 A    
N8    N11   1.285546 A    
C189  C195  1.389362 A    
C65   C86   1.380267 A    
C155  C161  1.399834 A    
C80   N50   1.342471 A    
C148  C154  1.396430 A    
C22   N4    1.342065 A    
C276  H156  1.080930 S    
C113  H68   1.082321 S    
C71   C89   1.381812 A    
C114  H69   1.082368 S    
C48   C127  1.476252 S    
C88   C196  1.467171 S    
C115  H70   1.080825 S    
C263  H145  1.083571 S    
N16   N21   1.281031 A    
N46   Ni6   1.915479 S    
C109  H58   1.083178 S    
C158  H83   1.079732 S    
C180  H96   1.082899 S    
C32   C47   1.382098 A    
C14   C286  1.479058 S    
C63   C82   1.378747 A    
C167  C215  1.482856 S    
C130  H178  1.082459 S    
C273  H154  1.083276 S    
C93   C201  1.471594 S    
C90   C198  1.467412 S    
C39   H24   1.080206 S    
C132  C138  1.388503 A    
N30   Ni3   1.912075 S    
C62   N32   1.345573 A    
C199  C205  1.404273 A    
C278  H158  1.082289 S    
C25   N7    1.348123 A    
C13   C280  1.473396 S    
C32   N14   1.345208 A    
N33   Ni6   1.910172 S    
N34   N39   1.286882 A    
C251  C257  1.404693 A    
C181  H184  1.082653 S    
C249  C255  1.396374 A    
C1    C19   1.468658 S    
N16   Ni12  1.912475 S    
C17   C55   1.508152 S    
C293  C294  1.398657 A    
C248  C254  1.389720 A    
C15   C292  1.484908 S    
N5    N14   1.285547 A    
C41   N23   1.338309 A    
C272  C273  1.397604 A    
C220  H127  1.082364 S    
C133  H181  1.082059 S    
C28   C51   1.378453 A    
C38   N20   1.340813 A    
C166  C214  1.482394 S    
C127  C133  1.403510 A    
C43   H28   1.080320 S    
N9    Ni6   1.910488 S    
C112  H67   1.082935 S    
C50   C125  1.469207 S    
C40   N22   1.340135 A    
C265  C266  1.397111 A    
C18   C56   1.481547 S    
C12   C274  1.480350 S    
C263  C264  1.397478 A    
C178  H94   1.082868 S    
C250  H133  1.083355 S    
C28   H13   1.080016 S    
C58   C82   1.383404 A    
C119  C125  1.403707 A    
C53   C232  1.471343 S    
C2    N1    1.354621 A    
C192  H99   1.082633 S    
C271  C272  1.397006 A    
C150  C165  1.407302 A    
C269  C270  1.398973 A    
C253  H136  1.082418 S    
C194  C200  1.399311 A    
C70   C88   1.382417 A    
C67   N37   1.340677 A    
C11   C268  1.478724 S    
C139  H76   1.081629 S    
C248  H143  1.082102 S    
C31   C48   1.384796 A    
C224  C237  1.407191 A    
C66   N36   1.347528 A    
N45   Ni7   1.910080 S    
C246  H141  1.081766 S    
C2    N2    1.354243 A    
C288  C289  1.397369 A    
C102  C165  1.484356 S    
N10   Ni7   1.909704 S    
C167  C182  1.403537 A    
C38   H23   1.080264 S    
N30   N31   1.285738 A    
C79   H52   1.079926 S    
C284  H163  1.082239 S    
C203  H104  1.082645 S    
C39   C52   1.379591 A    
C148  H85   1.082809 S    
C72   N42   1.342437 A    
C221  C236  1.407965 A    
C229  C232  1.399407 A    
C252  C258  1.399362 A    
N23   Ni5   1.909723 S    
C151  H88   1.082043 S    
N24   Ni4   1.907732 S    
C281  C282  1.396997 A    
N8    Ni5   1.913079 S    
C45   H30   1.072397 S    
C33   N15   1.345310 A    
C182  H185  1.082640 S    
C9    C21   1.397762 A    
N6    N13   1.284443 A    
C70   N40   1.346124 A    
N27   Ni1   1.907996 S    
C97   C145  1.494150 S    
N7    N12   1.284434 A    
C287  C288  1.398093 A    
C290  H168  1.079760 S    
C69   H42   1.079966 S    
C201  C207  1.404526 A    
C152  C165  1.406211 A    
C285  H164  1.083186 S    
C158  C162  1.403700 A    
C105  H177  1.081160 S    
C76   C93   1.379659 A    
C42   H27   1.078482 S    
C221  H128  1.082372 S    
C27   N9    1.343738 A    
C222  H129  1.082743 S    
C89   C197  1.467350 S    
C26   H11   1.080091 S    
C97   C106  1.405248 A    
C206  C212  1.399508 A    
C66   H39   1.080261 S    
C2    C20   1.476715 S    
C78   H51   1.080192 S    
C169  C217  1.483980 S    
C170  C179  1.402630 A    
C289  H167  1.082329 S    
N14   Ni11  1.911415 S    
C135  H183  1.082639 S    
C153  H90   1.082780 S    
C191  H98   1.083406 S    
C198  C204  1.399927 A    
C154  H79   1.082656 S    
C54   C233  1.471081 S    
N29   N32   1.282742 A    
C120  C126  1.403960 A    
C81   H54   1.080209 S    
C274  C279  1.404880 A    
C151  C157  1.390394 A    
C84   C161  1.470256 S    
C267  H149  1.083187 S    
C281  H160  1.083182 S    
C74   H47   1.080113 S    
C59   H32   1.079709 S    
N40   N51   1.287209 A    
C183  H186  1.081176 S    
C70   H43   1.079691 S    
C290  C291  1.397842 A    
C63   H36   1.080060 S    
N44   N47   1.286910 A    
C240  C261  1.487005 S    
C38   C53   1.377216 A    
C94   C142  1.480581 S    
C275  C276  1.397862 A    
C99   C104  1.404234 A    
C175  H91   1.081196 S    
C230  H125  1.082999 S    
C72   C90   1.379253 A    
C287  H165  1.083171 S    
C228  H123  1.082186 S    
C94   C109  1.399837 A    
C141  C147  1.406538 A    
C167  C176  1.404590 A    
C242  H188  1.082669 S    
C34   H19   1.079832 S    
C120  H63   1.082404 S    
N34   Ni7   1.909776 S    
N22   N27   1.288055 A    
C154  C160  1.402219 A    
C3    N3    1.359785 A    
C122  C128  1.400013 A    
C276  C277  1.397109 A    
C113  C143  1.407850 A    
C252  H135  1.083183 S    
C77   N47   1.340609 A    
C65   N35   1.341759 A    
C244  C250  1.390871 A    
C187  H112  1.082096 S    
C159  C161  1.404264 A    
C71   H44   1.079909 S    
C280  C285  1.405232 A    
C79   C90   1.381969 A    
C40   H25   1.074995 S    
C185  C191  1.390677 A    
C254  H137  1.082983 S    
C73   H46   1.080105 S    
C114  C120  1.399495 A    
C241  H187  1.081155 S    
C206  H107  1.082387 S    
C11   C17   1.433501 A    
C30   N12   1.340451 A    
C239  C260  1.484039 S    
N41   N50   1.286909 A    
C31   N13   1.347667 A    
C10   C16   1.420017 A    
C123  C129  1.399880 A    
C68   C86   1.382945 A    
C16   C57   1.485405 S    
C75   C93   1.382793 A    
C277  H157  1.082309 S    
C117  C123  1.390243 A    
C168  C177  1.403430 A    
C286  C291  1.404798 A    
C98   C108  1.403193 A    
C157  C160  1.399620 A    
C119  H62   1.082389 S    
C275  H155  1.083296 S    
C44   H29   1.078256 S    
C264  C265  1.397631 A    
C61   N31   1.341628 A    
C107  H56   1.082735 S    
N35   N38   1.285864 A    
C130  C136  1.400698 A    
C131  C137  1.388057 A    
C254  C257  1.400158 A    
C156  C162  1.400572 A    
C24   C48   1.379685 A    
C24   H9    1.080159 S    
C156  H81   1.082930 S    
C272  H153  1.082342 S    
C43   N25   1.345941 A    
C67   H40   1.080167 S    
C62   H35   1.079879 S    
C279  H159  1.083145 S    
C149  C155  1.389107 A    
C188  C194  1.388483 A    
N47   Ni5   1.913063 S    
C185  C215  1.406919 A    
C98   C105  1.404361 A    
C207  C213  1.398452 A    
C6    H3    1.084452 S    
C7    H4    1.085309 S    
C64   C85   1.381726 A    
C96   C144  1.487041 S    
C280  C281  1.403367 A    
C8    C14   1.404587 A    
C226  H121  1.082413 S    
N29   Ni2   1.910600 S    
N42   N49   1.285804 A    
C294  H171  1.082228 S    
N43   N48   1.285805 A    
C190  H97   1.083361 S    
C3    N2    1.358834 A    
C220  C235  1.408155 A    
C132  H180  1.083147 S    
C202  H103  1.082615 S    
C101  C107  1.402115 A    
C66   C87   1.383427 A    
C76   H49   1.080103 S    
N23   N26   1.287030 A    
C166  C181  1.403204 A    
C197  C203  1.402457 A    
C269  H150  1.083317 S    
C4    H1    1.085008 S    
C122  H65   1.083391 S    
C116  C122  1.390841 A    
C196  C202  1.402450 A    
C222  C228  1.398347 A    
C112  C118  1.388355 A    
C268  C273  1.406261 A    
C128  C134  1.402358 A    
C213  H120  1.082735 S    
C249  H144  1.082826 S    
C28   N10   1.345064 A    
C238  C242  1.403585 A    
C184  C190  1.390572 A    
C136  H73   1.082884 S    
C82   C162  1.472567 S    
C36   H21   1.080434 S    
C87   C258  1.471056 S    
C43   C57   1.385621 A    
C220  C226  1.399548 A    
C205  H106  1.082263 S    
C225  C236  1.408244 A    
C36   N18   1.346964 A    
C37   C54   1.378304 A    
C95   C111  1.402325 A    
C118  H61   1.076220 S    
C270  C271  1.397353 A    
C188  C218  1.408172 A    
C149  H86   1.082149 S    
C75   N45   1.346406 A    
C73   N43   1.346452 A    
C102  C110  1.402417 A    
C35   H20   1.080181 S    
N39   Ni12  1.913803 S    
C73   C91   1.383497 A    
C106  H55   1.079978 S    
C187  C217  1.406991 A    
C35   N17   1.347911 A    
C296  H173  1.082434 S    
C115  C121  1.389098 A    
C244  H139  1.082039 S    
N25   Ni3   1.909012 S    
C45   C55   1.396528 A    
C86   C257  1.472033 S    
N15   Ni12  1.913827 S    
C103  H175  1.082269 S    
N18   N19   1.283002 A    
C32   H17   1.080119 S    
C168  C183  1.404476 A    
C153  C164  1.406030 A    
C33   H18   1.079978 S    
C69   N39   1.342617 A    
C51   C124  1.470247 S    
C283  C284  1.396500 A    
C108  H57   1.082557 S    
C121  C127  1.398942 A    
C96   C110  1.402811 A    
C46   C129  1.466510 S    
C224  C230  1.389546 A    
C49   C126  1.471297 S    
C184  C214  1.406772 A    
C139  C145  1.410501 A    
C174  C179  1.402288 A    
C59   C83   1.378164 A    
C125  C131  1.398624 A    
C229  H124  1.083185 S    
C117  C147  1.407032 A    
C295  C296  1.397337 A    
N13   Ni10  1.909588 S    
C58   N28   1.347285 A    
C286  C287  1.404958 A    
C205  C211  1.398563 A    
C159  H84   1.082242 S    
N28   N33   1.283765 A    
C42   C57   1.382557 A    
N12   Ni9   1.910888 S    
C210  C216  1.406925 A    
C34   C52   1.382442 A    
C204  C210  1.390907 A    
C186  C216  1.406519 A    
C81   C88   1.378322 A    
C274  C275  1.405727 A    
N36   Ni9   1.910802 S    
C23   H8    1.079873 S    
C292  C293  1.405936 A    
N49   Ni3   1.912536 S    
C111  H60   1.083006 S    
N41   Ni11  1.910747 S    
C240  C243  1.402643 A    
C238  C241  1.404367 A    
C195  H102  1.083025 S    
C255  C256  1.402647 A    
C202  C208  1.396342 A    
C75   H48   1.079802 S    
C47   C128  1.467273 S    
C177  H93   1.082665 S    
C173  C180  1.402428 A    
C171  C182  1.402536 A    
C68   N38   1.346208 A    
N7    Ni4   1.912222 S    
C60   C84   1.381908 A    
C170  C218  1.487053 S    
C99   C147  1.482148 S    
C134  H182  1.082645 S    
N37   Ni10  1.909520 S    
C246  C252  1.388355 A    
C42   N24   1.343896 A    
C95   C104  1.402015 A    
C176  H92   1.081153 S    
C223  C235  1.408192 A    
C225  C231  1.388677 A    
C224  H131  1.082089 S    
C174  C237  1.483887 S    
C193  H100  1.083051 S    
C184  H109  1.082046 S    
C172  C235  1.487287 S    
C185  H110  1.082015 S    
C179  H95   1.082896 S    
C282  H161  1.082430 S    
C251  H134  1.082174 S    
N50   Ni2   1.915892 S    
C35   C53   1.383135 A    
C266  C267  1.398186 A    
C210  H117  1.082041 S    
C248  C260  1.407248 A    
C22   C46   1.378325 A    
C186  C192  1.396299 A    
C172  C175  1.402529 A    
C153  C159  1.398082 A    
C136  C142  1.406662 A    
C189  C219  1.407151 A    
C118  C124  1.394445 A    
C79   N49   1.345228 A    
N24   N25   1.290034 A    
C140  C146  1.406673 A    
N21   Ni7   1.914312 S    
C76   N46   1.341663 A    
C249  C259  1.406436 A    
C168  C216  1.482645 S    
C222  C237  1.406325 A    
C253  C258  1.403797 A    
C102  C108  1.402603 A    
C8    H5    1.084422 S    
C80   C89   1.378777 A    
N5    Ni2   1.910921 S    
C188  H113  1.081754 S    
C124  C130  1.404885 A    
N6    Ni3   1.912453 S    
C186  H111  1.082830 S    
C247  H142  1.082360 S    
C37   H22   1.080279 S    
C29   N11   1.340734 A    
N44   Ni8   1.908592 S    
C207  H108  1.082208 S    
C61   C84   1.379969 A    
C243  H189  1.082894 S    
C67   C87   1.377621 A    
C60   N30   1.345735 A    
C72   H45   1.079984 S    
C277  C278  1.397642 A    
C149  C164  1.407050 A    
C5    C11   1.407351 A    
C63   N33   1.341440 A    
C227  H122  1.082418 S    
C135  C141  1.396131 A    
C71   N41   1.345594 A    
C174  C177  1.402417 A    
C262  C267  1.407217 A    
C6    C21   1.395676 A    
C64   H37   1.079922 S    
N32   Ni5   1.912682 S    
C7    C20   1.390478 A    
C212  H119  1.082369 S    
C8    C19   1.393987 A    
C245  H140  1.082746 S    
C208  C214  1.406589 A    
C1    N1    1.352369 A    
C131  H179  1.083206 S    
N20   Ni8   1.912894 S    
C123  H66   1.083462 S    
C60   H33   1.079799 S    
C101  C164  1.482760 S    
C41   H26   1.080186 S    
C81   N51   1.341522 A    
N18   Ni10  1.914132 S    
C36   C54   1.383322 A    
N9    N10   1.285849 A    
C77   C92   1.377669 A    
C247  C261  1.408193 A    
C30   C49   1.377275 A    
C169  C178  1.402632 A    
C14   C16   1.425298 A    
C151  C163  1.406861 A    
C245  C251  1.398394 A    
N48   Ni4   1.911238 S    
C68   H41   1.079788 S    
C150  C156  1.389937 A    
C239  C242  1.402631 A    
C208  H115  1.082834 S    
C113  C119  1.398646 A    
C240  C241  1.402397 A    
C12   C18   1.421973 A    
C166  C175  1.404414 A    
C23   N5    1.342378 A    
C59   N29   1.342098 A    
C9    C15   1.395639 A    
C1    N3    1.356183 A    
C294  C295  1.397544 A    
C25   H10   1.080010 S    
C117  H72   1.082102 S    
C213  C219  1.406404 A    
C78   C91   1.379418 A    
C211  C217  1.406687 A    
C192  C198  1.402514 A    
N38   Ni11  1.911503 S    
