data_mof_unit_65986.cif
_audit_creation_date              2012-12-10T17:09:40-0500
_audit_creation_method            fapswitch 2.2
_symmetry_space_group_name_H-M    P1
_symmetry_Int_Tables_number       1
_space_group_crystal_system       triclinic
_cell_length_a                    18.324365
_cell_length_b                    18.324365
_cell_length_c                    27.709737
_cell_angle_alpha                 90.004775
_cell_angle_beta                  89.995231
_cell_angle_gamma                 89.983008
_cell_volume                      9304.44020753

loop_
_atom_site_label
_atom_site_type_symbol
_atom_type_description
_atom_site_fract_x
_atom_site_fract_y
_atom_site_fract_z
_atom_type_partial_charge
C1    C     C_R   0.499999 0.999942 0.870823 0.583177
C2    C     C_1   0.499977 0.999828 0.775495 0.048525
C3    C     C_R   0.301602 0.806178 0.498070 0.014974
C4    C     C_R   0.261710 0.791971 0.038682 0.228913
C5    C     C_R   0.203728 0.257551 0.037226 0.234621
C6    C     C_R   0.682999 0.263297 0.982682 0.224797
C7    C     C_R   0.796372 0.742767 0.037200 0.224257
C8    C     C_R   0.257233 0.203628 0.037201 0.224257
C9    C     C_R   0.208029 0.738290 0.038682 0.228912
C10   C     C_R   0.742449 0.796272 0.037226 0.234621
C11   C     C_R   0.736703 0.317001 0.982682 0.224797
C12   C     C_R   0.759898 0.293793 0.538103 0.228103
C13   C     C_1   0.499996 0.999992 0.275498 0.053917
C14   C     C_R   0.706295 0.760008 0.538141 0.227667
C15   C     C_R   0.240002 0.706307 0.538148 0.227420
C16   C     C_R   0.293690 0.240001 0.538144 0.227729
C17   C     C_R   0.759999 0.706310 0.538144 0.227730
C18   C     C_R   0.706207 0.240102 0.538103 0.228103
C19   C     C_R   0.239992 0.293705 0.538141 0.227668
C20   C     C_R   0.293693 0.759998 0.538148 0.227420
C21   C     C_1   0.499996 0.000001 0.180998 0.093190
C22   C     C_1   0.999999 0.500004 0.180998 0.093190
C23   C     C_1   0.000091 0.500015 0.680996 0.097116
C24   C     C_1   0.000008 0.500004 0.275498 0.053917
C25   C     C_1   0.499985 0.999908 0.680996 0.097116
C26   C     C_1   0.000140 0.500011 0.819016 0.097054
C27   C     C_1   0.499989 0.999860 0.819016 0.097054
C28   C     C_1   0.499997 0.999992 0.319019 0.105120
C29   C     C_1   0.000008 0.500003 0.319019 0.105120
C30   C     C_R   0.499999 0.000001 0.129184 0.545915
C31   C     C_R   0.999999 0.500000 0.129184 0.545915
C32   C     C_R   0.000017 0.500004 0.629183 0.543574
C33   C     C_R   0.000058 0.500001 0.870823 0.583177
C34   C     C_R   0.499996 0.999983 0.629183 0.543574
C35   C     C_R   0.639776 0.859600 0.999727 0.650407
C36   C     C_R   0.140502 0.639679 0.999631 0.633866
C37   C     C_R   0.360090 0.140263 0.999874 0.634977
C38   C     C_R   0.860192 0.359622 0.000295 0.637696
C39   C     C_R   0.640378 0.139807 0.000295 0.637696
C40   C     C_R   0.140400 0.360224 0.999727 0.650407
C41   C     C_R   0.360321 0.859498 0.999631 0.633866
C42   C     C_R   0.859737 0.639910 0.999874 0.634977
C43   C     C_R   0.139736 0.359561 0.499689 0.634238
C44   C     C_R   0.000003 0.500001 0.370824 0.604558
C45   C     C_R   0.640441 0.139739 0.499692 0.634587
C46   C     C_R   0.860265 0.640439 0.499694 0.634263
C47   C     C_R   0.359560 0.860256 0.499696 0.634136
C48   C     C_R   0.139744 0.640440 0.499696 0.634135
C49   C     C_R   0.640439 0.860264 0.499689 0.634238
C50   C     C_R   0.860261 0.359559 0.499692 0.634587
C51   C     C_R   0.359561 0.139735 0.499694 0.634263
C52   C     C_R   0.345168 0.762720 0.915679 0.372926
C53   C     C_R   0.245263 0.352875 0.919742 0.367828
C54   C     C_R   0.782749 0.109324 0.044542 0.366551
C55   C     C_R   0.499999 0.999997 0.370824 0.604558
C56   C     C_R   0.754456 0.646123 0.920289 0.377949
C57   C     C_R   0.353876 0.245544 0.920289 0.377948
C58   C     C_R   0.237280 0.654832 0.915679 0.372926
C59   C     C_R   0.647125 0.754737 0.919742 0.367829
C60   C     C_R   0.890676 0.217251 0.044542 0.366551
C61   C     C_R   0.848526 0.259391 0.417321 0.370442
C62   C     C_R   0.740429 0.848346 0.417241 0.369886
C63   C     C_R   0.151620 0.740464 0.417268 0.369696
C64   C     C_R   0.259575 0.151599 0.417258 0.369470
C65   C     C_R   0.848400 0.740424 0.417258 0.369470
C66   C     C_1   0.499995 0.999996 0.224521 0.049795
C67   C     C_R   0.740609 0.151474 0.417321 0.370442
C68   C     C_R   0.151654 0.259571 0.417241 0.369886
C69   C     C_R   0.259536 0.848380 0.417268 0.369696
C70   C     C_R   0.335372 0.718422 0.875217 0.256763
C71   C     C_R   0.294969 0.348215 0.881669 0.257524
C72   C     C_R   0.851201 0.094995 0.064533 0.254512
C73   C     C_R   0.705155 0.650734 0.882016 0.260330
C74   C     C_R   0.349266 0.294844 0.882016 0.260329
C75   C     C_R   0.281578 0.664628 0.875217 0.256761
C76   C     C_R   0.651784 0.705031 0.881669 0.257524
C77   C     C_1   0.000003 0.500005 0.224521 0.049795
C78   C     C_R   0.905005 0.148799 0.064533 0.254512
C79   C     C_R   0.840883 0.212922 0.377725 0.253293
C80   C     C_R   0.786818 0.840593 0.377609 0.253966
C81   C     C_R   0.159339 0.786856 0.377644 0.253662
C82   C     C_R   0.213211 0.159345 0.377620 0.253469
C83   C     C_R   0.840654 0.786789 0.377620 0.253469
C84   C     C_R   0.787078 0.159117 0.377725 0.253293
C85   C     C_R   0.159407 0.213182 0.377609 0.253965
C86   C     C_R   0.213144 0.840661 0.377644 0.253662
C87   C     C_R   0.243906 0.701268 0.956636 -0.119360
C88   C     C_1   0.000148 0.500023 0.724518 0.049012
C89   C     C_R   0.302882 0.247882 0.958987 -0.113447
C90   C     C_R   0.821997 0.232826 0.022856 -0.118062
C91   C     C_R   0.697446 0.752109 0.958813 -0.122093
C92   C     C_R   0.247891 0.302553 0.958813 -0.122093
C93   C     C_R   0.298732 0.756094 0.956636 -0.119361
C94   C     C_R   0.752118 0.697118 0.958987 -0.113448
C95   C     C_R   0.767174 0.178003 0.022856 -0.118062
C96   C     C_R   0.745540 0.199635 0.457491 -0.120089
C97   C     C_R   0.800298 0.745448 0.457457 -0.119753
C98   C     C_R   0.254537 0.800288 0.457467 -0.119587
C99   C     C_1   0.499977 0.999852 0.724518 0.049012
C100  C     C_R   0.199724 0.254545 0.457451 -0.119782
C101  C     C_R   0.745455 0.800275 0.457451 -0.119782
C102  C     C_R   0.800365 0.254460 0.457491 -0.120089
C103  C     C_R   0.254551 0.199701 0.457457 -0.119753
C104  C     C_R   0.199712 0.745463 0.457467 -0.119587
C105  C     C_R   0.306289 0.801494 0.997959 0.014983
C106  C     C_R   0.198264 0.306034 0.998184 0.011241
C107  C     C_R   0.698080 0.194143 0.002085 0.014950
C108  C     C_R   0.801799 0.693996 0.998307 0.018553
C109  C     C_R   0.306004 0.198201 0.998307 0.018553
C110  C     C_1   0.000172 0.500023 0.775495 0.048524
C111  C     C_R   0.198506 0.693710 0.997959 0.014983
C112  C     C_R   0.693966 0.801735 0.998184 0.011241
C113  C     C_R   0.805857 0.301920 0.002085 0.014950
C114  C     C_R   0.806177 0.301605 0.498064 0.015464
C115  C     C_R   0.698392 0.806180 0.498060 0.015145
C116  C     C_R   0.193822 0.698397 0.498070 0.014973
C117  C     C_R   0.301600 0.193810 0.498067 0.015366
C118  C     C_R   0.806189 0.698400 0.498067 0.015366
C119  C     C_R   0.698395 0.193823 0.498064 0.015464
C120  C     C_R   0.193820 0.301608 0.498060 0.015145
Cl1   Cl    Cl    0.271359 0.849453 0.089763 -0.391545
Cl2   Cl    Cl    0.646949 0.767919 0.588408 -0.401357
Cl3   Cl    Cl    0.232103 0.646988 0.588420 -0.397598
Cl4   Cl    Cl    0.353017 0.232103 0.588413 -0.404394
Cl5   Cl    Cl    0.767898 0.646983 0.588413 -0.404394
Cl6   Cl    Cl    0.646761 0.232324 0.588321 -0.408599
Cl7   Cl    Cl    0.232081 0.353051 0.588408 -0.401357
Cl8   Cl    Cl    0.353011 0.767897 0.588420 -0.397598
Cl9   Cl    Cl    0.392326 0.730728 0.824629 -0.273564
Cl10  Cl    Cl    0.288733 0.410982 0.833689 -0.268659
Cl11  Cl    Cl    0.868222 0.008777 0.090377 -0.257298
Cl12  Cl    Cl    0.142058 0.263411 0.086350 -0.345240
Cl13  Cl    Cl    0.710672 0.586603 0.834741 -0.296132
Cl14  Cl    Cl    0.413396 0.289327 0.834741 -0.296132
Cl15  Cl    Cl    0.269272 0.607674 0.824629 -0.273564
Cl16  Cl    Cl    0.589018 0.711266 0.833689 -0.268659
Cl17  Cl    Cl    0.991223 0.131778 0.090377 -0.257298
Cl18  Cl    Cl    0.900532 0.222537 0.328253 -0.288903
Cl19  Cl    Cl    0.777064 0.900107 0.328081 -0.274492
Cl20  Cl    Cl    0.099772 0.777155 0.328142 -0.271471
Cl21  Cl    Cl    0.222950 0.099775 0.328112 -0.273047
Cl22  Cl    Cl    0.900224 0.777050 0.328112 -0.273047
Cl23  Cl    Cl    0.596537 0.282453 0.956874 -0.385680
Cl24  Cl    Cl    0.777463 0.099468 0.328253 -0.288903
Cl25  Cl    Cl    0.099893 0.222936 0.328082 -0.274492
Cl26  Cl    Cl    0.222845 0.900228 0.328142 -0.271471
Cl27  Cl    Cl    0.858731 0.737959 0.085996 -0.388811
Cl28  Cl    Cl    0.262041 0.141269 0.085996 -0.388811
Cl29  Cl    Cl    0.150547 0.728641 0.089763 -0.391545
Cl30  Cl    Cl    0.736589 0.857942 0.086350 -0.345239
Cl31  Cl    Cl    0.717547 0.403463 0.956874 -0.385680
Cl32  Cl    Cl    0.767676 0.353239 0.588321 -0.408600
F1    F     F_    0.401531 0.810756 0.914415 -0.558058
F2    F     F_    0.691865 0.904291 0.415956 -0.561332
F3    F     F_    0.095677 0.691929 0.415991 -0.561400
F4    F     F_    0.308111 0.095627 0.415991 -0.561562
F5    F     F_    0.904373 0.691889 0.415991 -0.561562
F6    F     F_    0.692053 0.095549 0.416042 -0.561385
F7    F     F_    0.095709 0.308135 0.415956 -0.561332
F8    F     F_    0.308071 0.904323 0.415991 -0.561400
F9    F     F_    0.195712 0.407937 0.918118 -0.563631
F10   F     F_    0.731880 0.055673 0.047704 -0.578164
F11   F     F_    0.803259 0.590360 0.919274 -0.577799
F12   F     F_    0.409640 0.196741 0.919274 -0.577798
F13   F     F_    0.189244 0.598469 0.914415 -0.558058
F14   F     F_    0.592062 0.804288 0.918118 -0.563632
F15   F     F_    0.944327 0.268120 0.047704 -0.578164
F16   F     F_    0.904451 0.307947 0.416042 -0.561385
O1    O     O_3   0.500000 0.000000 0.000010 -0.504570
O2    O     O_R   0.500000 0.939270 0.393730 -0.485628
O3    O     O_R   0.060730 0.500000 0.393730 -0.485628
O4    O     O_R   0.500000 0.060730 0.393730 -0.486908
O5    O     O_R   0.500000 0.939240 0.106280 -0.512169
O6    O     O_R   0.060760 0.500000 0.106280 -0.512169
O7    O     O_R   0.500000 0.060760 0.106280 -0.520898
O8    O     O_R   0.939240 0.500000 0.106280 -0.520898
O9    O     O_R   0.000000 0.439240 0.606280 -0.516661
O10   O     O_R   0.560760 1.000000 0.606280 -0.516661
O11   O     O_R   0.000000 0.560760 0.606280 -0.515610
O12   O     O_3   0.000000 0.500000 0.000010 -0.504570
O13   O     O_R   0.439240 1.000000 0.606280 -0.515610
O14   O     O_R   0.646170 0.914530 0.972140 -0.471584
O15   O     O_R   0.085470 0.646170 0.972140 -0.489997
O16   O     O_R   0.353830 0.085470 0.972140 -0.498206
O17   O     O_R   0.914530 0.353830 0.972140 -0.491744
O18   O     O_R   0.646170 0.085470 0.972140 -0.491744
O19   O     O_R   0.085470 0.353830 0.972140 -0.471584
O20   O     O_R   0.353830 0.914530 0.972140 -0.489997
O21   O     O_R   0.914530 0.646170 0.972140 -0.498206
O22   O     O_R   0.146170 0.414530 0.472140 -0.493197
O23   O     O_3   0.000000 0.500000 0.500010 -0.504884
O24   O     O_R   0.585470 0.146170 0.472140 -0.493619
O25   O     O_R   0.853830 0.585470 0.472140 -0.493386
O26   O     O_R   0.414530 0.853830 0.472140 -0.493138
O27   O     O_R   0.146170 0.585470 0.472140 -0.493138
O28   O     O_R   0.585470 0.853830 0.472140 -0.493197
O29   O     O_R   0.853830 0.414530 0.472140 -0.493619
O30   O     O_R   0.414530 0.146170 0.472140 -0.493386
O31   O     O_R   0.414540 0.146130 0.027870 -0.494036
O32   O     O_R   0.853870 0.414540 0.027870 -0.496816
O33   O     O_R   0.585460 0.853870 0.027870 -0.498129
O34   O     O_3   0.500000 1.000000 0.500010 -0.504884
O35   O     O_R   0.146130 0.585460 0.027870 -0.497586
O36   O     O_R   0.414540 0.853870 0.027870 -0.497586
O37   O     O_R   0.853870 0.585460 0.027870 -0.494036
O38   O     O_R   0.585460 0.146130 0.027870 -0.496816
O39   O     O_R   0.146130 0.414540 0.027870 -0.498129
O40   O     O_R   0.914540 0.646130 0.527870 -0.497235
O41   O     O_R   0.353870 0.914540 0.527870 -0.497063
O42   O     O_R   0.085460 0.353870 0.527870 -0.497210
O43   O     O_R   0.646130 0.085460 0.527870 -0.497269
O44   O     O_R   0.914540 0.353870 0.527870 -0.497269
O45   O     O_R   0.439270 1.000000 0.893730 -0.486983
O46   O     O_R   0.353870 0.085460 0.527870 -0.497234
O47   O     O_R   0.085460 0.646130 0.527870 -0.497062
O48   O     O_R   0.646130 0.914540 0.527870 -0.497210
O49   O     O_R   0.000000 0.439270 0.893730 -0.511308
O50   O     O_R   0.560730 1.000000 0.893730 -0.511309
O51   O     O_R   1.000000 0.560730 0.893730 -0.486983
O52   O     O_R   0.939270 0.500000 0.393730 -0.486908
Zn1   Zn    Zn3+2 0.500000 0.913210 0.039810 1.101209
Zn2   Zn    Zn3+2 1.000000 0.586760 0.960200 1.108551
Zn3   Zn    Zn3+2 0.413240 0.000000 0.960200 1.108551
Zn4   Zn    Zn3+2 1.000000 0.413240 0.960200 1.120334
Zn5   Zn    Zn3+2 0.086760 0.500000 0.460200 1.120000
Zn6   Zn    Zn3+2 0.500000 0.086760 0.460200 1.118624
Zn7   Zn    Zn3+2 0.913240 0.500000 0.460200 1.118624
Zn8   Zn    Zn3+2 0.500000 0.913240 0.460200 1.120000
Zn9   Zn    Zn3+2 0.086790 0.500000 0.039810 1.101210
Zn10  Zn    Zn3+2 0.500000 0.086790 0.039810 1.087882
Zn11  Zn    Zn3+2 0.913210 0.500000 0.039810 1.087882
Zn12  Zn    Zn3+2 0.000000 0.413210 0.539810 1.086542
Zn13  Zn    Zn3+2 0.586790 0.000000 0.539810 1.086542
Zn14  Zn    Zn3+2 0.000000 0.586790 0.539810 1.087414
Zn15  Zn    Zn3+2 0.413210 0.000000 0.539810 1.087414
Zn16  Zn    Zn3+2 0.586760 0.000000 0.960200 1.120333

loop_
_geom_bond_atom_site_label_1
_geom_bond_atom_site_label_2
_ccdc_geom_bond_type
C9    C111  A    
C7    C10   A    
O28   Zn8   S    
O12   Zn11  S    
C14   Cl2   S    
O1    Zn16  S    
C96   C102  A    
C21   C66   T    
O16   Zn3   S    
O22   Zn5   S    
C12   Cl32  S    
C47   O26   A    
O46   Zn15  S    
C44   O52   A    
O33   Zn1   S    
C37   O16   A    
O5    Zn1   S    
C58   C87   A    
O9    Zn12  S    
C68   C100  A    
C76   Cl16  S    
C10   Cl30  S    
C90   C95   A    
O34   Zn6   S    
C40   O19   A    
C103  C117  A    
C35   O14   A    
C39   C107  S    
C56   F11   S    
C9    Cl29  S    
C45   O43   A    
C57   C89   A    
C72   Cl11  S    
C63   C81   A    
C82   C85   A    
C62   C80   A    
O18   Zn16  S    
O31   Zn10  S    
C85   Cl25  S    
C20   Cl8   S    
O2    Zn8   S    
O11   Zn14  S    
C79   C84   A    
O44   Zn12  S    
C75   Cl15  S    
O51   Zn2   S    
C65   C83   A    
O38   Zn10  S    
O19   Zn4   S    
C84   Cl24  S    
C14   C115  A    
C39   O38   A    
C89   C109  A    
C21   C30   S    
C69   F8    S    
O1    Zn10  S    
C46   C118  S    
C42   O37   A    
C90   C113  A    
O26   Zn8   S    
C97   C118  A    
C58   F13   S    
C43   O42   A    
C24   C29   T    
C31   O6    A    
C72   C78   A    
C81   Cl20  S    
C71   C74   A    
C93   C105  A    
O34   Zn15  S    
C104  C116  A    
C39   O18   A    
O4    Zn6   S    
C50   O29   A    
C5    Cl12  S    
O1    Zn1   S    
O3    Zn5   S    
C43   O22   A    
O23   Zn12  S    
O17   Zn4   S    
C30   O7    A    
C6    C107  A    
C13   C28   T    
C10   C112  A    
C1    O50   A    
C100  C120  A    
C36   O35   A    
C68   F7    S    
C26   C110  T    
C55   O2    A    
C37   C109  S    
C81   C86   A    
O14   Zn16  S    
C43   C120  S    
C48   C116  S    
C62   C101  A    
C88   C110  S    
C69   C98   A    
C45   C119  S    
O49   Zn4   S    
O24   Zn6   S    
C40   O39   A    
C50   O44   A    
C67   C84   A    
O23   Zn5   S    
O7    Zn10  S    
O48   Zn13  S    
C14   C17   A    
C8    Cl28  S    
O47   Zn14  S    
C53   C92   A    
C82   Cl21  S    
C11   C113  A    
C86   Cl26  S    
C28   C55   S    
C25   C99   T    
C58   C75   A    
C41   C105  S    
C7    Cl27  S    
C13   C66   S    
C33   O51   A    
C16   C19   A    
C15   C20   A    
O12   Zn9   S    
C60   F15   S    
C22   C31   S    
O27   Zn5   S    
C59   C76   A    
O23   Zn14  S    
C52   C93   A    
O25   Zn7   S    
C34   O10   A    
C65   F5    S    
C6    C11   A    
O35   Zn9   S    
C38   C113  S    
O21   Zn2   S    
C35   O33   A    
O34   Zn8   S    
C52   F1    S    
O8    Zn11  S    
C6    Cl23  S    
C100  C103  A    
O43   Zn13  S    
C41   O20   A    
C89   C92   A    
C91   C112  A    
C56   C94   A    
O41   Zn15  S    
C102  C114  A    
C51   O30   A    
O36   Zn1   S    
C5    C8    A    
C83   Cl22  S    
O13   Zn15  S    
C45   O24   A    
C49   O48   A    
C87   C93   A    
C60   C78   A    
C36   C111  S    
O34   Zn13  S    
C54   C72   A    
C3    C20   A    
C32   O11   A    
C36   O15   A    
C59   C91   A    
C54   F10   S    
C41   O36   A    
O12   Zn2   S    
C64   C82   A    
C54   C95   A    
C2    C27   T    
C59   F14   S    
C95   C107  A    
C17   C118  A    
C12   C114  A    
O29   Zn7   S    
C51   O46   A    
C92   C106  A    
C49   C115  S    
C73   Cl13  S    
C19   C120  A    
C96   C119  A    
C33   O49   A    
C23   C88   T    
C47   O41   A    
C48   O27   A    
C1    O45   A    
C67   C96   A    
C101  C115  A    
C73   C76   A    
C38   O32   A    
C32   O9    A    
O37   Zn11  S    
C1    C27   S    
C31   O8    A    
C80   Cl19  S    
C78   Cl17  S    
C94   C108  A    
C55   O4    A    
O52   Zn7   S    
C46   O25   A    
C40   C106  S    
C46   O40   A    
C11   Cl31  S    
O23   Zn7   S    
C56   C73   A    
C30   O5    A    
C7    C108  A    
C5    C106  A    
O39   Zn9   S    
C22   C77   T    
C63   C104  A    
C2    C99   S    
O10   Zn13  S    
C49   O28   A    
C60   C90   A    
C38   O17   A    
C4    C105  A    
C64   F4    S    
C61   F16   S    
C23   C32   S    
C61   C102  A    
C16   Cl4   S    
C44   O3    A    
C63   F3    S    
C29   C44   S    
C8    C109  A    
C18   Cl6   S    
C91   C94   A    
C34   O13   A    
O45   Zn3   S    
C3    C98   A    
C17   Cl5   S    
O1    Zn3   S    
C57   F12   S    
C61   C79   A    
O15   Zn2   S    
C98   C104  A    
C74   Cl14  S    
C3    C47   S    
C80   C83   A    
C51   C117  S    
C4    Cl1   S    
O12   Zn4   S    
C67   F6    S    
C53   F9    S    
C37   O31   A    
C64   C103  A    
O6    Zn9   S    
C97   C101  A    
C48   O47   A    
C52   C70   A    
O32   Zn11  S    
C35   C112  S    
O50   Zn16  S    
O20   Zn3   S    
C62   F2    S    
C24   C77   S    
C79   Cl18  S    
C87   C111  A    
C65   C97   A    
C70   Cl9   S    
C12   C18   A    
C70   C75   A    
C42   O21   A    
O42   Zn12  S    
C15   C116  A    
C15   Cl3   S    
C50   C114  S    
C4    C9    A    
C16   C117  A    
O40   Zn14  S    
C42   C108  S    
C18   C119  A    
C19   Cl7   S    
C25   C34   S    
C69   C86   A    
O30   Zn6   S    
C26   C33   S    
C68   C85   A    
C71   Cl10  S    
C57   C74   A    
C53   C71   A    
