data_mof_unit_32335.cif
_audit_creation_date              2012-12-10T18:52:18-0500
_audit_creation_method            fapswitch 2.2
_symmetry_space_group_name_H-M    P1
_symmetry_Int_Tables_number       1
_space_group_crystal_system       triclinic
_cell_length_a                    15.712981
_cell_length_b                    10.71018
_cell_length_c                    9.824314
_cell_angle_alpha                 89.040724
_cell_angle_beta                  89.921339
_cell_angle_gamma                 90.304404
_cell_volume                      1653.06573777

loop_
_atom_site_label
_atom_site_type_symbol
_atom_type_description
_atom_site_fract_x
_atom_site_fract_y
_atom_site_fract_z
_atom_type_partial_charge
C1    C     C_R   0.505857 0.260035 0.501451 1.000158
C2    C     C_R   0.447666 0.421199 0.073574 -0.024593
C3    C     C_R   0.337770 0.499688 0.500085 0.912752
C4    C     C_R   0.662150 0.499750 0.499864 0.868864
C5    C     C_3   0.971244 0.374588 0.510746 -0.332577
C6    C     C_3   0.027892 0.614186 0.486395 -0.313731
C7    C     C_3   0.028328 0.426137 0.393048 -0.321148
C8    C     C_3   0.971210 0.562667 0.604107 -0.307209
C9    C     C_1   0.248790 0.498158 0.500325 -0.148386
C10   C     C_1   0.750948 0.497679 0.499175 -0.173230
C11   C     C_3   0.026591 0.444772 0.614738 0.607029
C12   C     C_R   0.498395 0.740037 0.499292 0.985236
C13   C     C_3   0.972828 0.543887 0.382959 0.577085
C14   C     C_3   0.082543 0.495568 0.498979 0.067712
C15   C     C_3   0.916912 0.493630 0.498444 0.080917
C16   C     C_1   0.173451 0.496720 0.500096 0.011843
C17   C     C_1   0.826168 0.495554 0.498306 -0.006696
C18   C     C_R   0.552207 0.064500 0.396539 0.278241
C19   C     C_R   0.467322 0.936077 0.608860 0.263442
C20   C     C_3   0.002110 0.626676 0.169846 0.072603
C21   C     C_3   0.963754 0.700938 0.050931 -0.355331
C22   C     C_3   0.030264 0.729967 0.941374 -0.928194
C23   C     C_R   0.553091 0.935367 0.399954 0.405892
C24   C     C_3   0.012990 0.307006 0.800968 0.085506
C25   C     C_3   0.932959 0.360161 0.868139 -0.402086
C26   C     C_3   0.885336 0.259970 0.950669 -0.912268
C27   C     C_3   0.674250 0.822769 0.357773 0.113200
C28   C     C_3   0.746364 0.919797 0.355443 -0.349962
C29   C     C_3   0.830163 0.862213 0.402356 -0.963501
C30   C     C_3   0.552888 0.128437 0.812973 0.128236
C31   C     C_3   0.577135 0.009660 0.893491 -0.313548
C32   C     C_3   0.668850 0.016686 0.944078 -0.910227
C33   C     C_R   0.485465 0.060584 0.621823 0.395740
C34   C     C_R   0.503663 0.872367 0.499706 -0.403375
C35   C     C_R   0.515446 0.127292 0.506420 -0.415550
C36   C     C_R   0.552208 0.579060 0.070391 -0.036002
C37   C     C_R   0.447443 0.421474 0.929579 -0.071471
C38   C     C_R   0.552227 0.578991 0.926395 -0.037498
Cl1   Cl    Cl    0.604357 0.143435 0.260265 -0.636211
Cl2   Cl    Cl    0.399458 0.864822 0.732389 -0.557087
H1    H     H_    0.053969 0.372174 0.306792 0.156192
H2    H     H_    0.052245 0.685415 0.217644 0.141774
H3    H     H_    0.910745 0.646793 0.005345 0.225004
H4    H     H_    0.937463 0.789999 0.089012 0.227419
H5    H     H_    0.083460 0.785395 0.984395 0.276592
H6    H     H_    0.000655 0.785057 0.857400 0.258244
H7    H     H_    0.055725 0.642081 0.899191 0.289800
H8    H     H_    0.052566 0.262906 0.881921 0.178796
H9    H     H_    0.996771 0.230875 0.729865 0.128357
H10   H     H_    0.951629 0.436849 0.936658 0.238781
H11   H     H_    0.889225 0.398213 0.789329 0.219354
H12   H     H_    0.945164 0.616051 0.690437 0.159502
H13   H     H_    0.865359 0.182493 0.883823 0.257420
H14   H     H_    0.827631 0.301116 0.997012 0.279032
H15   H     H_    0.926411 0.222420 0.033520 0.264495
H16   H     H_    0.693596 0.742915 0.294237 0.168269
H17   H     H_    0.665785 0.784604 0.463212 0.091666
H18   H     H_    0.754415 0.958201 0.250407 0.257442
H19   H     H_    0.730391 0.997513 0.424287 0.231701
H20   H     H_    0.823820 0.822932 0.507296 0.263824
H21   H     H_    0.880869 0.934820 0.401643 0.265965
H22   H     H_    0.849050 0.786997 0.332517 0.305509
H23   H     H_    0.944306 0.278699 0.517869 0.154202
H24   H     H_    0.547865 0.205970 0.886043 0.175400
H25   H     H_    0.605185 0.155876 0.741185 0.117161
H26   H     H_    0.533336 0.997306 0.981691 0.279000
H27   H     H_    0.571523 0.926278 0.828611 0.225342
H28   H     H_    0.713611 0.015000 0.856499 0.237172
H29   H     H_    0.682184 0.935128 0.011866 0.281112
H30   H     H_    0.679866 0.103735 0.001257 0.306082
H31   H     H_    0.052765 0.711007 0.474915 0.163836
H32   H     H_    0.593860 0.642256 0.123704 0.142651
H33   H     H_    0.405586 0.358556 0.876153 0.167013
H34   H     H_    0.593908 0.642166 0.870463 0.127649
H35   H     H_    0.405958 0.358089 0.129496 0.143419
H36   H     H_    0.031434 0.540084 0.130364 0.150855
N1    N     N_R   0.499980 0.499970 0.857200 -0.086621
N2    N     N_R   0.500020 0.500030 0.142800 -0.082427
O1    O     O_R   0.499990 0.316750 0.614620 -0.610627
O2    O     O_3   0.063286 0.401520 0.738138 -0.646791
O3    O     O_3   0.598291 0.872399 0.301156 -0.594782
O4    O     O_3   0.472816 0.115455 0.747093 -0.579368
O5    O     O_R   0.500010 0.683250 0.385380 -0.591934
O6    O     O_R   0.500000 0.316780 0.385290 -0.570587
O7    O     O_R   0.500000 0.683220 0.614710 -0.588588
O8    O     O_R   0.376780 0.499970 0.614640 -0.587967
O9    O     O_R   0.623220 0.500030 0.385360 -0.606219
O10   O     O_R   0.376780 0.500000 0.385310 -0.631658
O11   O     O_R   0.623220 0.500000 0.614690 -0.641846
O12   O     O_3   0.936911 0.595524 0.263334 -0.655818
Zn1   Zn    Zn3+2 0.500000 0.499980 0.653120 0.984726
Zn2   Zn    Zn3+2 0.500000 0.500020 0.346880 0.999902

loop_
_geom_bond_atom_site_label_1
_geom_bond_atom_site_label_2
_ccdc_geom_bond_type
C31   H26   S    
C30   H24   S    
C13   O12   S    
C26   H15   S    
O7    Zn1   S    
C4    O9    A    
C1    O6    A    
C31   H27   S    
O5    Zn2   S    
C5    H23   S    
C12   O7    A    
C3    C9    S    
C28   C29   S    
C9    C16   T    
C5    C11   S    
O8    Zn1   S    
C38   H34   S    
C30   C31   S    
C11   C14   S    
C10   C17   T    
C20   H36   S    
C25   H10   S    
C21   H3    S    
C24   O2    S    
C7    C14   S    
O10   Zn2   S    
O11   Zn1   S    
C33   O4    S    
C8    H12   S    
O1    Zn1   S    
C32   H28   S    
C22   H7    S    
O9    Zn2   S    
C3    O8    A    
C26   H14   S    
C19   Cl2   S    
C6    H31   S    
C29   H21   S    
C18   C23   A    
C24   H8    S    
C27   O3    S    
C24   C25   S    
C27   H17   S    
C5    C7    S    
C32   H30   S    
C27   H16   S    
C6    C8    S    
N2    Zn2   S    
C25   C26   S    
C37   N1    A    
C12   O5    A    
C30   O4    S    
C18   Cl1   S    
C25   H11   S    
C2    N2    A    
C6    C14   S    
C21   H4    S    
C31   C32   S    
C29   H20   S    
C23   C34   A    
C22   H6    S    
C8    C15   S    
C13   C15   S    
C19   C33   A    
C1    O1    A    
C14   C16   S    
C12   C34   S    
C26   H13   S    
C1    C35   S    
C4    O11   A    
C18   C35   A    
C28   H19   S    
C24   H9    S    
C15   C17   S    
C37   H33   S    
C29   H22   S    
N1    Zn1   S    
C23   O3    S    
C3    O10   A    
C19   C34   A    
C20   H2    S    
C32   H29   S    
C38   N1    A    
C28   H18   S    
C36   C38   A    
C36   N2    A    
C6    C13   S    
C2    C37   A    
C20   O12   S    
C8    C11   S    
C33   C35   A    
C7    H1    S    
C5    C15   S    
C30   H25   S    
C11   O2    S    
C7    C13   S    
C22   H5    S    
C20   C21   S    
C27   C28   S    
O6    Zn2   S    
C21   C22   S    
C4    C10   S    
C2    H35   S    
C36   H32   S    
