data_mof_unit_27550.cif
_audit_creation_date              2012-12-11T15:09:47-0500
_audit_creation_method            fapswitch 2.2
_symmetry_space_group_name_H-M    P1
_symmetry_Int_Tables_number       1
_space_group_crystal_system       triclinic
_cell_length_a                    20.938565
_cell_length_b                    7.127186
_cell_length_c                    14.010544
_cell_angle_alpha                 90.01582
_cell_angle_beta                  98.164376
_cell_angle_gamma                 89.977742
_cell_volume                      2069.64475804

loop_
_atom_site_label
_atom_site_type_symbol
_atom_type_description
_atom_site_fract_x
_atom_site_fract_y
_atom_site_fract_z
_atom_type_partial_charge
O1    O     O_R   0.447130 0.507140 0.597350 -0.523815
O2    O     O_R   0.552870 0.007140 0.402650 -0.523609
O3    O     O_R   0.578910 0.181280 0.586990 -0.535183
O4    O     O_R   0.421090 0.681280 0.413010 -0.534993
C1    C     C_R   0.604480 0.344468 0.607410 0.730645
C2    C     C_R   0.395520 0.844495 0.392589 0.730545
O5    O     O_R   0.449230 0.177860 0.608640 -0.548643
O6    O     O_R   0.550770 0.677860 0.391360 -0.548592
O7    O     O_R   0.422260 0.000770 0.424450 -0.538801
O8    O     O_R   0.577740 0.500770 0.575550 -0.538727
C3    C     C_R   0.432999 0.346131 0.634858 0.740605
C4    C     C_R   0.567017 0.846036 0.365142 0.739835
O9    O     O_3   0.491310 0.336980 0.439550 -0.376519
O10   O     O_3   0.508690 0.836980 0.560450 -0.376653
V1    V     V_3+5 0.501610 0.064760 0.511210 1.448873
V2    V     V_3+5 0.498390 0.564760 0.488790 1.449331
C5    C     C_R   0.620549 0.797011 0.122153 0.305402
C6    C     C_R   0.379594 0.302685 0.878174 0.305530
H1    H     H_    0.530982 0.769240 0.179148 0.120865
H2    H     H_    0.469257 0.274857 0.821406 0.120360
H3    H     H_    0.705759 0.823908 0.995989 0.167305
H4    H     H_    0.294335 0.331974 0.004143 0.167285
C7    C     C_R   0.608131 0.850915 0.289178 -0.060276
C8    C     C_R   0.391826 0.351462 0.710718 -0.060099
C9    C     C_R   0.921082 0.843574 0.305669 -0.167702
C10   C     C_R   0.078901 0.339631 0.694483 -0.167732
C11   C     C_R   0.884022 0.820033 0.379451 -0.121477
C12   C     C_R   0.115995 0.314334 0.620867 -0.121470
C13   C     C_R   0.816941 0.819577 0.359266 -0.173475
C14   C     C_R   0.183074 0.315307 0.641007 -0.173424
C15   C     C_R   0.784947 0.850754 0.264683 0.094333
C16   C     C_R   0.215021 0.349803 0.735302 0.094336
C17   C     C_R   0.823191 0.858088 0.188573 0.076564
C18   C     C_R   0.176784 0.359091 0.811373 0.076563
C19   C     C_R   0.716149 0.857542 0.242324 -0.024560
C20   C     C_R   0.283803 0.357978 0.757555 -0.024437
C21   C     C_R   0.687663 0.828792 0.144717 0.075661
C22   C     C_R   0.312387 0.332666 0.855378 0.075490
C23   C     C_R   0.726517 0.834594 0.071122 -0.173376
C24   C     C_R   0.273536 0.340170 0.928945 -0.173175
C25   C     C_R   0.792805 0.856358 0.092488 -0.217362
C26   C     C_R   0.207198 0.360534 0.907447 -0.217216
C27   C     C_R   0.674095 0.890958 0.312306 0.132311
C28   C     C_R   0.325749 0.389696 0.687268 0.132348
C29   C     C_R   0.581999 0.801097 0.195592 -0.304676
C30   C     C_R   0.418128 0.305099 0.804698 -0.304691
C31   C     C_R   0.891323 0.859298 0.210276 -0.071732
C32   C     C_R   0.108649 0.358748 0.789712 -0.071763
H5    H     H_    0.973225 0.842478 0.322506 0.102309
H6    H     H_    0.026762 0.337095 0.677713 0.102341
H7    H     H_    0.791201 0.784876 0.418044 0.122236
H8    H     H_    0.208875 0.279008 0.582506 0.122340
H9    H     H_    0.907405 0.798226 0.452618 0.120817
H10   H     H_    0.092648 0.289882 0.547911 0.120814
H11   H     H_    0.820324 0.862056 0.032709 0.124588
H12   H     H_    0.179681 0.367699 0.967195 0.124511
C33   C     C_1   0.166635 0.857149 0.168220 -0.193380
C34   C     C_1   0.833363 0.357215 0.831782 -0.193425
C35   C     C_1   0.219052 0.854905 0.219299 0.001703
C36   C     C_1   0.780946 0.354941 0.780705 0.001677
C37   C     C_1   0.280794 0.853464 0.279334 0.002220
C38   C     C_1   0.719205 0.353435 0.720670 0.002205
C39   C     C_1   0.333143 0.851126 0.330588 -0.190379
C40   C     C_1   0.666856 0.351063 0.669415 -0.190518
O11   O     O_R   0.922300 0.202240 0.924350 -0.532914
O12   O     O_R   0.077700 0.702240 0.075650 -0.532990
O13   O     O_R   0.050780 0.535130 0.891350 -0.540442
O14   O     O_R   0.949220 0.035130 0.108650 -0.540387
C41   C     C_R   0.067596 0.368049 0.865673 0.684796
C42   C     C_R   0.932386 0.868147 0.134313 0.684765
O15   O     O_R   0.921100 0.531560 0.912990 -0.538533
O16   O     O_R   0.078900 0.031560 0.087010 -0.538431
O17   O     O_R   0.947120 0.708470 0.097370 -0.537296
O18   O     O_R   0.052880 0.208470 0.902630 -0.537218
C43   C     C_R   0.895859 0.363589 0.893483 0.715735
C44   C     C_R   0.104140 0.863562 0.106518 0.715829
O19   O     O_3   0.008710 0.375800 0.060400 -0.373872
O20   O     O_3   0.991290 0.875800 0.939600 -0.373889
V3    V     V_3+5 0.998380 0.648080 0.988790 1.427350
V4    V     V_3+5 0.001620 0.148080 0.011210 1.427645
N1    N     N_2   0.591616 0.755728 0.026197 -0.528419
H13   H     H_    0.545296 0.807172 0.009607 0.255720
C45   C     C_3   0.595693 0.560261 0.999735 -0.561046
H14   H     H_    0.568467 0.471726 0.045356 0.194328
H15   H     H_    0.646780 0.513254 0.008345 0.211897
H16   H     H_    0.574551 0.541424 0.923042 0.194484
N2    N     N_2   0.408674 0.265195 0.974480 -0.528472
H17   H     H_    0.454744 0.318544 0.990644 0.256056
C46   C     C_3   0.405481 0.070437 0.002580 -0.560971
H18   H     H_    0.433098 0.981354 0.957684 0.194151
H19   H     H_    0.354604 0.021735 0.994419 0.211669
H20   H     H_    0.426727 0.054488 0.079407 0.194918
N3    N     N_3   0.694270 0.988989 0.401286 -0.672798
H21   H     H_    0.734851 0.072357 0.397458 0.241481
H22   H     H_    0.701887 0.893264 0.458243 0.214231
N4    N     N_3   0.305305 0.484651 0.597482 -0.673339
H23   H     H_    0.264542 0.567718 0.600645 0.241524
H24   H     H_    0.297900 0.387048 0.541341 0.214369

loop_
_geom_bond_atom_site_label_1
_geom_bond_atom_site_label_2
_ccdc_geom_bond_type
O14   V4    S    
C14   C16   A    
N2    H17   S    
N3    H21   S    
C7    C29   A    
C11   C13   A    
O1    C3    A    
C32   C41   S    
O16   C44   A    
O2    C4    A    
C2    O7    A    
O15   V3    S    
N1    H13   S    
C23   C25   A    
O5    C3    A    
O12   V3    S    
C4    C7    S    
C16   C20   A    
C33   C44   S    
C19   C21   A    
C5    C29   A    
C10   H6    S    
O20   V4    S    
C33   C35   T    
C34   C36   T    
C3    C8    S    
C7    C27   A    
C36   C38   S    
C37   C39   T    
C25   H11   S    
C38   C40   T    
C26   H12   S    
C18   C26   A    
N4    H24   S    
C15   C17   A    
C46   H19   S    
C19   C27   A    
C9    C31   A    
C10   C32   A    
C24   C26   A    
O12   C44   A    
N3    H22   S    
O11   V4    S    
O18   V4    S    
C13   C15   A    
C6    C30   A    
N1    C45   S    
C34   C43   S    
O19   V3    S    
C35   C37   S    
O13   V3    S    
O4    C2    A    
C12   H10   S    
O20   V3    S    
O5    V1    S    
O16   V4    S    
C1    C40   S    
O13   C41   A    
C16   C18   A    
C2    C39   S    
O4    V2    S    
C31   C42   S    
C28   N4    S    
C45   H14   S    
H3    C23   S    
O6    C4    A    
H4    C24   S    
N4    H23   S    
C42   O17   A    
H1    C29   S    
O17   V3    S    
C41   O18   A    
O1    V2    S    
C5    C21   A    
C46   H20   S    
O2    V1    S    
O14   C42   A    
C45   H15   S    
N2    C46   S    
C17   C31   A    
C15   C19   A    
C20   C28   A    
C18   C32   A    
O3    V1    S    
C13   H7    S    
O19   V4    S    
C14   H8    S    
O3    C1    A    
C11   H9    S    
C9    C11   A    
C10   C12   A    
C6    N2    S    
O11   C43   A    
C8    C30   A    
C20   C22   A    
C6    C22   A    
C17   C25   A    
C1    O8    A    
C21   C23   A    
O8    V2    S    
O15   C43   A    
C22   C24   A    
C8    C28   A    
C12   C14   A    
C27   N3    S    
C5    N1    S    
O7    V1    S    
C9    H5    S    
C45   H16   S    
O6    V2    S    
O9    V2    S    
O10   V1    S    
C46   H18   S    
H2    C30   S    
