data_mof_unit_14464.cif
_audit_creation_date              2012-12-11T14:52:41-0500
_audit_creation_method            fapswitch 2.2
_symmetry_space_group_name_H-M    P1
_symmetry_Int_Tables_number       1
_space_group_crystal_system       triclinic
_cell_length_a                    20.658659
_cell_length_b                    7.265763
_cell_length_c                    20.319367
_cell_angle_alpha                 90.000636
_cell_angle_beta                  101.500161
_cell_angle_gamma                 90.00021
_cell_volume                      2988.72521426

loop_
_atom_site_label
_atom_site_type_symbol
_atom_type_description
_atom_site_fract_x
_atom_site_fract_y
_atom_site_fract_z
_atom_type_partial_charge
O1    O     O_R   0.673670 0.377510 0.185950 -0.529143
O2    O     O_R   0.326330 0.622490 0.814050 -0.547189
O3    O     O_R   0.826330 0.877510 0.314050 -0.547191
O4    O     O_R   0.173670 0.122490 0.685950 -0.529106
O5    O     O_R   0.806260 0.705340 0.185590 -0.527257
O6    O     O_R   0.193740 0.294660 0.814410 -0.511977
O7    O     O_R   0.693740 0.205340 0.314410 -0.511981
O8    O     O_R   0.306260 0.794660 0.685590 -0.527276
C1    C     C_R   0.825759 0.538915 0.171093 0.750391
C2    C     C_R   0.174402 0.461123 0.829074 0.733074
C3    C     C_R   0.674401 0.038877 0.329073 0.733138
C4    C     C_R   0.325759 0.961084 0.671093 0.750349
O9    O     O_R   0.672940 0.707120 0.178050 -0.545349
O10   O     O_R   0.327060 0.292880 0.821950 -0.519395
O11   O     O_R   0.827060 0.207120 0.321950 -0.519416
O12   O     O_R   0.172940 0.792880 0.678050 -0.545361
O13   O     O_R   0.692060 0.879040 0.306460 -0.536487
O14   O     O_R   0.307940 0.120960 0.693540 -0.525161
O15   O     O_R   0.807940 0.379040 0.193540 -0.525174
O16   O     O_R   0.192060 0.620960 0.806460 -0.536474
C5    C     C_R   0.649294 0.538559 0.161107 0.828793
C6    C     C_R   0.350448 0.461452 0.839201 0.816512
C7    C     C_R   0.850449 0.038550 0.339200 0.816594
C8    C     C_R   0.149295 0.961439 0.661106 0.828797
O17   O     O_3   0.756430 0.544390 0.292140 -0.378713
O18   O     O_3   0.243570 0.455610 0.707860 -0.380450
O19   O     O_3   0.743570 0.044390 0.207860 -0.380464
O20   O     O_3   0.256430 0.955610 0.792140 -0.378697
V1    V     V_3+5 0.748810 0.818610 0.242180 1.570485
V2    V     V_3+5 0.251190 0.181390 0.757820 1.632805
V3    V     V_3+5 0.751190 0.318610 0.257820 1.632702
V4    V     V_3+5 0.248810 0.681390 0.742180 1.570504
C9    C     C_R   0.087440 0.972641 0.609261 -0.099173
C10   C     C_R   0.912169 0.028556 0.391227 -0.093580
C11   C     C_R   0.412168 0.471457 0.891227 -0.093556
C12   C     C_R   0.587439 0.527347 0.109263 -0.099182
C13   C     C_R   0.031056 0.978837 0.421123 -0.235566
C14   C     C_R   0.968651 0.024300 0.579340 -0.233389
C15   C     C_R   0.468664 0.475438 0.079339 -0.233400
C16   C     C_R   0.531042 0.521425 0.921126 -0.235579
C17   C     C_R   0.973786 0.004235 0.371796 -0.056573
C18   C     C_R   0.026314 0.006260 0.628686 -0.059267
C19   C     C_R   0.526324 0.493525 0.128685 -0.059272
C20   C     C_R   0.473776 0.495977 0.871797 -0.056580
C21   C     C_R   0.909556 0.030341 0.460681 -0.089510
C22   C     C_R   0.089261 0.956879 0.539851 -0.092853
C23   C     C_R   0.589250 0.543275 0.039856 -0.092882
C24   C     C_R   0.409561 0.469513 0.960682 -0.089508
C25   C     C_R   0.968914 0.009807 0.510197 0.093332
C26   C     C_R   0.030015 0.979239 0.490306 0.092048
C27   C     C_R   0.530006 0.520868 0.990309 0.092048
C28   C     C_R   0.468917 0.490090 0.010198 0.093337
H1    H     H_    0.077226 0.963150 0.404331 0.115880
H2    H     H_    0.923223 0.053544 0.596083 0.115600
H3    H     H_    0.423246 0.446036 0.096080 0.115600
H4    H     H_    0.577205 0.537270 0.904333 0.115884
C29   C     C_3   0.555319 0.083200 0.531641 0.607532
C30   C     C_3   0.445116 0.916544 0.468822 0.609320
C31   C     C_3   0.945116 0.583448 0.968821 0.609334
C32   C     C_3   0.055320 0.416808 0.031642 0.607525
C33   C     C_3   0.528109 0.900627 0.554157 -0.169175
C34   C     C_3   0.472321 0.099112 0.446310 -0.167010
C35   C     C_3   0.972323 0.400880 0.946310 -0.167006
C36   C     C_3   0.028107 0.599379 0.054156 -0.169166
C37   C     C_1   0.371417 0.968225 0.625525 -0.055428
C38   C     C_1   0.628872 0.031687 0.374775 -0.065842
C39   C     C_1   0.128873 0.468315 0.874776 -0.065877
C40   C     C_1   0.871417 0.531773 0.125525 -0.055412
C41   C     C_3   0.485153 0.167317 0.519947 -0.219706
C42   C     C_3   0.515281 0.832426 0.480515 -0.222549
C43   C     C_3   0.015279 0.667573 0.980514 -0.222549
C44   C     C_3   0.985155 0.332683 0.019948 -0.219696
C45   C     C_3   0.457848 0.984719 0.542332 -0.063260
C46   C     C_3   0.542583 0.015031 0.458126 -0.063232
C47   C     C_3   0.042584 0.484969 0.958127 -0.063240
C48   C     C_3   0.957848 0.515279 0.042331 -0.063274
C49   C     C_1   0.410135 0.974098 0.587840 0.180750
C50   C     C_1   0.590239 0.025737 0.412552 0.179288
C51   C     C_1   0.090240 0.474264 0.912553 0.179274
C52   C     C_1   0.910134 0.525900 0.087839 0.180745
C53   C     C_2   0.152916 0.915581 0.519035 0.352460
H5    H     H_    0.154369 0.817767 0.479031 0.081061
O21   O     O_2   0.204014 0.992571 0.545479 -0.530756
C54   C     C_2   0.844555 0.045712 0.481539 0.337803
H6    H     H_    0.834114 0.961756 0.522316 0.081334
O22   O     O_2   0.802492 0.153919 0.454177 -0.517803
C55   C     C_2   0.344567 0.453956 0.981544 0.337767
H7    H     H_    0.334112 0.537806 0.022341 0.081344
O23   O     O_2   0.302526 0.345712 0.954162 -0.517762
C56   C     C_2   0.652890 0.584785 0.019044 0.352552
H8    H     H_    0.654313 0.682692 0.979062 0.081028
O24   O     O_2   0.704011 0.507870 0.045465 -0.530763
C57   C     C_2   0.019050 0.022979 0.700043 0.376076
H9    H     H_    0.972115 0.066601 0.711157 0.106583
O25   O     O_2   0.063845 0.985842 0.747073 -0.522392
C58   C     C_2   0.981814 0.003372 0.300436 0.378204
H10   H     H_    0.029151 0.966038 0.288742 0.103092
O26   O     O_2   0.937139 0.046596 0.254119 -0.524567
C59   C     C_2   0.481799 0.496996 0.800436 0.378199
H11   H     H_    0.529116 0.534553 0.788743 0.103152
O27   O     O_2   0.437144 0.453645 0.754117 -0.524544
C60   C     C_2   0.519071 0.476643 0.200040 0.376040
H12   H     H_    0.472161 0.432772 0.211148 0.106638
O28   O     O_2   0.563842 0.513935 0.247073 -0.522375
C61   C     C_2   0.561831 0.791746 0.613747 0.479765
H13   H     H_    0.611475 0.740513 0.615685 0.107813
O29   O     O_2   0.533924 0.760061 0.660082 -0.531829
C62   C     C_2   0.438572 0.207960 0.386730 0.480944
H14   H     H_    0.388943 0.259270 0.384825 0.109390
O30   O     O_2   0.466441 0.239516 0.340361 -0.530825
C63   C     C_2   0.938576 0.292024 0.886730 0.480957
H15   H     H_    0.888947 0.240711 0.884824 0.109388
O31   O     O_2   0.966446 0.260466 0.840362 -0.530806
C64   C     C_2   0.061828 0.708268 0.113746 0.479765
H16   H     H_    0.111472 0.759505 0.115685 0.107809
O32   O     O_2   0.033919 0.739956 0.160081 -0.531815
F1    F     F_    0.612179 0.170603 0.564293 -0.643268
F2    F     F_    0.388256 0.829143 0.436169 -0.643967
F3    F     F_    0.888254 0.670841 0.936167 -0.643950
F4    F     F_    0.112181 0.329412 0.064295 -0.643282
C65   C     C_2   0.531273 0.646648 0.456353 0.446871
H17   H     H_    0.493664 0.569245 0.422803 0.110025
O33   O     O_2   0.586917 0.583874 0.472881 -0.501601
C66   C     C_2   0.469162 0.353088 0.544115 0.449025
H18   H     H_    0.506767 0.430461 0.577681 0.109152
O34   O     O_2   0.413521 0.415879 0.527579 -0.501254
C67   C     C_2   0.969165 0.146913 0.044117 0.449027
H19   H     H_    0.006767 0.069561 0.077694 0.109160
O35   O     O_2   0.913528 0.084100 0.027571 -0.501265
C68   C     C_2   0.031270 0.853351 0.956351 0.446886
H20   H     H_    0.993663 0.930732 0.922791 0.110029
O36   O     O_2   0.086911 0.916145 0.972889 -0.501605

loop_
_geom_bond_atom_site_label_1
_geom_bond_atom_site_label_2
_ccdc_geom_bond_type
C33   C42   S    
C40   C52   T    
C55   H7    S    
O1    C5    A    
C57   H9    S    
O19   V1    S    
C18   C57   S    
O13   V1    S    
C61   H13   S    
O3    C7    A    
C63   H15   S    
C30   F2    S    
C44   C48   S    
O15   V3    S    
C64   H16   S    
C5    C12   S    
C2    C39   S    
O7    C3    A    
C6    C11   S    
C61   O29   D    
O5    C1    A    
C9    C18   A    
O9    V1    S    
C54   O22   D    
C14   C18   A    
O4    C8    A    
C20   C59   S    
C17   C58   S    
C34   C62   S    
C32   C44   S    
O1    V3    S    
C62   H14   S    
C12   C23   A    
O2    V4    S    
C36   C43   S    
O3    V1    S    
C1    O15   A    
C15   H3    S    
C2    O16   A    
C16   H4    S    
C58   O26   D    
O2    C6    A    
C41   C45   S    
O14   V2    S    
C33   C61   S    
C16   C20   A    
C3    C38   S    
C13   H1    S    
O11   C7    A    
C15   C28   A    
O12   C8    A    
C35   C63   S    
C9    C22   A    
C10   C17   A    
O10   V2    S    
C11   C24   A    
C53   O21   D    
C1    C40   S    
C53   H5    S    
O5    V1    S    
C38   C50   T    
O7    V3    S    
C44   C67   S    
C27   C28   A    
O8    V4    S    
C37   C49   T    
C54   H6    S    
C14   C25   A    
O18   V4    S    
C30   C42   S    
C15   C19   A    
C41   C66   S    
C33   C45   S    
O11   V3    S    
C34   C41   S    
C64   O32   D    
C29   C46   S    
C68   O36   D    
C67   O35   D    
C42   C46   S    
C22   C53   S    
C56   O24   D    
C59   H11   S    
C14   H2    S    
C21   C25   A    
O8    C4    A    
C7    C10   S    
C58   H10   S    
C36   C48   S    
C24   C55   S    
O9    C5    A    
C63   O31   D    
C10   C21   A    
C60   O28   D    
C11   C20   A    
C65   H17   S    
C30   C34   S    
C59   O27   D    
C55   O23   D    
C23   C56   S    
C21   C54   S    
C29   F1    S    
C67   H19   S    
C66   O34   D    
O16   V4    S    
C3    O13   A    
C31   F3    S    
O6    V2    S    
O17   V3    S    
C48   C52   S    
O6    C2    A    
C23   C27   A    
C29   C33   S    
O12   V4    S    
C16   C27   A    
C4    C37   S    
C22   C26   A    
C32   C47   S    
C31   C35   S    
C8    C9    S    
C32   C36   S    
O10   C6    A    
O20   V2    S    
C68   H20   S    
C19   C60   S    
C43   C68   S    
C43   C47   S    
C13   C26   A    
C42   C65   S    
C56   H8    S    
C35   C47   S    
C62   O30   D    
C32   F4    S    
C13   C17   A    
C60   H12   S    
C65   O33   D    
C24   C28   A    
C35   C44   S    
C36   C64   S    
C57   O25   D    
C25   C26   A    
C46   C50   S    
C4    O14   A    
C45   C49   S    
C34   C46   S    
C12   C19   A    
C29   C41   S    
C47   C51   S    
C31   C48   S    
C39   C51   T    
O4    V2    S    
C30   C45   S    
C31   C43   S    
C66   H18   S    
