data_mof_unit_64596.cif
_audit_creation_date              2012-12-10T18:24:24-0500
_audit_creation_method            fapswitch 2.2
_symmetry_space_group_name_H-M    P1
_symmetry_Int_Tables_number       1
_space_group_crystal_system       triclinic
_cell_length_a                    31.022287
_cell_length_b                    29.898522
_cell_length_c                    24.975217
_cell_angle_alpha                 89.918182
_cell_angle_beta                  129.123132
_cell_angle_gamma                 89.999257
_cell_volume                      17971.2050015

loop_
_atom_site_label
_atom_site_type_symbol
_atom_type_description
_atom_site_fract_x
_atom_site_fract_y
_atom_site_fract_z
_atom_type_partial_charge
C1    C     C_R   0.812507 0.811172 0.505318 0.937149
C2    C     C_R   0.535530 0.752806 0.070288 0.410611
C3    C     C_3   0.844744 0.154377 0.501235 -0.204234
C4    C     C_3   0.597844 0.592527 0.501923 -0.106654
C5    C     C_3   0.401822 0.592532 0.497284 -0.087400
C6    C     C_3   0.098003 0.092434 0.502054 -0.104582
C7    C     C_3   0.903190 0.093683 0.498104 -0.096894
C8    C     C_3   0.660461 0.584227 0.565241 0.261264
C9    C     C_3   0.346193 0.600907 0.421569 0.259325
C10   C     C_3   0.160582 0.084759 0.566216 0.259679
C11   C     C_3   0.853340 0.107906 0.422114 0.273187
C12   C     C_3   0.580069 0.638746 0.509428 -0.607647
C13   C     C_R   0.965156 0.251379 0.929793 0.358029
C14   C     C_3   0.435364 0.636462 0.525435 -0.589495
C15   C     C_3   0.079376 0.138685 0.508096 -0.607196
C16   C     C_3   0.940118 0.134922 0.538617 -0.582060
C17   C     C_R   0.059067 0.936996 0.500085 0.991794
C18   C     C_R   0.938368 0.939819 0.499759 1.000545
C19   C     C_R   0.559157 0.437055 0.500165 0.994229
C20   C     C_R   0.438572 0.439518 0.499704 0.999972
C21   C     C_R   0.437387 0.559034 0.499213 0.961218
C22   C     C_R   0.562573 0.558894 0.500431 0.977637
C23   C     C_R   0.938224 0.059959 0.499354 0.942745
C24   C     C_R   0.037625 0.251635 0.069401 0.397030
C25   C     C_R   0.062694 0.058774 0.500465 0.973399
C26   C     C_R   0.816730 0.748906 0.634883 0.860263
C27   C     C_R   0.183497 0.748814 0.365172 0.902701
C28   C     C_R   0.316638 0.248864 0.634886 0.863510
C29   C     C_R   0.682839 0.249456 0.365054 0.909705
C30   C     C_R   0.616293 0.791441 0.253843 0.386252
C31   C     C_R   0.380586 0.791812 0.745783 0.401820
C32   C     C_R   0.115137 0.290515 0.253015 0.386112
C33   C     C_R   0.870518 0.292220 0.744767 0.386355
C34   C     C_R   0.584206 0.792718 0.181634 0.365486
C35   C     C_3   0.906268 0.828305 0.542890 0.140533
C36   C     C_R   0.412152 0.792945 0.817770 0.369228
C37   C     C_R   0.083717 0.291713 0.180858 0.366725
C38   C     C_R   0.903995 0.292038 0.817138 0.378061
C39   C     C_R   0.574704 0.752933 0.145612 -0.208520
C40   C     C_R   0.422288 0.753085 0.854688 -0.222242
C41   C     C_R   0.075974 0.252100 0.145127 -0.210659
C42   C     C_R   0.926024 0.251273 0.853866 -0.226865
C43   C     C_R   0.601198 0.712951 0.181472 0.504012
C44   C     C_R   0.396213 0.712922 0.818430 0.512665
C45   C     C_R   0.103716 0.212538 0.181837 0.503026
C46   C     C_3   0.094538 0.839055 0.432490 0.145946
C47   C     C_R   0.910759 0.210593 0.817366 0.507867
C48   C     C_R   0.638751 0.713487 0.253644 -0.400674
C49   C     C_R   0.360595 0.713268 0.746159 -0.387560
C50   C     C_R   0.140402 0.213379 0.254016 -0.400819
C51   C     C_R   0.873336 0.210944 0.745410 -0.376012
C52   C     C_3   0.575135 0.835886 0.283786 -0.218620
C53   C     C_3   0.417634 0.841030 0.715299 -0.206909
C54   C     C_3   0.071945 0.333025 0.281945 -0.219437
C55   C     C_3   0.889468 0.355051 0.711574 -0.198282
C56   C     C_3   0.796690 0.935678 0.558146 -0.298428
C57   C     C_3   0.406971 0.328995 0.545958 0.140506
C58   C     C_3   0.256168 0.932890 0.541008 -0.298218
C59   C     C_3   0.291827 0.437117 0.549768 -0.302129
C60   C     C_3   0.753553 0.433630 0.534514 -0.318742
C61   C     C_3   0.946029 0.953736 0.662613 -0.269222
C62   C     C_3   0.115296 0.972727 0.394329 -0.282577
C63   C     C_3   0.441201 0.457270 0.657643 -0.275210
C64   C     C_3   0.611652 0.472223 0.390692 -0.281227
C65   C     C_3   0.777152 0.947721 0.338613 -0.256936
C66   C     C_3   0.194743 0.906317 0.687943 -0.312872
C67   C     C_3   0.276459 0.442815 0.333896 -0.264370
C68   C     C_3   0.594109 0.338295 0.433622 0.143669
C69   C     C_3   0.697476 0.408634 0.688055 -0.304628
C70   C     C_3   0.749762 0.770639 0.706486 -0.256526
C71   C     C_3   0.238419 0.798512 0.287758 -0.268768
C72   C     C_3   0.248858 0.269617 0.705392 -0.254413
C73   C     C_3   0.730185 0.313339 0.285246 -0.275888
C74   C     C_3   0.597522 0.860239 0.152150 -0.256746
C75   C     C_3   0.394212 0.853821 0.854748 -0.248077
C76   C     C_3   0.095757 0.360020 0.151957 -0.252024
C77   C     C_3   0.872897 0.340485 0.855657 -0.252924
C78   C     C_2   0.923332 0.693213 0.722316 0.928615
C79   C     C_3   0.936006 0.858955 0.523705 0.869269
C80   C     C_2   0.093207 0.678749 0.279847 0.944186
C81   C     C_2   0.423837 0.193957 0.723332 0.928911
C82   C     C_2   0.590368 0.181112 0.278476 0.949343
C83   C     C_3   0.576827 0.644153 0.315936 -0.341719
C84   C     C_3   0.379686 0.607637 0.657716 -0.349738
C85   C     C_3   0.078876 0.142741 0.316593 -0.342993
C86   C     C_3   0.858610 0.091763 0.638124 -0.333044
C87   C     C_3   0.738367 0.575852 0.528101 -0.271907
C88   C     C_3   0.242447 0.575094 0.398665 -0.193465
C89   C     C_3   0.239927 0.076124 0.531273 -0.264676
C90   C     C_3   0.056505 0.862917 0.445097 0.896487
C91   C     C_3   0.737780 0.100651 0.387332 -0.242928
C92   C     C_3   0.712313 0.520508 0.627912 -0.265504
C93   C     C_3   0.305118 0.556018 0.321352 -0.279506
C94   C     C_3   0.209294 0.020068 0.629479 -0.271326
C95   C     C_3   0.798319 0.072900 0.313522 -0.275002
C96   C     C_3   0.599565 0.737892 0.551512 -0.339902
C97   C     C_3   0.434358 0.739945 0.512331 -0.309656
C98   C     C_3   0.097456 0.237996 0.548595 -0.336995
C99   C     C_3   0.959153 0.236021 0.571026 -0.322034
C100  C     C_3   0.571110 0.640406 0.158592 -0.287908
C101  C     C_3   0.437043 0.358988 0.526619 0.869764
C102  C     C_3   0.423421 0.639123 0.838651 -0.295838
C103  C     C_3   0.076356 0.139308 0.159229 -0.283962
C104  C     C_3   0.975271 0.156625 0.853878 -0.293048
C105  C     C_3   0.772806 0.644296 0.685118 -0.208635
C106  C     C_3   0.250401 0.665504 0.309169 -0.235082
C107  C     C_3   0.271048 0.143724 0.686991 -0.218435
C108  C     C_3   0.796867 0.190321 0.328760 -0.236929
C109  C     C_3   0.938320 0.788852 0.644506 -0.227296
C110  C     C_3   0.094047 0.829576 0.337758 -0.289791
C111  C     C_3   0.438536 0.291890 0.648925 -0.230075
C112  C     C_R   0.190143 0.811278 0.499775 0.926277
C113  C     C_3   0.556815 0.362219 0.447305 0.894496
C114  C     C_3   0.592257 0.328117 0.337983 -0.285276
C115  C     C_3   0.027801 0.829810 0.605437 -0.170088
C116  C     C_3   0.968705 0.852973 0.333507 -0.148007
C117  C     C_3   0.529361 0.331549 0.610819 -0.170551
C118  C     C_3   0.468106 0.350509 0.337554 -0.149989
C119  C     C_3   0.926268 0.798463 0.451091 -0.324192
C120  C     C_3   0.033981 0.788067 0.462017 -0.350921
C121  C     C_3   0.429998 0.296580 0.458343 -0.323655
C122  C     C_3   0.537196 0.287591 0.468725 -0.348028
C123  C     C_3   0.760808 0.829628 0.319164 -0.363290
C124  C     C_3   0.813994 0.861712 0.429629 0.253106
C125  C     C_3   0.185077 0.789131 0.648234 -0.336757
C126  C     C_3   0.263861 0.325141 0.320841 -0.359416
C127  C     C_3   0.690155 0.291578 0.652450 -0.339492
C128  C     C_3   0.168223 0.843806 0.569474 0.263987
C129  C     C_3   0.315138 0.359997 0.429268 0.251092
C130  C     C_3   0.669897 0.344979 0.570372 0.264618
C131  C     C_3   0.851783 0.889199 0.547549 0.261215
C132  C     C_3   0.172839 0.895037 0.492587 0.262173
C133  C     C_3   0.349579 0.390117 0.544571 0.263368
C134  C     C_3   0.671486 0.395002 0.490003 0.263827
C135  C     C_3   0.845678 0.846781 0.506361 -0.265339
C136  C     C_R   0.312555 0.311164 0.505473 0.934713
C137  C     C_3   0.156984 0.846560 0.498521 -0.274246
C138  C     C_3   0.345633 0.346749 0.506381 -0.266600
C139  C     C_3   0.656904 0.346630 0.498295 -0.279202
C140  C     C_3   0.904433 0.905526 0.501028 -0.269931
C141  C     C_3   0.093627 0.902671 0.499200 -0.289353
C142  C     C_3   0.404477 0.405235 0.500795 -0.271307
C143  C     C_3   0.593801 0.402719 0.499505 -0.288691
C144  C     C_3   0.846211 0.900573 0.427577 0.171059
C145  C     C_3   0.136161 0.881718 0.573019 0.203851
C146  C     C_3   0.347198 0.398734 0.426646 0.176658
C147  C     C_R   0.689987 0.311291 0.499463 0.933389
C148  C     C_3   0.637608 0.382766 0.573831 0.199623
C149  C     C_3   0.894156 0.921279 0.552823 0.287957
C150  C     C_3   0.127741 0.927563 0.480565 0.279830
C151  C     C_3   0.392024 0.422186 0.549990 0.285343
C152  C     C_3   0.626535 0.427364 0.478642 0.280029
C153  C     C_R   0.682927 0.750609 0.365513 0.998433
C154  C     C_R   0.316938 0.750561 0.634454 0.976601
C155  C     C_R   0.182845 0.250511 0.365449 0.994583
C156  C     C_R   0.816911 0.250464 0.634219 0.984452
C157  C     C_R   0.838610 0.771962 0.746037 0.524892
C158  C     C_R   0.645450 0.752014 0.289969 -0.269456
C159  C     C_R   0.153157 0.780657 0.253247 0.509376
C160  C     C_R   0.337851 0.272111 0.745564 0.524758
C161  C     C_R   0.648967 0.285149 0.253701 0.504732
C162  C     C_R   0.874997 0.774329 0.817728 -0.256047
C163  C     C_R   0.115108 0.783195 0.181579 -0.258431
C164  C     C_R   0.374106 0.275051 0.817158 -0.256017
C165  C     C_R   0.610963 0.287899 0.181923 -0.260280
C166  C     C_R   0.926275 0.753013 0.855872 -0.006868
C167  C     C_R   0.069981 0.754279 0.144310 -0.005836
C168  C     C_R   0.425768 0.254361 0.855799 -0.006724
C169  C     C_R   0.353666 0.751968 0.709922 -0.278845
C170  C     C_R   0.567532 0.257504 0.144115 -0.003233
C171  C     C_R   0.941520 0.728297 0.822935 -0.206207
C172  C     C_R   0.062531 0.722030 0.178115 -0.215722
C173  C     C_R   0.441547 0.229652 0.823420 -0.207557
C174  C     C_R   0.560874 0.224256 0.177410 -0.216002
C175  C     C_R   0.905314 0.723916 0.751294 -0.103562
C176  C     C_R   0.100829 0.717578 0.249708 -0.101026
C177  C     C_R   0.405437 0.224682 0.751813 -0.104690
C178  C     C_R   0.598975 0.219630 0.248953 -0.078302
C179  C     C_R   0.853830 0.747655 0.711281 -0.265819
C180  C     C_R   0.145404 0.251622 0.289781 -0.272392
C181  C     C_R   0.145729 0.748468 0.288778 -0.275285
C182  C     C_R   0.353580 0.247857 0.711303 -0.264548
C183  C     C_R   0.643610 0.250724 0.288573 -0.257606
C184  C     C_R   0.032310 0.755995 0.069505 0.315049
C185  C     C_R   0.963280 0.755182 0.930616 0.315760
C186  C     C_R   0.530332 0.259144 0.069322 0.315466
C187  C     C_R   0.462346 0.257006 0.930502 0.315236
C188  C     C_3   0.623760 0.628517 0.432612 0.193050
C189  C     C_3   0.356542 0.615216 0.549392 0.230280
C190  C     C_3   0.124629 0.127898 0.433204 0.192546
C191  C     C_R   0.854141 0.251352 0.709277 -0.279132
C192  C     C_3   0.848404 0.110944 0.539749 0.227315
C193  C     C_3   0.589171 0.591807 0.433348 -0.459848
C194  C     C_3   0.389165 0.578053 0.545561 -0.508484
C195  C     C_3   0.090178 0.091116 0.434065 -0.460135
C196  C     C_3   0.881189 0.074738 0.534564 -0.494265
C197  C     C_3   0.697414 0.621940 0.568181 0.808492
C198  C     C_3   0.307250 0.635063 0.422343 0.793605
C199  C     C_3   0.197408 0.122546 0.568963 0.812880
C200  C     C_3   0.818339 0.145726 0.422804 0.803930
C201  C     C_R   0.690710 0.688940 0.501948 0.982134
C202  C     C_R   0.461561 0.753352 0.930832 0.367525
C203  C     C_R   0.310875 0.688898 0.501142 0.995699
C204  C     C_R   0.190661 0.188944 0.501859 0.984262
C205  C     C_R   0.811676 0.188941 0.502742 0.973617
C206  C     C_3   0.612723 0.675984 0.506368 0.434241
C207  C     C_3   0.400009 0.673830 0.522462 0.384281
C208  C     C_3   0.112018 0.175950 0.505069 0.432843
C209  C     C_3   0.907157 0.170912 0.543229 0.405040
C210  C     C_3   0.657697 0.654027 0.502886 -0.192270
C211  C     C_3   0.342962 0.653851 0.498360 -0.179171
C212  C     C_3   0.157701 0.154025 0.502887 -0.193481
H1    H     H_    0.852830 0.892457 0.389617 0.182399
H2    H     H_    0.148665 0.956826 0.515611 0.179001
H3    H     H_    0.223633 0.877394 0.709885 0.150284
H4    H     H_    0.160864 0.901174 0.691070 0.163573
H5    H     H_    0.219031 0.935723 0.720446 0.177226
H6    H     H_    0.243757 0.417000 0.312524 0.136869
H7    H     H_    0.295908 0.441611 0.308773 0.139330
H8    H     H_    0.255180 0.475481 0.321251 0.199692
H9    H     H_    0.727274 0.380340 0.710031 0.153041
H10   H     H_    0.664632 0.402857 0.692893 0.158676
H11   H     H_    0.721195 0.438549 0.719414 0.176977
H12   H     H_    0.739368 0.739866 0.675535 0.226071
H13   H     H_    0.373221 0.456245 0.531598 0.132554
H14   H     H_    0.711257 0.790799 0.679883 0.184441
H15   H     H_    0.763525 0.761945 0.758555 0.138181
H16   H     H_    0.255914 0.765703 0.314153 0.197566
H17   H     H_    0.272403 0.823459 0.316737 0.185138
H18   H     H_    0.224451 0.797016 0.234377 0.141491
H19   H     H_    0.238862 0.239047 0.674227 0.228773
H20   H     H_    0.210105 0.289428 0.678883 0.184796
H21   H     H_    0.262681 0.260551 0.757379 0.136388
H22   H     H_    0.750750 0.280321 0.306409 0.170196
H23   H     H_    0.762156 0.339427 0.317012 0.185422
H24   H     H_    0.647545 0.456949 0.512945 0.180878
H25   H     H_    0.714612 0.317330 0.231386 0.143180
H26   H     H_    0.575279 0.888921 0.116350 0.187688
H27   H     H_    0.620796 0.842972 0.137843 0.146949
H28   H     H_    0.626976 0.874012 0.205213 0.180754
H29   H     H_    0.411400 0.886135 0.882306 0.188111
H30   H     H_    0.385670 0.832920 0.884049 0.145446
H31   H     H_    0.354853 0.861162 0.802145 0.173093
H32   H     H_    0.073042 0.388791 0.116539 0.187943
H33   H     H_    0.119518 0.343721 0.137648 0.143527
H34   H     H_    0.124838 0.373533 0.205239 0.181219
H35   H     H_    0.772420 0.874305 0.409991 0.203602
H36   H     H_    0.882297 0.372292 0.883934 0.188083
H37   H     H_    0.870612 0.313655 0.884752 0.147304
H38   H     H_    0.831928 0.344547 0.803410 0.164434
H39   H     H_    0.983748 0.675546 0.717876 0.335156
H40   H     H_    0.040517 0.642535 0.283963 0.334780
H41   H     H_    0.484584 0.176398 0.719459 0.335121
H42   H     H_    0.536931 0.146411 0.282887 0.334381
H43   H     H_    0.558777 0.609923 0.301570 0.160542
H44   H     H_    0.615158 0.645152 0.321216 0.155948
H45   H     H_    0.546173 0.667164 0.273352 0.194948
H46   H     H_    0.213788 0.849205 0.610882 0.185917
H47   H     H_    0.384664 0.571035 0.655028 0.152639
H48   H     H_    0.337787 0.615067 0.641400 0.170960
H49   H     H_    0.411013 0.617913 0.712302 0.187197
H50   H     H_    0.061735 0.108208 0.302773 0.160682
H51   H     H_    0.117572 0.144363 0.322722 0.157322
H52   H     H_    0.047924 0.165189 0.273252 0.194312
H53   H     H_    0.863007 0.056043 0.629827 0.149714
H54   H     H_    0.814980 0.099076 0.615693 0.174774
H55   H     H_    0.885278 0.097425 0.694586 0.191636
H56   H     H_    0.697882 0.559110 0.493797 0.157866
H57   H     H_    0.272961 0.372196 0.407783 0.200935
H58   H     H_    0.770026 0.549044 0.556674 0.187795
H59   H     H_    0.746797 0.593474 0.496480 0.170272
H60   H     H_    0.277608 0.555004 0.441065 0.160807
H61   H     H_    0.225286 0.561719 0.347293 0.196058
H62   H     H_    0.209066 0.571554 0.402810 0.180908
H63   H     H_    0.199580 0.059256 0.496628 0.155554
H64   H     H_    0.271635 0.049480 0.561004 0.188846
H65   H     H_    0.248977 0.093260 0.499953 0.168870
H66   H     H_    0.766481 0.072238 0.414444 0.168356
H67   H     H_    0.701981 0.087921 0.335886 0.210919
H68   H     H_    0.715433 0.351268 0.610442 0.200453
H69   H     H_    0.721336 0.110703 0.414088 0.202010
H70   H     H_    0.690577 0.513795 0.649320 0.189000
H71   H     H_    0.749617 0.541351 0.663781 0.156839
H72   H     H_    0.727160 0.488205 0.623206 0.242605
H73   H     H_    0.327995 0.527570 0.321211 0.202459
H74   H     H_    0.312596 0.586028 0.301916 0.123874
H75   H     H_    0.260144 0.548356 0.283463 0.138476
H76   H     H_    0.183804 0.012642 0.645530 0.196076
H77   H     H_    0.245862 0.040515 0.668933 0.149658
H78   H     H_    0.225529 0.988057 0.626260 0.241432
H79   H     H_    0.863408 0.793723 0.843556 0.165792
H80   H     H_    0.781322 0.039863 0.288781 0.165694
H81   H     H_    0.829820 0.081676 0.307353 0.143839
H82   H     H_    0.763047 0.096800 0.285598 0.179587
H83   H     H_    0.559670 0.723069 0.534062 0.147734
H84   H     H_    0.591858 0.762550 0.512941 0.166764
H85   H     H_    0.617861 0.756068 0.600233 0.178075
H86   H     H_    0.428723 0.763661 0.474155 0.183849
H87   H     H_    0.475925 0.724072 0.540369 0.137432
H88   H     H_    0.432479 0.759481 0.548673 0.158999
H89   H     H_    0.115401 0.256768 0.596756 0.176908
H90   H     H_    0.120502 0.808435 0.155044 0.165480
H91   H     H_    0.057838 0.222840 0.531598 0.155486
H92   H     H_    0.089320 0.262223 0.509320 0.166689
H93   H     H_    0.997417 0.215530 0.596002 0.145150
H94   H     H_    0.955474 0.247948 0.610151 0.154769
H95   H     H_    0.963173 0.265841 0.548002 0.186828
H96   H     H_    0.556031 0.613644 0.119730 0.197801
H97   H     H_    0.534767 0.652223 0.153892 0.151355
H98   H     H_    0.602964 0.625273 0.210199 0.143280
H99   H     H_    0.442651 0.613921 0.880602 0.197285
H100  H     H_    0.456186 0.650268 0.835724 0.150613
H101  H     H_    0.362053 0.294384 0.842528 0.165558
H102  H     H_    0.388895 0.622294 0.790155 0.148019
H103  H     H_    0.063157 0.112452 0.121072 0.199174
H104  H     H_    0.038869 0.149979 0.152747 0.150220
H105  H     H_    0.107938 0.124711 0.211346 0.142319
H106  H     H_    0.992437 0.124877 0.883380 0.196250
H107  H     H_    0.009376 0.181774 0.880882 0.160028
H108  H     H_    0.961251 0.150156 0.801149 0.157963
H109  H     H_    0.799961 0.658234 0.674598 0.223494
H110  H     H_    0.783730 0.609076 0.702380 0.162473
H111  H     H_    0.780665 0.663775 0.728256 0.147641
H112  H     H_    0.112079 0.867705 0.588419 0.157548
H113  H     H_    0.614623 0.314640 0.155663 0.161516
H114  H     H_    0.212262 0.676944 0.300079 0.207782
H115  H     H_    0.244863 0.630335 0.292046 0.159567
H116  H     H_    0.255616 0.686159 0.276694 0.147733
H117  H     H_    0.300501 0.157231 0.679922 0.223167
H118  H     H_    0.280085 0.108156 0.702600 0.162404
H119  H     H_    0.277670 0.162556 0.729862 0.148128
H120  H     H_    0.751459 0.192535 0.300752 0.197421
H121  H     H_    0.806806 0.163405 0.307825 0.117112
H122  H     H_    0.809294 0.221946 0.318655 0.160228
H123  H     H_    0.948063 0.759653 0.626237 0.150012
H124  H     H_    0.980982 0.710704 0.853620 0.177192
H125  H     H_    0.898390 0.784346 0.634222 0.151330
H126  H     H_    0.971081 0.790455 0.701338 0.217391
H127  H     H_    0.075045 0.795968 0.328179 0.148305
H128  H     H_    0.139295 0.827190 0.366207 0.169258
H129  H     H_    0.075562 0.844266 0.286561 0.206078
H130  H     H_    0.452398 0.262993 0.635175 0.153778
H131  H     H_    0.397550 0.285520 0.635013 0.148239
H132  H     H_    0.468677 0.295520 0.705841 0.215012
H133  H     H_    0.574921 0.294017 0.330459 0.146952
H134  H     H_    0.637438 0.327018 0.365515 0.169208
H135  H     H_    0.028226 0.698669 0.148084 0.179917
H136  H     H_    0.572347 0.341951 0.285887 0.207796
H137  H     H_    0.038309 0.824477 0.571306 0.209414
H138  H     H_    0.010717 0.798817 0.609947 0.137624
H139  H     H_    0.067295 0.837114 0.657498 0.155751
H140  H     H_    0.944114 0.841104 0.348950 0.171424
H141  H     H_    0.985969 0.824867 0.323261 0.137195
H142  H     H_    0.939482 0.871119 0.283965 0.162531
H143  H     H_    0.540579 0.325840 0.577419 0.208140
H144  H     H_    0.512853 0.300597 0.616378 0.135927
H145  H     H_    0.568378 0.339870 0.662783 0.156103
H146  H     H_    0.481298 0.212493 0.854521 0.177425
H147  H     H_    0.444727 0.338828 0.354795 0.174063
H148  H     H_    0.485317 0.322275 0.327447 0.137774
H149  H     H_    0.437790 0.367854 0.287530 0.162014
H150  H     H_    0.884280 0.786664 0.427476 0.224411
H151  H     H_    0.956427 0.777168 0.496360 0.116855
H152  H     H_    0.929693 0.792521 0.410340 0.196195
H153  H     H_    0.073338 0.771092 0.483685 0.224373
H154  H     H_    0.002519 0.779329 0.406908 0.128708
H155  H     H_    0.022911 0.771247 0.490991 0.180094
H156  H     H_    0.388421 0.284144 0.435511 0.223896
H157  H     H_    0.527152 0.200428 0.147026 0.177067
H158  H     H_    0.460785 0.276359 0.504740 0.117278
H159  H     H_    0.433336 0.289590 0.417771 0.194447
H160  H     H_    0.576699 0.271191 0.489698 0.224591
H161  H     H_    0.505203 0.277855 0.414154 0.127713
H162  H     H_    0.527692 0.271218 0.499627 0.181046
H163  H     H_    0.769179 0.855018 0.294324 0.155481
H164  H     H_    0.722188 0.837625 0.311308 0.184386
H165  H     H_    0.753561 0.797345 0.292823 0.205680
H166  H     H_    0.175056 0.810541 0.675312 0.145378
H167  H     H_    0.230365 0.789579 0.674737 0.164712
H168  H     H_    0.652709 0.613401 0.426105 0.104769
H169  H     H_    0.174249 0.754308 0.650937 0.200028
H170  H     H_    0.271344 0.350246 0.294773 0.155008
H171  H     H_    0.224670 0.332277 0.312088 0.177389
H172  H     H_    0.258331 0.292334 0.296544 0.206317
H173  H     H_    0.680074 0.313045 0.679411 0.144227
H174  H     H_    0.735190 0.293091 0.677797 0.171713
H175  H     H_    0.680990 0.256602 0.657137 0.199249
H176  H     H_    0.316641 0.601004 0.533121 0.134793
H177  H     H_    0.154148 0.112789 0.427656 0.105161
H178  H     H_    0.806259 0.098398 0.515609 0.111819
H179  H     H_    0.544408 0.596959 0.388813 0.234422
H180  H     H_    0.355321 0.389777 0.390346 0.181743
H181  H     H_    0.428724 0.571381 0.598270 0.230535
H182  H     H_    0.045488 0.095748 0.388912 0.234339
H183  H     H_    0.916706 0.062898 0.587199 0.219565
H184  H     H_    0.600452 0.558672 0.425979 0.165829
H185  H     H_    0.365986 0.545996 0.527858 0.150838
H186  H     H_    0.102191 0.057958 0.427886 0.166584
H187  H     H_    0.854467 0.045041 0.506361 0.177783
H188  H     H_    0.582774 0.695252 0.457568 0.151726
H189  H     H_    0.422561 0.687082 0.575935 0.129997
H190  H     H_    0.082230 0.194869 0.455852 0.151061
H191  H     H_    0.614555 0.368778 0.590723 0.159804
H192  H     H_    0.925426 0.174515 0.598444 0.131006
H193  H     H_    0.534747 0.644054 0.467302 0.168384
H194  H     H_    0.473805 0.631974 0.579854 0.194187
H195  H     H_    0.034101 0.143602 0.465315 0.168531
H196  H     H_    0.976860 0.125266 0.591972 0.191529
H197  H     H_    0.587160 0.640310 0.559024 0.215524
H198  H     H_    0.449121 0.645888 0.495112 0.191011
H199  H     H_    0.085783 0.140633 0.557231 0.213790
H200  H     H_    0.956443 0.148557 0.512965 0.194721
H201  H     H_    0.663368 0.587988 0.612064 0.123536
H202  H     H_    0.868199 0.877995 0.600055 0.154112
H203  H     H_    0.360862 0.618685 0.396343 0.121125
H204  H     H_    0.162941 0.089037 0.612576 0.121192
H205  H     H_    0.873694 0.122343 0.401751 0.091702
H206  H     H_    0.661999 0.683495 0.281408 0.191765
H207  H     H_    0.338674 0.683005 0.718116 0.194387
H208  H     H_    0.164519 0.183786 0.282240 0.193411
H209  H     H_    0.860603 0.179515 0.717688 0.201767
H210  H     H_    0.904588 0.793671 0.526945 0.111822
H211  H     H_    0.084973 0.803216 0.421874 0.098159
H212  H     H_    0.406644 0.293908 0.532576 0.110219
H213  H     H_    0.172097 0.895579 0.447393 0.156550
H214  H     H_    0.584875 0.302354 0.424008 0.098706
H215  H     H_    0.582865 0.863957 0.317849 0.172172
H216  H     H_    0.565715 0.805713 0.300994 0.149233
H217  H     H_    0.538535 0.845023 0.230247 0.188443
H218  H     H_    0.407369 0.869785 0.680921 0.166108
H219  H     H_    0.429538 0.812535 0.698308 0.136250
H220  H     H_    0.453476 0.851041 0.768711 0.188214
H221  H     H_    0.078157 0.361211 0.315006 0.172181
H222  H     H_    0.064034 0.302453 0.300123 0.149099
H223  H     H_    0.034965 0.341038 0.228064 0.186933
H224  H     H_    0.365022 0.380140 0.597136 0.155903
H225  H     H_    0.869784 0.384113 0.676011 0.175897
H226  H     H_    0.908450 0.333804 0.694726 0.136607
H227  H     H_    0.922253 0.368211 0.764289 0.186986
H228  H     H_    0.824686 0.965100 0.578222 0.132311
H229  H     H_    0.805744 0.914719 0.601040 0.160927
H230  H     H_    0.753759 0.948632 0.529099 0.195386
H231  H     H_    0.234292 0.964763 0.515335 0.133570
H232  H     H_    0.264244 0.914148 0.509695 0.167306
H233  H     H_    0.296998 0.941389 0.590873 0.199740
H234  H     H_    0.319078 0.466968 0.568804 0.132831
H235  H     H_    0.669486 0.394951 0.443848 0.157415
H236  H     H_    0.300424 0.417310 0.593331 0.160205
H237  H     H_    0.248452 0.449427 0.518764 0.194838
H238  H     H_    0.730527 0.464879 0.507462 0.138711
H239  H     H_    0.761433 0.414308 0.503435 0.170466
H240  H     H_    0.794426 0.443338 0.583388 0.188208
H241  H     H_    0.915923 0.945401 0.671142 0.133665
H242  H     H_    0.938317 0.987823 0.640341 0.129062
H243  H     H_    0.987951 0.953993 0.713896 0.198138
H244  H     H_    0.134041 0.954226 0.375047 0.165245
H245  H     H_    0.146896 0.994592 0.437832 0.120219
H246  H     H_    0.876109 0.955694 0.536708 0.130035
H247  H     H_    0.082501 0.994668 0.351700 0.183768
H248  H     H_    0.410130 0.449586 0.664788 0.132861
H249  H     H_    0.433591 0.490782 0.633781 0.129122
H250  H     H_    0.482469 0.458469 0.709682 0.198549
H251  H     H_    0.630628 0.454003 0.371488 0.164650
H252  H     H_    0.642757 0.494801 0.433373 0.119807
H253  H     H_    0.577997 0.493478 0.347705 0.184636
H254  H     H_    0.743812 0.922243 0.314739 0.135391
H255  H     H_    0.796957 0.948115 0.313903 0.147951
H256  H     H_    0.756854 0.980601 0.328847 0.204105
N1    N     N_R   0.493578 0.722665 0.036148 -0.155405
N2    N     N_R   0.976924 0.750721 0.033393 -0.168600
N3    N     N_R   0.517627 0.263391 0.967130 -0.168769
N4    N     N_R   0.475063 0.252715 0.032687 -0.169444
N5    N     N_R   0.052661 0.761076 0.035222 -0.179799
N6    N     N_R   0.942837 0.750637 0.964873 -0.178955
N7    N     N_R   0.551113 0.264699 0.035602 -0.178985
N8    N     N_R   0.441486 0.252013 0.964209 -0.179514
N9    N     N_R   0.457192 0.723006 0.967627 -0.112806
N10   N     N_R   0.001876 0.217080 0.034662 -0.147203
N11   N     N_R   0.966274 0.216960 0.966085 -0.120327
N12   N     N_R   0.503804 0.783358 0.965333 -0.123920
N13   N     N_R   0.539999 0.783256 0.033853 -0.153826
N14   N     N_R   0.001079 0.285845 0.964628 -0.127695
N15   N     N_R   0.036589 0.286019 0.033192 -0.147072
N16   N     N_R   0.018664 0.760402 0.966733 -0.168146
O1    O     O_R   0.822450 0.770150 0.500010 -0.628483
O2    O     O_R   0.517630 0.546310 0.442550 -0.642322
O3    O     O_3   0.930689 0.170137 0.851801 -0.579037
O4    O     O_3   0.716237 0.649117 0.626710 -0.637247
O5    O     O_3   0.297058 0.671942 0.379268 -0.603459
O6    O     O_3   0.215591 0.150359 0.626623 -0.636075
O7    O     O_3   0.827499 0.186384 0.400907 -0.577283
O8    O     O_3   0.938327 0.829689 0.616210 -0.574910
O9    O     O_3   0.083054 0.858622 0.372356 -0.558275
O10   O     O_3   0.437549 0.332241 0.618872 -0.572735
O11   O     O_3   0.580888 0.357180 0.372159 -0.557612
O12   O     O_3   0.992351 0.867113 0.583400 -0.529879
O13   O     O_R   0.982370 0.046310 0.557450 -0.653474
O14   O     O_3   0.009965 0.883284 0.382578 -0.523468
O15   O     O_3   0.492823 0.368254 0.586812 -0.529357
O16   O     O_3   0.509141 0.381623 0.384775 -0.524667
O17   O     O_3   0.934169 0.844694 0.467148 -0.635039
O18   O     O_3   0.038099 0.835094 0.474472 -0.643458
O19   O     O_3   0.436709 0.343201 0.471794 -0.636029
O20   O     O_3   0.540215 0.334807 0.479138 -0.643548
O21   O     O_3   0.807139 0.824616 0.389595 -0.630760
O22   O     O_3   0.152859 0.801395 0.578090 -0.618391
O23   O     O_3   0.310106 0.322092 0.391635 -0.628988
O24   O     O_R   0.017630 0.046310 0.442550 -0.642830
O25   O     O_3   0.656406 0.302581 0.581683 -0.617957
O26   O     O_R   0.424900 0.546280 0.442440 -0.614766
O27   O     O_R   0.575100 0.546280 0.557560 -0.644972
O28   O     O_R   0.924900 0.046280 0.442440 -0.602098
O29   O     O_R   0.075100 0.046280 0.557560 -0.649288
O30   O     O_R   0.770150 0.822430 0.500030 -0.590396
O31   O     O_R   0.229850 0.822430 0.499970 -0.620964
O32   O     O_R   0.270150 0.322430 0.500030 -0.591302
O33   O     O_R   0.177550 0.770150 0.499990 -0.604279
O34   O     O_R   0.729850 0.322430 0.499970 -0.618963
O35   O     O_R   0.725220 0.723850 0.398140 -0.632531
O36   O     O_R   0.274780 0.723850 0.601860 -0.635803
O37   O     O_R   0.225220 0.223850 0.398140 -0.632799
O38   O     O_R   0.774780 0.223850 0.601860 -0.625794
O39   O     O_R   0.672910 0.776140 0.398150 -0.590380
O40   O     O_R   0.327090 0.776140 0.601850 -0.602054
O41   O     O_R   0.172910 0.276140 0.398150 -0.588928
O42   O     O_R   0.827090 0.276140 0.601850 -0.618883
O43   O     O_R   0.729840 0.677550 0.499990 -0.621864
O44   O     O_R   0.322450 0.270150 0.500010 -0.625539
O45   O     O_R   0.270160 0.677550 0.500010 -0.604304
O46   O     O_R   0.229840 0.177550 0.499990 -0.622236
O47   O     O_R   0.770160 0.177550 0.500010 -0.637989
O48   O     O_R   0.677530 0.729830 0.500000 -0.607504
O49   O     O_R   0.322470 0.729830 0.500000 -0.598781
O50   O     O_R   0.177530 0.229830 0.500000 -0.607113
O51   O     O_R   0.822470 0.229830 0.500000 -0.559148
O52   O     O_R   0.827070 0.723850 0.601870 -0.609532
O53   O     O_R   0.172930 0.723850 0.398130 -0.601540
O54   O     O_R   0.327070 0.223850 0.601870 -0.607479
O55   O     O_R   0.677550 0.270150 0.499990 -0.605954
O56   O     O_R   0.672930 0.223850 0.398130 -0.607979
O57   O     O_R   0.774770 0.776130 0.601880 -0.563850
O58   O     O_R   0.225230 0.776130 0.398120 -0.573116
O59   O     O_R   0.274770 0.276130 0.601880 -0.564865
O60   O     O_R   0.725230 0.276130 0.398120 -0.573518
O61   O     O_R   0.075080 0.953700 0.557570 -0.609727
O62   O     O_R   0.924920 0.953700 0.442430 -0.621838
O63   O     O_R   0.575080 0.453700 0.557570 -0.608326
O64   O     O_R   0.424920 0.453700 0.442430 -0.625905
O65   O     O_3   0.622999 0.829725 0.289508 -0.602418
O66   O     O_R   0.017620 0.953670 0.442560 -0.541557
O67   O     O_3   0.370551 0.830945 0.709823 -0.576369
O68   O     O_3   0.120163 0.328576 0.288042 -0.599112
O69   O     O_3   0.848205 0.331858 0.708177 -0.593429
O70   O     O_3   0.799311 0.910661 0.512418 -0.588159
O71   O     O_3   0.226318 0.906540 0.554566 -0.589765
O72   O     O_3   0.296444 0.410869 0.506704 -0.588161
O73   O     O_3   0.725305 0.407385 0.550588 -0.587639
O74   O     O_3   0.945391 0.921095 0.621405 -0.517120
O75   O     O_3   0.090153 0.942705 0.410975 -0.518152
O76   O     O_3   0.442385 0.423469 0.619257 -0.516196
O77   O     O_R   0.982380 0.953670 0.557440 -0.560389
O78   O     O_3   0.587886 0.441789 0.408792 -0.517815
O79   O     O_3   0.816716 0.941560 0.410581 -0.590299
O80   O     O_3   0.173921 0.915348 0.619920 -0.596120
O81   O     O_3   0.316506 0.439356 0.406298 -0.580989
O82   O     O_3   0.674941 0.417104 0.619217 -0.595212
O83   O     O_3   0.789830 0.796314 0.710538 -0.594931
O84   O     O_3   0.195105 0.812189 0.288156 -0.596181
O85   O     O_3   0.288636 0.295900 0.709659 -0.595499
O86   O     O_3   0.687413 0.319200 0.289650 -0.598458
O87   O     O_3   0.558016 0.831873 0.145500 -0.590588
O88   O     O_R   0.517620 0.453670 0.442560 -0.542128
O89   O     O_3   0.433639 0.833322 0.851848 -0.581820
O90   O     O_3   0.056686 0.330632 0.144576 -0.587090
O91   O     O_3   0.915564 0.331957 0.851771 -0.581878
O92   O     O_2   0.894370 0.661312 0.687129 -0.611606
O93   O     O_R   0.975530 0.698951 0.739686 -0.836175
O94   O     O_2   0.131666 0.652865 0.318185 -0.599721
O95   O     O_R   0.040919 0.670380 0.261067 -0.818612
O96   O     O_2   0.395080 0.161946 0.688259 -0.608474
O97   O     O_R   0.476106 0.199837 0.740955 -0.836373
O98   O     O_2   0.627825 0.154270 0.315536 -0.628416
O99   O     O_R   0.482380 0.453670 0.557440 -0.558551
O100  O     O_R   0.538120 0.174187 0.260514 -0.821167
O101  O     O_3   0.587905 0.658894 0.377231 -0.605737
O102  O     O_3   0.388889 0.632396 0.617644 -0.607602
O103  O     O_3   0.088714 0.157759 0.377038 -0.606405
O104  O     O_3   0.875874 0.120920 0.610345 -0.613725
O105  O     O_3   0.745451 0.605791 0.576878 -0.601866
O106  O     O_3   0.254308 0.620988 0.402475 -0.614562
O107  O     O_3   0.246001 0.106711 0.578738 -0.598837
O108  O     O_3   0.759132 0.138513 0.377162 -0.626301
O109  O     O_3   0.675773 0.540170 0.561872 -0.651809
O110  O     O_R   0.482370 0.546310 0.557450 -0.653298
O111  O     O_3   0.320237 0.559617 0.388003 -0.607295
O112  O     O_3   0.176733 0.040751 0.564009 -0.651631
O113  O     O_3   0.821476 0.069481 0.383464 -0.595182
O114  O     O_3   0.637595 0.704834 0.564220 -0.548267
O115  O     O_3   0.391227 0.708004 0.476798 -0.534674
O116  O     O_3   0.136103 0.205205 0.562337 -0.549416
O117  O     O_3   0.911084 0.212183 0.518088 -0.521898
O118  O     O_3   0.594241 0.674865 0.145148 -0.581047
O119  O     O_3   0.402816 0.674482 0.854189 -0.575683
O120  O     O_3   0.099077 0.174650 0.146585 -0.580676
Zn1   Zn    Zn3+2 0.784920 0.715080 0.500000 0.977344
Zn2   Zn    Zn3+2 0.461640 0.500010 0.423200 0.983211
Zn3   Zn    Zn3+2 0.038360 0.000010 0.576800 0.969469
Zn4   Zn    Zn3+2 0.961640 0.000010 0.423200 0.997366
Zn5   Zn    Zn3+2 0.215080 0.715080 0.500000 0.991170
Zn6   Zn    Zn3+2 0.284920 0.215080 0.500000 0.978455
Zn7   Zn    Zn3+2 0.715080 0.215080 0.500000 0.974519
Zn8   Zn    Zn3+2 0.715070 0.784900 0.500020 1.010641
Zn9   Zn    Zn3+2 0.284930 0.784900 0.499980 0.985730
Zn10  Zn    Zn3+2 0.215070 0.284900 0.500020 1.011568
Zn11  Zn    Zn3+2 0.784930 0.284900 0.499980 0.995643
Zn12  Zn    Zn3+2 0.538360 0.500010 0.576800 0.975860

loop_
_geom_bond_atom_site_label_1
_geom_bond_atom_site_label_2
_ccdc_geom_bond_type
C134  H235  S    
C93   O111  S    
C72   H19   S    
C132  C150  S    
C142  C146  S    
C184  N2    A    
C133  C151  S    
N12   N13   A    
C206  O114  S    
C16   H196  S    
C155  C180  S    
C118  H149  S    
C22   O27   A    
C155  O37   A    
C117  H145  S    
C67   H8    S    
C92   H71   S    
C90   O14   S    
C170  C174  A    
C93   H74   S    
C128  C145  S    
C6    C25   S    
C173  H146  S    
C177  C182  A    
C101  O19   S    
C147  O55   A    
C1    O30   A    
C157  C179  A    
C66   H3    S    
C45   O120  S    
C94   H78   S    
O13   Zn3   S    
C188  C210  S    
C189  C194  S    
C23   O28   A    
C196  H183  S    
C68   O11   S    
O32   Zn10  S    
C61   H242  S    
C116  H140  S    
C117  H144  S    
C99   H95   S    
C24   N10   A    
C4    C12   S    
C98   H92   S    
C119  H150  S    
C15   C208  S    
C144  O79   S    
C141  C145  S    
C87   H56   S    
C148  H191  S    
C168  C187  S    
C24   C41   S    
C85   H51   S    
C29   O56   A    
C13   C42   S    
C55   H226  S    
C153  O35   A    
C49   H207  S    
C130  O25   S    
C140  C144  S    
C164  C168  A    
C2    N1    A    
O63   Zn12  S    
C120  H154  S    
C109  H123  S    
O47   Zn7   S    
C59   H234  S    
C132  C137  S    
C48   C158  A    
C115  H137  S    
C34   C39   A    
C2    N13   A    
C108  H121  S    
C142  C151  S    
C91   H66   S    
C109  O8    S    
O43   Zn1   S    
C75   H29   S    
N3    N7    A    
C100  H98   S    
C208  C212  S    
C102  H100  S    
C204  C212  S    
C65   H254  S    
O60   Zn11  S    
C60   H238  S    
C200  O108  S    
C159  C181  A    
C73   H22   S    
C89   O107  S    
C114  H134  S    
C62   O75   S    
C79   O17   S    
C125  O22   S    
C151  H13   S    
C40   C202  S    
C112  O31   A    
C189  C211  S    
C105  H110  S    
C28   O54   A    
C25   O24   A    
C131  C149  S    
C86   H54   S    
C77   O91   S    
C117  O15   S    
C54   H223  S    
C52   H215  S    
C164  H101  S    
C97   O115  S    
C46   O9    S    
C65   H256  S    
C124  C135  S    
C195  H186  S    
C66   O80   S    
C67   H6    S    
C97   H86   S    
C70   H14   S    
C78   O93   S    
C136  O32   A    
C175  C179  A    
C152  H24   S    
C19   O88   A    
C64   O78   S    
C33   C38   A    
C83   H44   S    
C33   C191  A    
C104  H106  S    
C102  H102  S    
C45   C50   A    
C11   O113  S    
O58   Zn9   S    
C10   O112  S    
C111  H131  S    
C53   H218  S    
C99   H93   S    
C69   H9    S    
C96   H85   S    
C74   H28   S    
O38   Zn7   S    
C108  O7    S    
C90   C141  S    
C58   H232  S    
C109  H126  S    
C202  N12   A    
C5    C21   S    
C21   O110  A    
C30   O65   S    
C26   O57   A    
C106  H116  S    
C74   O87   S    
C132  H213  S    
C199  O6    S    
C88   O106  S    
C13   N14   A    
C89   H63   S    
C41   C45   A    
C31   C36   A    
H39   O93   S    
C77   H38   S    
C174  H157  S    
C201  O43   A    
C7    C196  S    
C157  C162  A    
C161  C165  A    
C5    C194  S    
C82   C178  S    
C50   C180  A    
C120  H153  S    
O36   Zn5   S    
C113  O16   S    
C209  O117  S    
C10   C199  S    
C14   H194  S    
C58   H233  S    
C208  H190  S    
C37   O90   S    
C100  O118  S    
C136  O44   A    
C26   C179  S    
C147  O34   A    
C92   O109  S    
C145  O80   S    
C17   C141  S    
C16   C209  S    
C107  O6    S    
C13   N11   A    
C66   H5    S    
C64   H253  S    
C78   C175  S    
C103  H103  S    
C60   H240  S    
C153  C158  S    
C28   C182  S    
C11   C200  S    
C190  C212  S    
C12   H193  S    
C116  H142  S    
C27   O53   A    
C20   O99   A    
C94   O112  S    
C186  N7    A    
C103  O120  S    
C54   H221  S    
C106  H114  S    
O49   Zn9   S    
O31   Zn9   S    
C127  H174  S    
O30   Zn8   S    
O39   Zn8   S    
C207  C211  S    
C203  C211  S    
C97   H88   S    
N1    N9    A    
C203  O49   A    
C90   O18   S    
C119  H151  S    
C125  H166  S    
C141  C150  S    
C143  C148  S    
C101  O15   S    
C190  O103  S    
C43   O118  S    
C30   C34   A    
C8    O109  S    
C3    C205  S    
C95   H82   S    
C1    O1    A    
C121  O19   S    
C108  H120  S    
C63   H249  S    
C35   C135  S    
C134  C139  S    
C55   H227  S    
C35   O8    S    
N5    N16   A    
C52   H217  S    
C53   H220  S    
C118  H148  S    
C114  O11   S    
C69   H11   S    
C74   H26   S    
C123  H163  S    
C88   H61   S    
C27   C181  S    
C5    C9    S    
C126  H171  S    
O64   Zn2   S    
C4    C22   S    
C101  C142  S    
C206  C210  S    
C167  C184  S    
C12   H197  S    
O29   Zn3   S    
C89   H65   S    
C3    C200  S    
C71   H17   S    
C110  O9    S    
C208  O116  S    
C32   C37   A    
O77   Zn3   S    
C81   O96   D    
C18   C140  S    
C64   H252  S    
C190  C195  S    
C46   C137  S    
O56   Zn7   S    
C153  O39   A    
C9    O111  S    
C188  C193  S    
C34   O87   S    
C47   O3    S    
C120  H155  S    
C79   C140  S    
C36   O89   S    
C110  H129  S    
C51   C191  A    
C121  H159  S    
O1    Zn1   S    
C174  C178  A    
C122  H160  S    
C72   H20   S    
C171  H124  S    
C104  H107  S    
C32   C180  A    
C178  C183  A    
C145  H112  S    
C186  N4    A    
C82   O100  S    
C198  O106  S    
C57   C101  S    
C197  O105  S    
C57   O10   S    
C146  O81   S    
C199  O107  S    
C96   H83   S    
C81   C177  S    
C92   H72   S    
C19   O63   A    
O52   Zn1   S    
C93   H73   S    
C115  O12   S    
C172  H135  S    
C102  O119  S    
C122  H161  S    
C7    C23   S    
C8    H201  S    
C35   C79   S    
C75   O89   S    
C91   H69   S    
C66   H4    S    
N10   N11   A    
C95   O113  S    
C187  N3    A    
C63   H248  S    
C50   H208  S    
C156  C191  S    
C86   O104  S    
C40   C44   A    
C196  H187  S    
C61   H241  S    
C195  H182  S    
C98   O116  S    
C117  H143  S    
O46   Zn6   S    
C189  H176  S    
C56   O70   S    
O41   Zn10  S    
C1    C135  S    
C193  H184  S    
O45   Zn5   S    
C140  C149  S    
C172  C176  A    
C126  O23   S    
O88   Zn2   S    
C3    C209  S    
C131  H202  S    
O99   Zn12  S    
C124  O21   S    
C159  O84   S    
C121  H156  S    
C71   H16   S    
C201  C210  S    
C84   H47   S    
C76   H33   S    
C11   H205  S    
C85   H50   S    
C55   H225  S    
O55   Zn7   S    
C160  C164  A    
O62   Zn4   S    
C87   H58   S    
C152  O78   S    
C10   H204  S    
C70   O83   S    
C72   H21   S    
O2    Zn2   S    
C107  H118  S    
C122  O20   S    
C199  C212  S    
C197  O4    S    
H42   O100  S    
C197  C210  S    
C162  C166  A    
C163  H90   S    
C31   O67   S    
O51   Zn11  S    
C97   H87   S    
C70   H12   S    
C82   O98   D    
C162  H79   S    
C113  O20   S    
C205  O47   A    
C124  C144  S    
C110  H127  S    
C68   C113  S    
C91   H67   S    
C73   O86   S    
C192  O104  S    
C133  C138  S    
C14   C207  S    
C27   O58   A    
C105  H109  S    
C94   H77   S    
C205  O51   A    
C176  C181  A    
C86   H55   S    
C130  C139  S    
C20   O64   A    
C6    C195  S    
C150  O75   S    
C4    C193  S    
O35   Zn1   S    
C127  H175  S    
C62   H247  S    
C65   H255  S    
C154  O36   A    
C201  O48   A    
C59   O72   S    
O59   Zn10  S    
C156  O38   A    
C70   H15   S    
C93   H75   S    
C80   O95   S    
C94   H76   S    
C151  O76   S    
C31   C169  A    
C71   O84   S    
C113  C143  S    
C154  C169  S    
C83   H43   S    
C12   C206  S    
C161  C183  A    
C106  O5    S    
C192  C196  S    
C134  C152  S    
C170  C186  S    
C15   H195  S    
C58   O71   S    
O34   Zn11  S    
C203  O45   A    
C98   H91   S    
C18   O62   A    
C5    C14   S    
C194  H181  S    
C109  H125  S    
C143  C152  S    
C149  O74   S    
C121  H158  S    
C84   H49   S    
C69   O82   S    
C48   H206  S    
C85   H52   S    
C78   O92   D    
C188  H168  S    
C165  C170  A    
C184  N5    A    
C65   O79   S    
O57   Zn8   S    
C21   O26   A    
C77   H37   S    
C112  C137  S    
C55   O69   S    
O24   Zn4   S    
C56   H230  S    
C6    C10   S    
C47   C51   A    
C165  H113  S    
O26   Zn2   S    
C131  O70   S    
C167  C172  A    
C46   C90   S    
C134  O73   S    
C115  H138  S    
C112  O33   A    
C77   H36   S    
C25   O29   A    
C207  O115  S    
C161  O86   S    
H41   O97   S    
C75   H30   S    
C49   C169  A    
C100  H97   S    
O44   Zn6   S    
C120  O18   S    
C102  H99   S    
C190  H177  S    
C67   H7    S    
C155  O41   A    
C118  O16   S    
C83   H45   S    
C17   O66   A    
C32   O68   S    
C130  H68   S    
C116  O14   S    
C73   H23   S    
C46   H211  S    
C114  H133  S    
C204  O46   A    
C188  O101  S    
C63   O76   S    
C207  H189  S    
N14   N15   A    
O66   Zn4   S    
C105  H111  S    
O110  Zn12  S    
C68   C139  S    
C56   H228  S    
C86   H53   S    
C3    C192  S    
C185  N16   A    
C54   H222  S    
C44   C49   A    
C125  H169  S    
C127  H173  S    
C62   H245  S    
C146  H180  S    
O37   Zn6   S    
C103  H105  S    
C166  C185  S    
C22   O2    A    
C204  O50   A    
C4    C8    S    
C59   H236  S    
C7    C11   S    
C139  C147  S    
C160  O85   S    
C95   H81   S    
C76   H32   S    
C38   C42   A    
C29   O60   A    
C131  C135  S    
C144  H1    S    
C192  H178  S    
C51   H209  S    
C85   O103  S    
C61   H243  S    
C111  H132  S    
C53   H219  S    
C99   H94   S    
C148  O82   S    
C69   H10   S    
C74   H27   S    
C98   H89   S    
C88   H62   S    
C126  H172  S    
C157  O83   S    
C87   H59   S    
C6    C15   S    
C127  O25   S    
C2    C39   S    
C88   H60   S    
C129  C138  S    
C106  H115  S    
C198  O5    S    
O48   Zn8   S    
C89   H64   S    
C92   H70   S    
C133  H224  S    
C123  H165  S    
C206  H188  S    
C43   C48   A    
C83   O101  S    
C209  H192  S    
C119  O17   S    
C166  C171  A    
C37   C41   A    
C52   H216  S    
C8    C197  S    
C193  H179  S    
C17   O61   A    
O61   Zn3   S    
C160  C182  A    
O27   Zn12  S    
C64   H251  S    
C133  O72   S    
C168  C173  A    
C130  C148  S    
C104  H108  S    
C20   C142  S    
C36   C40   A    
C75   H31   S    
C56   H229  S    
C80   C176  S    
C136  C138  S    
N2    N6    A    
C84   O102  S    
C39   C43   A    
C171  C175  A    
C149  H246  S    
C53   O67   S    
C59   H237  S    
C103  H104  S    
C99   O117  S    
C60   H239  S    
C54   O68   S    
C128  H46   S    
C163  C167  A    
C128  C137  S    
C96   H84   S    
C73   H25   S    
C60   O73   S    
C132  O71   S    
C189  O102  S    
C80   O94   D    
C200  O7    S    
C173  C177  A    
C116  H141  S    
C122  H162  S    
O28   Zn4   S    
C26   O52   A    
C129  C146  S    
C96   O114  S    
C57   H212  S    
C95   H80   S    
C107  H119  S    
C198  C211  S    
C44   O119  S    
O54   Zn6   S    
O53   Zn5   S    
O33   Zn5   S    
C154  O40   A    
C159  C163  A    
C156  O42   A    
C129  O23   S    
C119  H152  S    
C125  H167  S    
C35   H210  S    
C9    C198  S    
C38   O91   S    
C30   C158  A    
C7    C16   S    
C19   C143  S    
C29   C183  S    
C68   H214  S    
C84   H48   S    
C28   O59   A    
C76   H34   S    
N4    N8    A    
C63   H250  S    
C16   H200  S    
C123  O21   S    
C52   O65   S    
C23   O13   A    
C24   N15   A    
C15   H199  S    
O50   Zn10  S    
C111  H130  S    
C118  H147  S    
C33   O69   S    
C124  H35   S    
O40   Zn9   S    
C126  H170  S    
C194  H185  S    
C14   H198  S    
C202  N9    A    
O42   Zn11  S    
C79   O12   S    
H40   O95   S    
C115  H139  S    
C71   H18   S    
C57   C138  S    
C107  H117  S    
C187  N8    A    
C150  H2    S    
C81   O97   S    
C123  H164  S    
C72   O85   S    
C108  H122  S    
C110  H128  S    
C111  O10   S    
C129  H57   S    
C185  N6    A    
C62   H244  S    
C100  H96   S    
C105  O4    S    
C58   H231  S    
C42   C47   A    
C76   O90   S    
C9    H203  S    
C87   O105  S    
C104  O3    S    
C91   O108  S    
C67   O81   S    
C128  O22   S    
C61   O74   S    
C18   O77   A    
C114  H136  S    
