data_mof_unit_31649.cif
_audit_creation_date              2012-12-10T17:46:21-0500
_audit_creation_method            fapswitch 2.2
_symmetry_space_group_name_H-M    P1
_symmetry_Int_Tables_number       1
_space_group_crystal_system       triclinic
_cell_length_a                    14.146704
_cell_length_b                    10.622915
_cell_length_c                    9.960251
_cell_angle_alpha                 90.460236
_cell_angle_beta                  90.427642
_cell_angle_gamma                 92.035134
_cell_volume                      1495.78152773

loop_
_atom_site_label
_atom_site_type_symbol
_atom_type_description
_atom_site_fract_x
_atom_site_fract_y
_atom_site_fract_z
_atom_type_partial_charge
C1    C     C_R   0.498455 0.260683 0.499372 0.854804
C2    C     C_R   0.574489 0.067844 0.459627 -0.179282
C3    C     C_R   0.574868 0.938998 0.460843 -0.197748
C4    C     C_R   0.329368 0.499344 0.499597 0.846920
C5    C     C_R   0.494233 0.871417 0.501317 -0.091104
C6    C     C_R   0.376573 0.333688 0.137141 -0.130761
C7    C     C_R   0.315790 0.251333 0.066049 -0.185620
C8    C     C_R   0.315539 0.251441 0.927083 -0.182022
C9    C     C_R   0.376139 0.333823 0.858371 -0.123996
C10   C     C_R   0.439261 0.417995 0.926681 0.148661
C11   C     C_R   0.439368 0.418007 0.070888 0.155612
C12   C     C_1   0.772172 0.500226 0.501200 -0.196941
C13   C     C_R   0.557757 0.578650 0.074244 -0.068222
C14   C     C_R   0.558532 0.579822 0.931253 0.001875
C15   C     C_R   0.499296 0.739273 0.500463 0.857141
C16   C     C_R   0.670639 0.500358 0.500405 0.883365
C17   C     C_1   0.227866 0.499193 0.498935 -0.211164
C18   C     C_1   0.142594 0.499251 0.499175 -0.010875
C19   C     C_1   0.042676 0.499476 0.499917 0.008334
C20   C     C_1   0.957396 0.499728 0.500604 0.014397
C21   C     C_1   0.857463 0.500026 0.501179 0.001098
C22   C     C_2   0.624838 0.670792 0.865324 0.417355
C23   C     C_R   0.324538 0.123120 0.561860 -0.205840
C24   C     C_R   0.243240 0.053867 0.598163 -0.143550
C25   C     C_R   0.244745 0.923102 0.605209 -0.124752
C26   C     C_R   0.327269 0.861131 0.574537 -0.167303
C27   C     C_R   0.410230 0.930067 0.537533 0.099557
C28   C     C_R   0.409226 0.061844 0.533275 0.097740
C29   C     C_R   0.493117 0.128111 0.497422 -0.090504
H1    H     H_    0.637937 0.120918 0.430779 0.149851
H2    H     H_    0.372060 0.328779 0.243649 0.196886
H3    H     H_    0.268331 0.187365 0.119298 0.156450
H4    H     H_    0.632007 0.674198 0.758406 0.137129
H5    H     H_    0.267833 0.187606 0.872024 0.158194
H6    H     H_    0.371250 0.329281 0.752058 0.196016
H7    H     H_    0.320122 0.224187 0.554356 0.110353
H8    H     H_    0.178831 0.101764 0.620277 0.140417
H9    H     H_    0.181552 0.869420 0.633139 0.144262
H10   H     H_    0.325250 0.759499 0.579130 0.140086
H11   H     H_    0.638413 0.891694 0.432024 0.148313
H12   H     H_    0.604367 0.642019 0.131643 0.191671
N1    N     N_R   0.499190 0.498800 0.142780 -0.138466
N2    N     N_R   0.499160 0.498720 0.857170 -0.160693
O1    O     O_R   0.500000 0.316780 0.614690 -0.618098
O2    O     O_R   0.499990 0.316750 0.385360 -0.624545
O3    O     O_R   0.373720 0.500010 0.614690 -0.618592
O4    O     O_R   0.373710 0.499990 0.385360 -0.607572
O5    O     O_R   0.500010 0.683250 0.614640 -0.637855
O6    O     O_R   0.500000 0.683220 0.385310 -0.597282
O7    O     O_R   0.626290 0.500010 0.614640 -0.621529
O8    O     O_R   0.626280 0.499990 0.385310 -0.588549
O9    O     O_2   0.673965 0.745361 0.931634 -0.595401
Zn1   Zn    Zn3+2 0.500010 0.500020 0.653130 0.920274
Zn2   Zn    Zn3+2 0.499990 0.499980 0.346870 0.941504

loop_
_geom_bond_atom_site_label_1
_geom_bond_atom_site_label_2
_ccdc_geom_bond_type
C3    H11   S    
C23   C24   A    
C6    C7    A    
C13   C14   A    
C25   H9    S    
C9    C10   A    
C1    O1    A    
C19   C20   T    
C16   O8    A    
C2    H1    S    
O8    Zn2   S    
C14   C22   S    
C13   H12   S    
C17   C18   T    
C25   C26   A    
C7    C8    A    
C4    O3    A    
C23   C28   A    
C20   C21   S    
C1    O2    A    
C26   C27   A    
C15   O5    A    
C2    C29   A    
C4    C17   S    
O1    Zn1   S    
O3    Zn1   S    
C1    C29   S    
C13   N1    A    
C16   O7    A    
O2    Zn2   S    
C24   H8    S    
C2    C3    A    
C15   O6    A    
O5    Zn1   S    
C26   H10   S    
C5    C15   S    
O7    Zn1   S    
C10   C11   A    
O6    Zn2   S    
C23   H7    S    
C6    C11   A    
C24   C25   A    
C11   N1    A    
C22   O9    D    
C18   C19   S    
C8    H5    S    
C27   C28   A    
C9    H6    S    
C22   H4    S    
C14   N2    A    
C28   C29   A    
C6    H2    S    
C7    H3    S    
O4    Zn2   S    
C10   N2    A    
C5    C27   A    
C12   C21   T    
N2    Zn1   S    
N1    Zn2   S    
C12   C16   S    
C8    C9    A    
C3    C5    A    
C4    O4    A    
