data_mof_unit_30809.cif
_audit_creation_date              2012-12-10T16:47:30-0500
_audit_creation_method            fapswitch 2.2
_symmetry_space_group_name_H-M    P1
_symmetry_Int_Tables_number       1
_space_group_crystal_system       triclinic
_cell_length_a                    10.643886
_cell_length_b                    8.675827
_cell_length_c                    7.54355
_cell_angle_alpha                 102.168967
_cell_angle_beta                  95.106346
_cell_angle_gamma                 93.65157
_cell_volume                      675.814072546

loop_
_atom_site_label
_atom_site_type_symbol
_atom_type_description
_atom_site_fract_x
_atom_site_fract_y
_atom_site_fract_z
_atom_type_partial_charge
C1    C     C_R   0.494783 0.200391 0.454192 0.888461
C2    C     C_R   0.505211 0.799610 0.545810 0.888355
C3    C     C_R   0.259876 0.496922 0.500802 0.829382
C4    C     C_R   0.740121 0.503078 0.499197 0.829334
C5    C     C_3   0.046974 0.476730 0.661620 -0.035176
C6    C     C_3   0.953022 0.523270 0.338375 -0.035234
C7    C     C_3   0.950151 0.361990 0.524694 -0.013857
C8    C     C_3   0.049841 0.638009 0.475297 -0.013893
C9    C     C_3   0.876642 0.502691 0.496597 -0.153399
C10   C     C_3   0.123352 0.497309 0.503397 -0.153371
C11   C     C_3   0.972609 0.618978 0.635048 -0.232808
C12   C     C_3   0.027387 0.381027 0.364943 -0.232831
C13   C     C_2   0.487070 0.032535 0.429369 -0.313742
C14   C     C_2   0.512912 0.967469 0.570642 -0.313748
Cu1   Cu    Cu3+1 0.514140 0.517380 0.684380 0.991865
Cu2   Cu    Cu3+1 0.485860 0.482620 0.315620 0.991723
H1    H     H_    0.947840 0.716078 0.744310 0.217148
H2    H     H_    0.052157 0.283928 0.255680 0.217111
H3    H     H_    0.457922 0.962246 0.293680 0.155065
H4    H     H_    0.542050 0.037763 0.706338 0.155086
N1    N     N_2   0.464560 0.456420 0.038510 -0.237196
N2    N     N_2   0.535440 0.543580 0.961490 -0.237080
O1    O     O_R   0.509190 0.286130 0.619780 -0.584612
O2    O     O_R   0.490810 0.713870 0.380220 -0.584756
O3    O     O_R   0.485310 0.256770 0.308360 -0.629915
O4    O     O_R   0.514690 0.743230 0.691640 -0.629856
O5    O     O_R   0.328790 0.514640 0.655680 -0.599261
O6    O     O_R   0.671210 0.485360 0.344320 -0.599394
O7    O     O_R   0.304910 0.485280 0.344260 -0.558806
O8    O     O_R   0.695090 0.514720 0.655740 -0.558704
C15   C     C_2   0.889055 0.208230 0.549018 0.922242
O9    O     O_2   0.896369 0.086529 0.435747 -0.543136
O10   O     O_R   0.822570 0.205582 0.700017 -0.744581
H5    H     H_    0.786484 0.095145 0.702371 0.330070
C16   C     C_2   0.110941 0.791755 0.450945 0.922198
O11   O     O_2   0.103656 0.913463 0.564220 -0.543146
O12   O     O_R   0.177391 0.794388 0.299908 -0.744572
H6    H     H_    0.213472 0.904822 0.297538 0.330070
C17   C     C_2   0.101476 0.455433 0.844037 0.516157
H7    H     H_    0.166491 0.547797 0.930731 0.105761
O13   O     O_2   0.073069 0.335351 0.896409 -0.509165
C18   C     C_2   0.898502 0.544527 0.155958 0.516089
H8    H     H_    0.833430 0.452174 0.069352 0.105742
O14   O     O_2   0.926949 0.664549 0.103482 -0.509140
C19   C     C_2   0.434441 0.298451 0.943801 0.760808
H9    H     H_    0.501113 0.211265 0.956618 -0.018358
O15   O     O_2   0.331141 0.257754 0.857165 -0.542723
C20   C     C_2   0.565475 0.701568 0.056162 0.761014
H10   H     H_    0.498642 0.788619 0.043592 -0.018487
O16   O     O_2   0.668871 0.742433 0.142481 -0.542736

loop_
_geom_bond_atom_site_label_1
_geom_bond_atom_site_label_2
_ccdc_geom_bond_type
Cu2   O6    S    
N2    C20   S    
C15   O10   S    
C1    O1    A    
O12   H6    S    
C13   C14   D    
Cu1   O5    S    
C16   O11   D    
C7    C9    S    
C6    C9    S    
C20   O16   D    
O10   H5    S    
Cu2   O7    S    
Cu1   N2    S    
C5    C10   S    
C2    O4    A    
C3    C10   S    
C19   H9    S    
C6    C12   S    
C9    C11   S    
C3    O7    A    
Cu2   N1    S    
C18   O14   D    
C8    C11   S    
C10   C12   S    
Cu1   O1    S    
C20   H10   S    
C16   O12   S    
C5    C11   S    
N1    C19   S    
C3    O5    A    
C19   O15   D    
C2    O2    A    
C7    C12   S    
C2    C14   S    
C1    C13   S    
C18   H8    S    
C13   H3    S    
Cu1   Cu2   S    
C14   H4    S    
Cu2   O3    S    
C7    C15   S    
C17   O13   D    
Cu1   O8    S    
Cu2   O2    S    
C6    C18   S    
C12   H2    S    
C17   H7    S    
C5    C7    S    
C5    C17   S    
C11   H1    S    
Cu1   O4    S    
C6    C8    S    
C4    O6    A    
C4    C9    S    
N1    N2    D    
C1    O3    A    
C8    C10   S    
C4    O8    A    
C15   O9    D    
C8    C16   S    
