data_mof_unit_55824.cif
_audit_creation_date              2012-12-11T14:52:49-0500
_audit_creation_method            fapswitch 2.2
_symmetry_space_group_name_H-M    P1
_symmetry_Int_Tables_number       1
_space_group_crystal_system       triclinic
_cell_length_a                    20.635929
_cell_length_b                    7.250537
_cell_length_c                    20.336227
_cell_angle_alpha                 90.231421
_cell_angle_beta                  101.504681
_cell_angle_gamma                 90.56836
_cell_volume                      2981.40179003

loop_
_atom_site_label
_atom_site_type_symbol
_atom_type_description
_atom_site_fract_x
_atom_site_fract_y
_atom_site_fract_z
_atom_type_partial_charge
O1    O     O_R   0.673670 0.377510 0.185950 -0.549212
O2    O     O_R   0.326330 0.622490 0.814050 -0.549895
O3    O     O_R   0.826330 0.877510 0.314050 -0.532414
O4    O     O_R   0.173670 0.122490 0.685950 -0.533716
O5    O     O_R   0.806260 0.705340 0.185590 -0.538038
O6    O     O_R   0.193740 0.294660 0.814410 -0.538899
O7    O     O_R   0.693740 0.205340 0.314410 -0.537354
O8    O     O_R   0.306260 0.794660 0.685590 -0.534443
C1    C     C_R   0.825610 0.539153 0.170896 0.725806
C2    C     C_R   0.174443 0.460929 0.829177 0.721206
C3    C     C_R   0.674472 0.038458 0.329185 0.710301
C4    C     C_R   0.325615 0.961538 0.670905 0.711537
O9    O     O_R   0.672940 0.707120 0.178050 -0.532694
O10   O     O_R   0.327060 0.292880 0.821950 -0.532302
O11   O     O_R   0.827060 0.207120 0.321950 -0.526778
O12   O     O_R   0.172940 0.792880 0.678050 -0.525982
O13   O     O_R   0.692060 0.879040 0.306460 -0.527318
O14   O     O_R   0.307940 0.120960 0.693540 -0.526775
O15   O     O_R   0.807940 0.379040 0.193540 -0.533704
O16   O     O_R   0.192060 0.620960 0.806460 -0.534928
C5    C     C_R   0.649139 0.537236 0.161098 0.826135
C6    C     C_R   0.350907 0.462705 0.838833 0.821808
C7    C     C_R   0.851141 0.039682 0.339048 0.794840
C8    C     C_R   0.148870 0.960302 0.660911 0.797283
O17   O     O_3   0.756430 0.544390 0.292140 -0.376805
O18   O     O_3   0.243570 0.455610 0.707860 -0.373859
O19   O     O_3   0.743570 0.044390 0.207860 -0.387831
O20   O     O_3   0.256430 0.955610 0.792140 -0.388287
V1    V     V_3+5 0.748810 0.818610 0.242180 1.457848
V2    V     V_3+5 0.251190 0.181390 0.757820 1.467954
V3    V     V_3+5 0.751190 0.318610 0.257820 1.441792
V4    V     V_3+5 0.248810 0.681390 0.742180 1.457645
C9    C     C_R   0.086813 0.963025 0.608448 -0.302087
C10   C     C_R   0.913223 0.036815 0.391431 -0.302074
C11   C     C_R   0.412382 0.478843 0.891079 -0.288363
C12   C     C_R   0.587654 0.520902 0.108852 -0.289635
C13   C     C_R   0.019690 0.181853 0.441251 0.330431
C14   C     C_R   0.980413 0.817706 0.558505 0.324104
C15   C     C_R   0.468434 0.459129 0.079240 0.341394
C16   C     C_R   0.531635 0.539989 0.920694 0.340525
C17   C     C_R   0.963958 0.165547 0.388073 0.256993
C18   C     C_R   0.036202 0.833706 0.611614 0.260842
C19   C     C_R   0.527993 0.473332 0.127966 0.265736
C20   C     C_R   0.472061 0.526304 0.871965 0.268812
C21   C     C_R   0.921825 0.909079 0.444588 0.398525
C22   C     C_R   0.078182 0.090838 0.555295 0.405286
C23   C     C_R   0.589939 0.535056 0.040251 0.414833
C24   C     C_R   0.410134 0.463322 0.959661 0.409136
C25   C     C_R   0.975464 0.930627 0.500718 -0.163151
C26   C     C_R   0.024575 0.069201 0.499119 -0.164202
C27   C     C_R   0.530673 0.519057 0.990077 -0.168312
C28   C     C_R   0.469369 0.479966 0.009846 -0.168062
C29   C     C_3   0.559035 0.074386 0.534399 0.388817
C30   C     C_3   0.446319 0.923334 0.470419 0.467811
C31   C     C_3   0.949222 0.614403 0.971312 0.435680
C32   C     C_3   0.046152 0.389376 0.024543 0.455222
C33   C     C_3   0.528180 0.893488 0.557045 -0.426879
C34   C     C_3   0.476171 0.104933 0.448702 -0.363568
C35   C     C_3   0.966722 0.434216 0.936712 -0.457399
C36   C     C_3   0.029819 0.570433 0.058402 -0.373472
H1    H     H_    0.548735 0.807764 0.601234 0.144882
H2    H     H_    0.454813 0.193534 0.405572 0.175206
H3    H     H_    0.941627 0.377540 0.887302 0.147722
H4    H     H_    0.056029 0.628689 0.107155 0.158410
C37   C     C_1   0.371595 0.970019 0.625717 -0.159798
C38   C     C_1   0.629322 0.029860 0.375217 -0.181096
C39   C     C_1   0.128764 0.468005 0.874736 -0.185877
C40   C     C_1   0.870851 0.532637 0.124919 -0.188313
C41   C     C_3   0.490845 0.166775 0.523372 0.465502
C42   C     C_3   0.514356 0.830715 0.482294 0.437212
C43   C     C_3   0.023176 0.667298 0.989469 0.469052
C44   C     C_3   0.972326 0.337443 0.005681 0.416395
C45   C     C_3   0.459391 0.987830 0.544064 -0.091661
C46   C     C_3   0.544856 0.010564 0.460309 -0.136159
C47   C     C_3   0.041365 0.487784 0.956794 -0.096437
C48   C     C_3   0.955216 0.516976 0.039620 -0.110949
C49   C     C_1   0.410827 0.977162 0.588597 0.076535
C50   C     C_1   0.591272 0.022272 0.413553 0.022349
C51   C     C_1   0.089790 0.475037 0.912145 0.046503
C52   C     C_1   0.908914 0.527241 0.086558 0.026267
O21   O     O_3   0.124485 0.231142 0.557253 -0.521699
C53   C     C_3   0.099991 0.391393 0.583252 -0.007781
H5    H     H_    0.091907 0.369854 0.635156 0.117141
H6    H     H_    0.053199 0.438399 0.550840 0.114531
H7    H     H_    0.137064 0.504014 0.585090 0.159149
O22   O     O_3   0.875515 0.768772 0.442626 -0.529021
C54   C     C_3   0.899971 0.608523 0.416569 -0.020662
H8    H     H_    0.946792 0.561473 0.448916 0.118671
H9    H     H_    0.907997 0.630069 0.364646 0.123599
H10   H     H_    0.862902 0.495905 0.414770 0.153356
O23   O     O_3   0.349862 0.424136 0.976931 -0.522502
C55   C     C_3   0.317233 0.591594 0.983567 -0.122634
H11   H     H_    0.348299 0.687709 0.019882 0.145093
H12   H     H_    0.271756 0.560480 0.002938 0.170227
H13   H     H_    0.301769 0.660788 0.934441 0.099635
O24   O     O_3   0.650467 0.569838 0.022898 -0.524030
C56   C     C_3   0.681471 0.399784 0.016172 -0.169658
H14   H     H_    0.727007 0.426872 0.996518 0.135726
H15   H     H_    0.649426 0.305302 0.980013 0.148622
H16   H     H_    0.696530 0.330433 0.065327 0.109082
O25   O     O_3   0.042090 0.717321 0.666284 -0.563178
C57   C     C_3   0.017256 0.807684 0.717476 -0.270293
H17   H     H_    0.964731 0.848133 0.700151 0.144530
H18   H     H_    0.048034 0.930505 0.736835 0.122770
H19   H     H_    0.019095 0.710705 0.759829 0.156697
O26   O     O_3   0.958326 0.280544 0.333021 -0.564131
C58   C     C_3   0.983065 0.188149 0.282161 -0.253199
H20   H     H_    0.953198 0.062488 0.264386 0.129998
H21   H     H_    0.036000 0.151601 0.299265 0.144234
H22   H     H_    0.979809 0.281910 0.238660 0.159428
O27   O     O_3   0.472423 0.549159 0.804407 -0.563366
C59   C     C_3   0.472821 0.739700 0.790265 -0.248407
H23   H     H_    0.519679 0.807710 0.815731 0.150279
H24   H     H_    0.430112 0.811197 0.804402 0.147078
H25   H     H_    0.468882 0.756892 0.735434 0.147530
O28   O     O_3   0.527708 0.449599 0.195496 -0.557788
C60   C     C_3   0.527456 0.258832 0.209322 -0.219425
H26   H     H_    0.569947 0.187572 0.194631 0.140391
H27   H     H_    0.480449 0.191094 0.184124 0.147452
H28   H     H_    0.531894 0.240845 0.264178 0.158636
O29   O     O_3   0.070552 0.304471 0.437027 -0.612911
H29   H     H_    0.058361 0.384230 0.397224 0.317622
O30   O     O_3   0.929573 0.694950 0.562689 -0.620868
H30   H     H_    0.941750 0.615080 0.602461 0.314045
O31   O     O_3   0.409013 0.423673 0.098649 -0.612039
H31   H     H_    0.413234 0.450892 0.147068 0.317235
O32   O     O_3   0.591094 0.575252 0.901327 -0.618240
H32   H     H_    0.586879 0.548181 0.852899 0.311252
O33   O     O_3   0.617476 0.165726 0.566791 -0.559151
C61   C     C_3   0.668851 0.037262 0.582940 -0.237072
H33   H     H_    0.659802 0.942829 0.623143 0.134501
H34   H     H_    0.715624 0.113557 0.602478 0.165968
H35   H     H_    0.676017 0.957220 0.538220 0.141372
O34   O     O_3   0.386172 0.836911 0.439957 -0.524420
C62   C     C_3   0.382428 0.824389 0.370159 -0.140476
H36   H     H_    0.426323 0.755160 0.357608 0.158409
H37   H     H_    0.376097 0.962992 0.346760 0.113782
H38   H     H_    0.338265 0.740086 0.347992 0.160132
O35   O     O_3   0.900512 0.742523 0.943681 -0.554415
C63   C     C_3   0.839115 0.651722 0.923483 -0.265976
H39   H     H_    0.840502 0.549414 0.882963 0.136062
H40   H     H_    0.801515 0.755767 0.902969 0.166078
H41   H     H_    0.822805 0.585303 0.966569 0.143109
O36   O     O_3   0.097564 0.265397 0.048868 -0.524131
C64   C     C_3   0.095813 0.218125 0.115614 -0.120923
H42   H     H_    0.046801 0.160964 0.120507 0.154843
H43   H     H_    0.109402 0.338540 0.149740 0.100523
H44   H     H_    0.132932 0.109469 0.131942 0.160431
O37   O     O_3   0.521671 0.651295 0.457751 -0.527924
C65   C     C_3   0.587083 0.592053 0.480397 -0.100940
H45   H     H_    0.600478 0.588741 0.536063 0.131624
H46   H     H_    0.622932 0.678964 0.460006 0.106649
H47   H     H_    0.591144 0.449342 0.461911 0.182233
O38   O     O_3   0.475750 0.347212 0.541604 -0.517316
C66   C     C_3   0.500968 0.379194 0.610405 -0.118736
H48   H     H_    0.555180 0.403517 0.619781 0.151837
H49   H     H_    0.488926 0.265629 0.642651 0.112861
H50   H     H_    0.478236 0.506383 0.625652 0.155751
O39   O     O_3   0.948311 0.160259 0.017481 -0.530685
C67   C     C_3   0.880817 0.145321 0.987089 -0.145122
H51   H     H_    0.874742 0.132480 0.931726 0.135818
H52   H     H_    0.851292 0.262376 0.000016 0.086169
H53   H     H_    0.860097 0.019026 0.005931 0.192970
O40   O     O_3   0.052476 0.842793 0.985301 -0.519780
C68   C     C_3   0.033576 0.914153 0.919999 -0.079013
H54   H     H_    0.982132 0.965172 0.911244 0.176455
H55   H     H_    0.039211 0.812867 0.880496 0.073136
H56   H     H_    0.066054 0.034094 0.915167 0.157581

loop_
_geom_bond_atom_site_label_1
_geom_bond_atom_site_label_2
_ccdc_geom_bond_type
C40   C52   T    
C62   H38   S    
C54   H8    S    
O1    C5    A    
C68   H54   S    
C15   O31   S    
C31   C35   S    
C66   H49   S    
O13   V1    S    
O3    C7    A    
O27   C59   S    
C63   H41   S    
C44   C48   S    
O15   V3    S    
C64   H44   S    
C59   H24   S    
C64   H42   S    
O30   H30   S    
C14   C25   A    
C2    C39   S    
O7    C3    A    
C6    C11   S    
C10   C17   A    
O5    C1    A    
O25   C57   S    
C44   O39   S    
C12   C23   A    
C9    C18   A    
O9    V1    S    
O40   C68   S    
C63   H40   S    
C14   C18   A    
C60   H27   S    
C30   C34   S    
O4    C8    A    
O19   V1    S    
O26   C58   S    
C30   C45   S    
O1    V3    S    
C31   O35   S    
O28   C60   S    
C57   H19   S    
O2    V4    S    
C33   C45   S    
O3    V1    S    
C56   H15   S    
C1    O15   A    
C29   C46   S    
C2    O16   A    
C32   C44   S    
C24   O23   S    
O2    C6    A    
C58   H20   S    
C41   C45   S    
O14   V2    S    
C33   C42   S    
C16   C20   A    
C14   O30   S    
C3    C38   S    
C35   C44   S    
O11   C7    A    
C15   C28   A    
C29   C41   S    
O12   C8    A    
C32   C47   S    
C66   H50   S    
C9    C22   A    
C58   H21   S    
C42   O37   S    
O10   V2    S    
C11   C24   A    
C59   H23   S    
C64   H43   S    
C56   H14   S    
O5    V1    S    
C38   C50   T    
O7    V3    S    
C43   O40   S    
O9    C5    A    
C27   C28   A    
O8    V4    S    
C67   H53   S    
C62   H36   S    
C37   C49   T    
C63   H39   S    
C17   O26   S    
C60   H28   S    
O23   C55   S    
C5    C12   S    
C29   C33   S    
O18   V4    S    
C15   C19   A    
C36   C43   S    
C16   O32   S    
O11   V3    S    
C36   C48   S    
C55   H13   S    
O21   C53   S    
C32   C36   S    
C67   H52   S    
C61   H34   S    
C42   C46   S    
C8    C9    S    
C19   O28   S    
C22   O21   S    
O39   C67   S    
C30   C42   S    
C21   C25   A    
O8    C4    A    
C7    C10   S    
O24   C56   S    
C55   H12   S    
O38   C66   S    
C39   C51   T    
C10   C21   A    
C57   H18   S    
C11   C20   A    
C65   H47   S    
O29   H29   S    
C34   H2    S    
C13   O29   S    
C31   C48   S    
O6    V2    S    
C53   H5    S    
C68   H56   S    
C53   H6    S    
C54   H9    S    
O31   H31   S    
C58   H22   S    
C65   H46   S    
C61   H35   S    
C29   O33   S    
O32   H32   S    
C53   H7    S    
C18   O25   S    
C35   C47   S    
C23   O24   S    
C56   H16   S    
C34   C46   S    
O33   C61   S    
O16   V4    S    
C62   H37   S    
C3    O13   A    
O22   C54   S    
O17   V3    S    
C48   C52   S    
O36   C64   S    
O6    C2    A    
C23   C27   A    
O35   C63   S    
C34   C41   S    
C33   H1    S    
O34   C62   S    
O12   V4    S    
C16   C27   A    
C4    C37   S    
C22   C26   A    
C35   H3    S    
C41   O38   S    
C36   H4    S    
C67   H51   S    
O10   C6    A    
O20   V2    S    
C61   H33   S    
C1    C40   S    
O37   C65   S    
C43   C47   S    
C13   C26   A    
C55   H11   S    
C21   O22   S    
C13   C17   A    
C57   H17   S    
O4    V2    S    
C32   O36   S    
C20   O27   S    
C24   C28   A    
C68   H55   S    
C25   C26   A    
C46   C50   S    
C54   H10   S    
C4    O14   A    
C66   H48   S    
C45   C49   S    
C65   H45   S    
C12   C19   A    
C60   H26   S    
C47   C51   S    
C59   H25   S    
C31   C43   S    
C30   O34   S    
