data_mof_unit_28400.cif
_audit_creation_date              2012-12-11T15:35:54-0500
_audit_creation_method            fapswitch 2.2
_symmetry_space_group_name_H-M    P1
_symmetry_Int_Tables_number       1
_space_group_crystal_system       triclinic
_cell_length_a                    7.141972
_cell_length_b                    12.436589
_cell_length_c                    35.566592
_cell_angle_alpha                 89.997842
_cell_angle_beta                  90.906877
_cell_angle_gamma                 90.031134
_cell_volume                      3158.69149398

loop_
_atom_site_label
_atom_site_type_symbol
_atom_type_description
_atom_site_fract_x
_atom_site_fract_y
_atom_site_fract_z
_atom_type_partial_charge
O1    O     O_R   0.379730 0.148600 0.662710 -0.539934
O2    O     O_R   0.620270 0.851400 0.337290 -0.539933
O3    O     O_R   0.120270 0.648600 0.337290 -0.540309
O4    O     O_R   0.879730 0.351400 0.662710 -0.540308
O5    O     O_R   0.722480 0.134490 0.741330 -0.540273
O6    O     O_R   0.277520 0.865510 0.258670 -0.540264
O7    O     O_R   0.777520 0.634490 0.258670 -0.540567
O8    O     O_R   0.222480 0.365510 0.741330 -0.540559
O9    O     O_R   0.892880 0.345890 0.741600 -0.541506
O10   O     O_R   0.107120 0.654110 0.258400 -0.541501
O11   O     O_R   0.607120 0.845890 0.258400 -0.541685
O12   O     O_R   0.392880 0.154110 0.741600 -0.541680
C1    C     C_R   0.551981 0.105211 0.751862 0.651769
C2    C     C_R   0.448019 0.894787 0.248137 0.651767
C3    C     C_R   0.947949 0.605180 0.248146 0.651768
C4    C     C_R   0.052050 0.394819 0.751854 0.651764
O13   O     O_R   0.709490 0.135560 0.662990 -0.541029
O14   O     O_R   0.290510 0.864440 0.337010 -0.541029
O15   O     O_R   0.790510 0.635560 0.337010 -0.540961
O16   O     O_R   0.209490 0.364440 0.662990 -0.540961
C5    C     C_R   0.539894 0.108449 0.651539 0.688708
C6    C     C_R   0.460106 0.891551 0.348461 0.688710
C7    C     C_R   0.959964 0.608462 0.348486 0.688937
C8    C     C_R   0.040036 0.391538 0.651513 0.688940
O17   O     O_3   0.552800 0.316610 0.702160 -0.375465
O18   O     O_3   0.447200 0.683390 0.297840 -0.375468
O19   O     O_3   0.947200 0.816610 0.297840 -0.375211
O20   O     O_3   0.052800 0.183390 0.702160 -0.375215
V1    V     V_3+5 0.827630 0.234380 0.702160 1.415049
V2    V     V_3+5 0.172370 0.765620 0.297840 1.415061
V3    V     V_3+5 0.672370 0.734380 0.297840 1.414824
V4    V     V_3+5 0.327630 0.265620 0.702160 1.414833
C9    C     C_R   0.980338 0.665152 0.913616 0.539325
C10   C     C_R   0.019656 0.334831 0.086390 0.539329
C11   C     C_R   0.520053 0.164970 0.086290 0.539225
C12   C     C_R   0.479957 0.835012 0.913702 0.539227
O21   O     O_2   0.957947 0.559441 0.920368 -0.560179
O22   O     O_2   0.042033 0.440544 0.079639 -0.560175
O23   O     O_2   0.542810 0.059314 0.079517 -0.560188
O24   O     O_2   0.457215 0.940670 0.920475 -0.560186
N1    N     N_R   0.000778 0.702006 0.876953 -0.532067
N2    N     N_R   0.999223 0.297975 0.123053 -0.532064
N3    N     N_R   0.499425 0.201719 0.122958 -0.532164
N4    N     N_R   0.500577 0.798262 0.877034 -0.532161
C13   C     C_R   0.013347 0.811090 0.871404 0.553140
C14   C     C_R   0.986669 0.188891 0.128602 0.553158
C15   C     C_R   0.486373 0.310761 0.128527 0.552826
C16   C     C_R   0.513616 0.689220 0.871466 0.552841
C17   C     C_R   0.926881 0.644222 0.809437 -0.043341
C18   C     C_R   0.073125 0.355769 0.190568 -0.043347
C19   C     C_R   0.573376 0.144078 0.190477 -0.042911
C20   C     C_R   0.426617 0.855912 0.809517 -0.042914
C21   C     C_R   0.944984 0.569771 0.779676 -0.253139
C22   C     C_R   0.055023 0.430226 0.220328 -0.253158
C23   C     C_R   0.555196 0.069711 0.220264 -0.252671
C24   C     C_R   0.444794 0.930285 0.779731 -0.252696
C25   C     C_R   0.124881 0.449356 0.820431 -0.008252
C26   C     C_R   0.875102 0.550626 0.179571 -0.008263
C27   C     C_R   0.375667 0.948986 0.179522 -0.008217
C28   C     C_R   0.624354 0.050992 0.820475 -0.008226
C29   C     C_R   0.125037 0.533957 0.847732 -0.166416
C30   C     C_R   0.874938 0.466017 0.152274 -0.166388
C31   C     C_R   0.375694 0.033450 0.152169 -0.166814
C32   C     C_R   0.624336 0.966521 0.847824 -0.166783
C33   C     C_R   0.017004 0.627333 0.844546 0.311297
C34   C     C_R   0.982988 0.372648 0.155460 0.311289
C35   C     C_R   0.483449 0.126991 0.155357 0.311675
C36   C     C_R   0.516559 0.872989 0.844636 0.311668
C37   C     C_R   0.998399 0.847986 0.939061 -0.025600
C38   C     C_R   0.001613 0.151997 0.060945 -0.025599
C39   C     C_R   0.501474 0.347826 0.060886 -0.025680
C40   C     C_R   0.498522 0.652157 0.939107 -0.025678
C41   C     C_R   0.979190 0.737302 0.944947 -0.043590
C42   C     C_R   0.020813 0.262682 0.055059 -0.043604
C43   C     C_R   0.521036 0.237186 0.054976 -0.043420
C44   C     C_R   0.478969 0.762797 0.945017 -0.043435
C45   C     C_R   0.955582 0.701659 0.982005 -0.106593
C46   C     C_R   0.044417 0.298325 0.018002 -0.106596
C47   C     C_R   0.544906 0.201668 0.017915 -0.106537
C48   C     C_R   0.455103 0.798316 0.982078 -0.106539
C49   C     C_R   0.011828 0.883899 0.902067 -0.018617
C50   C     C_R   0.988191 0.116082 0.097939 -0.018607
C51   C     C_R   0.487752 0.383631 0.097883 -0.018942
C52   C     C_R   0.512236 0.616351 0.902110 -0.018932
C53   C     C_R   0.043178 0.471954 0.784341 -0.059645
C54   C     C_R   0.956821 0.528038 0.215661 -0.059644
C55   C     C_R   0.457071 0.971811 0.215622 -0.059669
C56   C     C_R   0.542931 0.028181 0.784376 -0.059671
H1    H     H_    0.193187 0.526081 0.874124 0.148527
H2    H     H_    0.806769 0.473881 0.125883 0.148514
H3    H     H_    0.307838 0.025380 0.125750 0.148685
H4    H     H_    0.692214 0.974578 0.874241 0.148671
H5    H     H_    0.936853 0.616910 0.987916 0.163396
H6    H     H_    0.063139 0.383075 0.012090 0.163396
H7    H     H_    0.563889 0.116962 0.011985 0.163451
H8    H     H_    0.436127 0.883023 0.988008 0.163452
C57   C     C_R   0.979549 0.964321 0.037066 0.045580
C58   C     C_R   0.020470 0.035663 0.962940 0.045559
C59   C     C_R   0.520843 0.464448 0.962932 0.045239
C60   C     C_R   0.479147 0.535536 0.037061 0.045219
C61   C     C_R   0.022984 0.112854 0.993066 0.007532
C62   C     C_R   0.977030 0.887130 0.006940 0.007536
C63   C     C_R   0.476748 0.612807 0.006962 0.007671
C64   C     C_R   0.523248 0.387177 0.993031 0.007676
C65   C     C_R   0.000618 0.076344 0.030161 0.083492
C66   C     C_R   0.999398 0.923640 0.969845 0.083480
C67   C     C_R   0.499491 0.576426 0.969866 0.083406
C68   C     C_R   0.500503 0.423557 0.030127 0.083393
C69   C     C_R   0.969762 0.933029 0.074507 -0.162016
C70   C     C_R   0.030266 0.066953 0.925500 -0.162001
C71   C     C_R   0.530960 0.433269 0.925488 -0.161812
C72   C     C_R   0.469019 0.566714 0.074506 -0.161796
C73   C     C_R   0.980617 0.006564 0.103956 -0.160844
C74   C     C_R   0.019410 0.993418 0.896050 -0.160813
C75   C     C_R   0.520072 0.506865 0.896062 -0.160460
C76   C     C_R   0.479909 0.493117 0.103931 -0.160431
O25   O     O_2   0.968502 0.149398 0.163633 -0.563541
O26   O     O_2   0.031524 0.850583 0.836374 -0.563547
O27   O     O_2   0.532106 0.649830 0.836431 -0.563633
O28   O     O_2   0.467870 0.350150 0.163561 -0.563640
C77   C     C_R   0.951694 0.774547 0.012175 -0.175374
C78   C     C_R   0.048313 0.225438 0.987831 -0.175365
C79   C     C_R   0.548841 0.274641 0.987768 -0.175433
C80   C     C_R   0.451161 0.725344 0.012225 -0.175425
H9    H     H_    0.123354 0.412700 0.247032 0.125470
H10   H     H_    0.876663 0.587303 0.752971 0.125469
H11   H     H_    0.376638 0.912606 0.753018 0.125220
H12   H     H_    0.623340 0.087398 0.246978 0.125217
H13   H     H_    0.159457 0.285520 0.195253 0.181888
H14   H     H_    0.840558 0.714475 0.804752 0.181879
H15   H     H_    0.340408 0.785553 0.804842 0.181480
H16   H     H_    0.659576 0.214441 0.195151 0.181471
H17   H     H_    0.994673 0.977172 0.132238 0.166476
H18   H     H_    0.005353 0.022809 0.867768 0.166466
H19   H     H_    0.505969 0.477543 0.867775 0.166349
H20   H     H_    0.494016 0.522437 0.132218 0.166338
H21   H     H_    0.964908 0.850591 0.081908 0.127487
H22   H     H_    0.035130 0.149392 0.918098 0.127483
H23   H     H_    0.535971 0.350863 0.918061 0.127612
H24   H     H_    0.463998 0.649120 0.081933 0.127606
H25   H     H_    0.925309 0.739520 0.039237 0.116935
H26   H     H_    0.074697 0.260464 0.960770 0.116936
H27   H     H_    0.575549 0.239726 0.960706 0.116949
H28   H     H_    0.424457 0.760260 0.039287 0.116951
C81   C     C_R   0.967911 0.531212 0.379195 -0.027420
C82   C     C_R   0.032089 0.468787 0.620805 -0.027420
C83   C     C_R   0.530949 0.031491 0.620781 -0.025541
C84   C     C_R   0.469051 0.968509 0.379219 -0.025542
C85   C     C_R   0.909987 0.353301 0.403255 -0.168678
C86   C     C_R   0.090014 0.646699 0.596745 -0.168678
C87   C     C_R   0.571171 0.851676 0.597028 -0.169232
C88   C     C_R   0.428830 0.148324 0.402972 -0.169232
C89   C     C_R   0.920854 0.423735 0.372983 -0.179780
C90   C     C_R   0.079146 0.576265 0.627017 -0.179779
C91   C     C_R   0.565789 0.922664 0.627223 -0.180545
C92   C     C_R   0.434212 0.077336 0.372777 -0.180544
C93   C     C_R   0.003405 0.568760 0.415553 -0.216577
C94   C     C_R   0.996595 0.431240 0.584447 -0.216577
C95   C     C_R   0.502344 0.069873 0.584320 -0.215934
C96   C     C_R   0.497656 0.930126 0.415680 -0.215935
C97   C     C_R   0.987180 0.500097 0.446972 0.080390
C98   C     C_R   0.012820 0.499903 0.553028 0.080390
C99   C     C_R   0.512318 0.000402 0.553019 0.081335
C100  C     C_R   0.487682 0.999598 0.446981 0.081335
C101  C     C_R   0.940621 0.390673 0.440091 0.131170
C102  C     C_R   0.059379 0.609327 0.559909 0.131170
C103  C     C_R   0.546439 0.889618 0.560096 0.130557
C104  C     C_R   0.453562 0.110382 0.439904 0.130557
C105  C     C_R   0.011313 0.536953 0.484810 0.053835
C106  C     C_R   0.988688 0.463047 0.515189 0.053835
C107  C     C_R   0.492814 0.037524 0.515124 0.054538
C108  C     C_R   0.507187 0.962476 0.484876 0.054538
C109  C     C_R   0.944036 0.354704 0.506711 -0.194645
C110  C     C_R   0.055965 0.645296 0.493289 -0.194645
C111  C     C_R   0.539510 0.852843 0.493533 -0.195734
C112  C     C_R   0.460491 0.147157 0.506467 -0.195734
C113  C     C_R   0.921192 0.319636 0.469950 -0.200707
C114  C     C_R   0.078809 0.680364 0.530049 -0.200707
C115  C     C_R   0.558488 0.817597 0.530351 -0.202705
C116  C     C_R   0.441513 0.182403 0.469649 -0.202705
H29   H     H_    0.885771 0.235999 0.464884 0.140447
H30   H     H_    0.114230 0.764000 0.535116 0.140448
H31   H     H_    0.584271 0.732906 0.535558 0.139558
H32   H     H_    0.415731 0.267094 0.464442 0.139558
H33   H     H_    0.963845 0.347044 0.581851 0.098745
H34   H     H_    0.036154 0.652956 0.418149 0.098745
H35   H     H_    0.521799 0.845032 0.418402 0.097527
H36   H     H_    0.478200 0.154967 0.581597 0.097527
H37   H     H_    0.109337 0.605127 0.655210 0.107184
H38   H     H_    0.890663 0.394873 0.344790 0.107184
H39   H     H_    0.410004 0.106949 0.344467 0.106399
H40   H     H_    0.589997 0.893051 0.655533 0.106399
H41   H     H_    0.873105 0.270027 0.397964 0.125674
H42   H     H_    0.126896 0.729973 0.602036 0.125674
H43   H     H_    0.598168 0.767280 0.602475 0.125283
H44   H     H_    0.401834 0.232720 0.397525 0.125283
H45   H     H_    0.924403 0.293965 0.527805 0.129231
H46   H     H_    0.075598 0.706035 0.472195 0.129231
H47   H     H_    0.551849 0.791131 0.472546 0.129536
H48   H     H_    0.448153 0.208869 0.527454 0.129536
C117  C     C_R   0.182846 0.336487 0.832953 0.093778
C118  C     C_R   0.147509 0.242030 0.811463 -0.070320
C119  C     C_R   0.203522 0.141643 0.823900 -0.159510
C120  C     C_R   0.291314 0.131313 0.858559 -0.093848
C121  C     C_R   0.308778 0.218188 0.882144 -0.128606
C122  C     C_R   0.244740 0.317755 0.870370 -0.152541
H49   H     H_    0.062535 0.237725 0.786767 0.130400
H50   H     H_    0.171263 0.070929 0.807299 0.156941
H51   H     H_    0.329877 0.053499 0.868779 0.186815
H52   H     H_    0.356252 0.205399 0.910793 0.122904
H53   H     H_    0.228423 0.374801 0.892474 0.128622
C123  C     C_R   0.817140 0.663490 0.167045 0.093781
C124  C     C_R   0.852470 0.757952 0.188532 -0.070334
C125  C     C_R   0.796461 0.858335 0.176092 -0.159530
C126  C     C_R   0.708684 0.868656 0.141430 -0.093847
C127  C     C_R   0.691229 0.781775 0.117848 -0.128622
C128  C     C_R   0.755257 0.682211 0.129626 -0.152536
H54   H     H_    0.937437 0.762264 0.213228 0.130399
H55   H     H_    0.828710 0.929054 0.192691 0.156945
H56   H     H_    0.670125 0.946467 0.131207 0.186822
H57   H     H_    0.643772 0.794558 0.089198 0.122895
H58   H     H_    0.771576 0.625157 0.107524 0.128638
C129  C     C_R   0.317563 0.836046 0.167082 0.093776
C130  C     C_R   0.353114 0.741713 0.188611 -0.070055
C131  C     C_R   0.296878 0.641247 0.176268 -0.159263
C132  C     C_R   0.208635 0.630727 0.141661 -0.093882
C133  C     C_R   0.190872 0.717488 0.118033 -0.128200
C134  C     C_R   0.255215 0.817117 0.129709 -0.152642
H59   H     H_    0.438503 0.737578 0.213252 0.130354
H60   H     H_    0.329344 0.570623 0.192892 0.156790
H61   H     H_    0.169994 0.552841 0.131501 0.186701
H62   H     H_    0.142935 0.704555 0.089421 0.123013
H63   H     H_    0.271427 0.874038 0.107563 0.128191
C135  C     C_R   0.682461 0.163928 0.832920 0.093782
C136  C     C_R   0.646929 0.258268 0.811393 -0.070065
C137  C     C_R   0.703160 0.358729 0.823742 -0.159285
C138  C     C_R   0.791379 0.369237 0.858352 -0.093884
C139  C     C_R   0.809124 0.282468 0.881976 -0.128219
C140  C     C_R   0.744788 0.182844 0.870295 -0.152636
H64   H     H_    0.561565 0.262413 0.786749 0.130355
H65   H     H_    0.670710 0.429359 0.807120 0.156795
H66   H     H_    0.830019 0.447119 0.868515 0.186712
H67   H     H_    0.857038 0.295393 0.910591 0.123000
H68   H     H_    0.728568 0.125915 0.892439 0.128210

loop_
_geom_bond_atom_site_label_1
_geom_bond_atom_site_label_2
_ccdc_geom_bond_type
C13   O26   S    
C95   H36   S    
C94   C98   A    
C103  C115  A    
C107  C108  A    
O1    C5    A    
C58   C70   A    
C133  H62   S    
C96   C100  A    
C101  C113  A    
C117  C118  A    
C72   H24   S    
O3    C7    A    
C129  C130  A    
C10   N2    A    
C72   C76   A    
C119  C120  A    
C83   C95   A    
C130  C131  A    
C75   H19   S    
C28   C56   A    
C76   H20   S    
C71   H23   S    
C64   C79   A    
C121  C122  A    
C7    C81   S    
C11   C43   A    
C18   C22   A    
C43   C47   A    
C17   C33   A    
C138  H66   S    
C32   C36   A    
C8    C82   S    
O20   V1    S    
O9    C4    A    
C2    C55   S    
C125  H55   S    
N2    C14   A    
O4    C8    A    
O11   C2    A    
C87   C103  A    
C24   C56   A    
C123  C128  A    
C132  H61   S    
C86   C102  A    
C11   N3    A    
O13   V1    S    
C137  C138  A    
C69   H21   S    
C84   C96   A    
C24   H11   S    
C87   H43   S    
C5    C83   S    
C113  H29   S    
C85   C89   A    
C127  H57   S    
C86   H42   S    
C12   C44   A    
C85   H41   S    
C14   C50   A    
C122  H53   S    
C88   C92   A    
C25   C53   A    
C23   C55   A    
C98   C106  A    
C49   C74   A    
C38   C42   A    
C116  H32   S    
C117  C122  A    
C37   C41   A    
C140  H68   S    
C102  C114  A    
C71   C75   A    
C15   C51   A    
C48   H8    S    
C62   C77   A    
C83   C91   A    
C110  C114  A    
O5    V1    S    
C57   C62   A    
C20   C36   A    
C108  C111  A    
O9    V1    S    
C97   C105  A    
O17   V4    S    
O7    C3    A    
C59   C64   A    
C60   C68   A    
O15   V3    S    
O18   V3    S    
O8    C4    A    
C73   H17   S    
C39   C68   A    
O12   V4    S    
O19   V2    S    
C61   C65   A    
C120  C121  A    
C48   C80   A    
C112  H48   S    
C38   C50   A    
C63   C80   A    
C26   C54   A    
C12   N4    A    
C88   C104  A    
C29   H1    S    
C16   O27   S    
C39   C51   A    
C89   H38   S    
O17   V1    S    
C22   H9    S    
C31   C35   A    
C110  H46   S    
O7    V3    S    
C118  C119  A    
C88   H44   S    
C107  C112  A    
C109  H45   S    
O8    V4    S    
C115  H31   S    
C77   H25   S    
C12   O24   S    
C28   C135  S    
C93   H34   S    
C91   H40   S    
C22   C54   A    
C30   C34   A    
C129  C134  A    
C111  C115  A    
C124  C125  A    
O19   V3    S    
C139  H67   S    
C60   C63   A    
O13   C5    A    
C16   C52   A    
C14   O25   S    
O2    V3    S    
C137  H65   S    
C120  H51   S    
O3    V2    S    
C11   O23   S    
C126  C127  A    
C47   H7    S    
C18   H13   S    
C26   C123  S    
O6    C2    A    
C57   C69   A    
O10   V2    S    
C133  C134  A    
C82   C90   A    
C40   C67   A    
O20   V4    S    
C99   C103  A    
C136  C137  A    
C127  C128  A    
C59   C71   A    
C81   C93   A    
C131  C132  A    
C74   H18   S    
C85   C101  A    
C40   C44   A    
C105  C106  A    
C19   C35   A    
N1    C13   A    
C23   H12   S    
C25   C29   A    
C18   C34   A    
C111  H47   S    
C134  H63   S    
C40   C52   A    
C27   C129  S    
C26   C30   A    
C10   C42   A    
C37   C49   A    
O14   V2    S    
C100  C104  A    
C9    C41   A    
C15   O28   S    
O6    V2    S    
C90   H37   S    
C6    C84   S    
O18   V2    S    
C52   C75   A    
C87   C91   A    
C118  H49   S    
C3    C54   S    
C86   C90   A    
C4    C53   S    
C95   C99   A    
N4    C36   S    
C44   C48   A    
C135  C136  A    
C32   H4    S    
C25   C117  S    
C94   H33   S    
C93   C97   A    
C64   C68   A    
C99   C107  A    
O15   C7    A    
C9    O21   S    
O16   V4    S    
C128  H58   S    
C100  C108  A    
C70   C74   A    
C139  C140  A    
C37   C66   A    
C41   C45   A    
O10   C3    A    
C10   O22   S    
C20   H15   S    
O5    C1    A    
C51   C76   A    
C13   C49   A    
O4    V1    S    
C50   C73   A    
C38   C65   A    
C63   C67   A    
C19   H16   S    
C60   C72   A    
C82   C94   A    
C69   C73   A    
C114  H30   S    
C58   C61   A    
C59   C67   A    
C17   H14   S    
C27   C31   A    
C131  H60   S    
C58   C66   A    
C28   C32   A    
C124  H54   S    
C9    N1    A    
O14   C6    A    
C30   H2    S    
C57   C65   A    
N4    C16   A    
C104  C116  A    
O2    C6    A    
C39   C43   A    
C123  C124  A    
C47   C79   A    
C121  H52   S    
C46   H6    S    
C17   C21   A    
C138  C139  A    
C125  C126  A    
C1    C56   S    
C45   H5    S    
C126  H56   S    
C79   H27   S    
C81   C89   A    
C105  C110  A    
C98   C102  A    
C119  H50   S    
C19   C23   A    
C135  C140  A    
O1    V4    S    
N1    C33   S    
C46   C78   A    
C27   C55   A    
C45   C77   A    
C21   H10   S    
C70   H22   S    
O11   V3    S    
C92   H39   S    
C29   C33   A    
C112  C116  A    
O12   C1    A    
N3    C35   S    
C132  C133  A    
C42   C46   A    
C62   C66   A    
C31   H3    S    
N2    C34   S    
C78   H26   S    
C80   H28   S    
C21   C53   A    
C84   C92   A    
C96   H35   S    
C109  C113  A    
C130  H59   S    
C61   C78   A    
N3    C15   A    
O16   C8    A    
C136  H64   S    
C97   C101  A    
C20   C24   A    
C106  C109  A    
