data_mof_unit_41710.cif
_audit_creation_date              2012-12-11T14:44:12-0500
_audit_creation_method            fapswitch 2.2
_symmetry_space_group_name_H-M    P1
_symmetry_Int_Tables_number       1
_space_group_crystal_system       triclinic
_cell_length_a                    19.00045
_cell_length_b                    10.876231
_cell_length_c                    18.843077
_cell_angle_alpha                 90.147159
_cell_angle_beta                  89.898
_cell_angle_gamma                 90.220434
_cell_volume                      3893.93596492

loop_
_atom_site_label
_atom_site_type_symbol
_atom_type_description
_atom_site_fract_x
_atom_site_fract_y
_atom_site_fract_z
_atom_type_partial_charge
Br1   Br    Br    0.454553 0.908169 0.087301 -0.484519
Br2   Br    Br    0.511926 0.885820 0.924678 -0.506907
Br3   Br    Br    0.954553 0.408169 0.087301 -0.484519
Br4   Br    Br    0.011926 0.385820 0.924678 -0.506907
Br5   Br    Br    0.429114 0.929616 0.393232 -0.451639
Br6   Br    Br    0.459133 0.883590 0.560873 -0.471707
Br7   Br    Br    0.929114 0.429615 0.393232 -0.451640
Br8   Br    Br    0.959133 0.383590 0.560873 -0.471709
C1    C     C_R   0.729800 0.375563 0.145459 0.560272
C2    C     C_R   0.020285 0.000702 0.028396 -0.124645
C3    C     C_R   0.007024 0.776901 0.035041 -0.017019
C4    C     C_R   0.487816 0.054347 0.038457 0.163261
C5    C     C_R   0.497404 0.048191 0.965506 0.173776
C6    C     C_R   0.987816 0.554346 0.038457 0.163261
C7    C     C_R   0.997404 0.548191 0.965506 0.173776
C8    C     C_R   0.532585 0.492719 0.955872 -0.115752
C9    C     C_R   0.520285 0.500702 0.028396 -0.124645
C10   C     C_R   0.698767 0.863202 0.039072 -0.134538
C11   C     C_R   0.293322 0.849441 0.958838 -0.104402
C12   C     C_R   0.198767 0.363202 0.039072 -0.134538
C13   C     C_R   0.793322 0.349441 0.958838 -0.104402
C14   C     C_R   0.709158 0.835825 0.967715 -0.129527
C15   C     C_R   0.290199 0.832716 0.031869 -0.084023
C16   C     C_R   0.209158 0.335826 0.967715 -0.129527
C17   C     C_R   0.288002 0.330440 0.861535 0.558644
C18   C     C_R   0.790199 0.332716 0.031869 -0.084023
C19   C     C_R   0.775989 0.851137 0.937076 0.019506
C20   C     C_R   0.248077 0.910565 0.073836 0.043783
C21   C     C_R   0.275989 0.351137 0.937076 0.019506
C22   C     C_R   0.748078 0.410565 0.073836 0.043783
C23   C     C_R   0.832829 0.887135 0.979303 -0.131015
C24   C     C_R   0.210313 0.005670 0.042692 -0.123019
C25   C     C_R   0.332829 0.387135 0.979303 -0.131015
C26   C     C_R   0.710313 0.505670 0.042692 -0.123019
C27   C     C_R   0.822602 0.914627 0.050295 -0.126462
C28   C     C_R   0.229800 0.875563 0.145459 0.560272
C29   C     C_R   0.210722 0.018144 0.970291 -0.126007
C30   C     C_R   0.322602 0.414627 0.050295 -0.126462
C31   C     C_R   0.710722 0.518144 0.970291 -0.126007
C32   C     C_R   0.755110 0.907227 0.080017 0.019123
C33   C     C_R   0.252037 0.940556 0.927761 0.025135
C34   C     C_R   0.255110 0.407227 0.080017 0.019123
C35   C     C_R   0.752037 0.440556 0.927761 0.025135
C36   C     C_R   0.466968 0.061708 0.451360 0.176733
C37   C     C_R   0.467876 0.050337 0.524789 0.177620
C38   C     C_R   0.966968 0.561708 0.451360 0.176732
C39   C     C_R   0.788002 0.830440 0.861535 0.558644
C40   C     C_R   0.967877 0.550337 0.524789 0.177619
C41   C     C_R   0.480370 0.156920 0.567615 -0.000221
C42   C     C_R   0.494827 0.168355 0.420473 0.000352
C43   C     C_R   0.980370 0.656920 0.567615 -0.000221
C44   C     C_R   0.994827 0.668354 0.420474 0.000352
C45   C     C_R   0.530447 0.155767 0.146817 0.566410
C46   C     C_R   0.469847 0.154455 0.852987 0.545978
C47   C     C_R   0.030447 0.655767 0.146817 0.566410
C48   C     C_R   0.969847 0.654455 0.852987 0.545978
C49   C     C_R   0.497241 0.268739 0.535127 -0.191215
C50   C     C_R   0.528681 0.379202 0.921761 -0.087955
C51   C     C_R   0.506943 0.273463 0.462171 -0.183654
C52   C     C_R   0.997241 0.768739 0.535127 -0.191213
C53   C     C_R   0.006943 0.773463 0.462171 -0.183653
C54   C     C_R   0.815748 0.934696 0.457187 -0.134042
C55   C     C_R   0.223054 0.035422 0.525984 -0.122056
C56   C     C_R   0.315749 0.434690 0.457186 -0.134040
C57   C     C_R   0.723054 0.535422 0.525984 -0.122056
C58   C     C_R   0.821210 0.925494 0.529659 -0.124566
C59   C     C_R   0.220243 0.017421 0.453710 -0.129288
C60   C     C_R   0.321212 0.425486 0.529658 -0.124564
C61   C     C_R   0.507463 0.394459 0.067692 -0.086969
C62   C     C_R   0.720242 0.517420 0.453710 -0.129288
C63   C     C_R   0.761417 0.899896 0.571233 0.018679
C64   C     C_R   0.246497 0.908832 0.425080 0.055446
C65   C     C_R   0.261418 0.399894 0.571233 0.018680
C66   C     C_R   0.746497 0.408832 0.425080 0.055446
C67   C     C_R   0.696222 0.879756 0.539007 -0.150810
C68   C     C_R   0.277529 0.819553 0.469016 -0.074907
C69   C     C_R   0.196222 0.379757 0.539007 -0.150811
C70   C     C_R   0.777530 0.319554 0.469016 -0.074907
C71   C     C_R   0.690437 0.891221 0.465880 -0.137661
C72   C     C_R   0.028681 0.879202 0.921761 -0.087955
C73   C     C_R   0.280827 0.838253 0.541716 -0.099973
C74   C     C_R   0.190436 0.391223 0.465880 -0.137661
C75   C     C_R   0.780827 0.338253 0.541716 -0.099973
C76   C     C_R   0.750038 0.922443 0.425128 0.018374
C77   C     C_R   0.252465 0.945363 0.570245 0.035413
C78   C     C_R   0.250038 0.422441 0.425128 0.018374
C79   C     C_R   0.752465 0.445363 0.570245 0.035413
C80   C     C_R   0.741875 0.967132 0.148008 0.537828
C81   C     C_R   0.259147 0.972329 0.853612 0.533467
C82   C     C_R   0.241875 0.467132 0.148008 0.537828
C83   C     C_R   0.007462 0.894459 0.067692 -0.086969
C84   C     C_R   0.759147 0.472329 0.853612 0.533467
C85   C     C_R   0.729249 0.376769 0.352951 0.561598
C86   C     C_R   0.272235 0.374663 0.645759 0.556463
C87   C     C_R   0.229249 0.876769 0.352951 0.561598
C88   C     C_R   0.772235 0.874664 0.645760 0.556464
C89   C     C_R   0.529596 0.157799 0.351865 0.570566
C90   C     C_R   0.463348 0.155212 0.643380 0.561471
C91   C     C_R   0.029596 0.657799 0.351865 0.570566
C92   C     C_R   0.963349 0.655211 0.643380 0.561471
C93   C     C_R   0.741229 0.970306 0.354188 0.535810
C94   C     C_R   0.032585 0.992719 0.955872 -0.115752
C95   C     C_R   0.259197 0.974396 0.644515 0.543230
C96   C     C_R   0.241229 0.470306 0.354188 0.535810
C97   C     C_R   0.759197 0.474396 0.644515 0.543230
C98   C     C_R   0.500808 0.157842 0.925002 -0.023969
C99   C     C_R   0.500291 0.165625 0.074654 -0.026691
C100  C     C_R   0.000808 0.657842 0.925002 -0.023969
C101  C     C_R   0.000291 0.665625 0.074654 -0.026691
C102  C     C_R   0.511983 0.271204 0.959988 -0.028708
C103  C     C_R   0.507024 0.276901 0.035041 -0.017019
C104  C     C_R   0.011983 0.771204 0.959988 -0.028708
Cr1   Cr    Cr6+3 0.772000 0.169640 0.250110 1.073709
Cr2   Cr    Cr6+3 0.383330 0.010620 0.749160 1.101505
Cr3   Cr    Cr6+3 0.116670 0.510620 0.250840 1.085995
Cr4   Cr    Cr6+3 0.883330 0.510620 0.749160 1.101505
Cr5   Cr    Cr6+3 0.228000 0.169640 0.749890 1.039827
Cr6   Cr    Cr6+3 0.272000 0.669640 0.250110 1.073709
Cr7   Cr    Cr6+3 0.728000 0.669640 0.749890 1.039827
Cr8   Cr    Cr6+3 0.614960 0.323350 0.249260 1.021860
Cr9   Cr    Cr6+3 0.385040 0.323350 0.750740 1.024214
Cr10  Cr    Cr6+3 0.114960 0.823350 0.249260 1.021860
Cr11  Cr    Cr6+3 0.885040 0.823350 0.750740 1.024214
Cr12  Cr    Cr6+3 0.616670 0.010620 0.250840 1.085995
H1    H     H_    0.862347 0.957981 0.426717 0.146601
H2    H     H_    0.304382 0.769282 0.575483 0.151408
H3    H     H_    0.138867 0.382188 0.441951 0.170752
H4    H     H_    0.804383 0.269282 0.575483 0.151408
H5    H     H_    0.539815 0.376490 0.865464 0.140804
H6    H     H_    0.494442 0.406968 0.123032 0.140119
H7    H     H_    0.039815 0.876490 0.865464 0.140804
H8    H     H_    0.994442 0.906968 0.123032 0.140119
H9    H     H_    0.044216 0.074955 0.925748 0.155469
H10   H     H_    0.020821 0.089576 0.054405 0.157060
H11   H     H_    0.544216 0.574955 0.925748 0.155469
H12   H     H_    0.202587 0.120605 0.547295 0.149006
H13   H     H_    0.520821 0.589576 0.054405 0.157060
H14   H     H_    0.884613 0.898556 0.956547 0.153244
H15   H     H_    0.177137 0.066146 0.073878 0.138209
H16   H     H_    0.384613 0.398556 0.956547 0.153244
H17   H     H_    0.677137 0.566146 0.073878 0.138209
H18   H     H_    0.866607 0.948921 0.080900 0.138905
H19   H     H_    0.179169 0.090588 0.947792 0.137252
H20   H     H_    0.366607 0.448921 0.080900 0.138905
H21   H     H_    0.679169 0.590588 0.947792 0.137252
H22   H     H_    0.505699 0.351146 0.566438 0.146469
H23   H     H_    0.362349 0.457972 0.426715 0.146599
H24   H     H_    0.527276 0.357453 0.438976 0.157377
H25   H     H_    0.005698 0.851146 0.566438 0.146469
H26   H     H_    0.027276 0.857453 0.438976 0.157376
H27   H     H_    0.872943 0.936834 0.552864 0.152453
H28   H     H_    0.195634 0.086175 0.420522 0.135829
H29   H     H_    0.372946 0.436822 0.552862 0.152451
H30   H     H_    0.695634 0.586174 0.420522 0.135829
H31   H     H_    0.646003 0.857540 0.060736 0.172864
H32   H     H_    0.326701 0.790745 0.926819 0.161353
H33   H     H_    0.146003 0.357540 0.060736 0.172864
H34   H     H_    0.702586 0.620604 0.547295 0.149005
H35   H     H_    0.826701 0.290745 0.926819 0.161353
H36   H     H_    0.664487 0.807396 0.936106 0.173869
H37   H     H_    0.318439 0.756347 0.054974 0.171444
H38   H     H_    0.164487 0.307396 0.936106 0.173869
H39   H     H_    0.818439 0.256347 0.054974 0.171444
H40   H     H_    0.650173 0.856252 0.570206 0.160650
H41   H     H_    0.296662 0.733384 0.447583 0.162120
H42   H     H_    0.150172 0.356257 0.570206 0.160650
H43   H     H_    0.796663 0.233385 0.447583 0.162120
H44   H     H_    0.638868 0.882182 0.441950 0.170751
O1    O     O_R   0.787540 0.042690 0.170470 -0.521682
O2    O     O_R   0.454130 0.051100 0.669160 -0.455747
O3    O     O_R   0.045870 0.551100 0.330840 -0.460884
O4    O     O_R   0.954130 0.551100 0.669160 -0.455747
O5    O     O_R   0.681340 0.959300 0.325510 -0.506718
O6    O     O_R   0.318660 0.959300 0.674490 -0.473341
O7    O     O_R   0.181340 0.459300 0.325510 -0.506719
O8    O     O_R   0.818660 0.459300 0.674490 -0.473342
O9    O     O_3   0.667880 0.167870 0.250070 -0.268035
O10   O     O_3   0.332120 0.167870 0.749930 -0.288104
O11   O     O_3   0.167880 0.667870 0.250070 -0.268035
O12   O     O_R   0.212460 0.042690 0.829530 -0.536185
O13   O     O_3   0.832120 0.667870 0.749930 -0.288104
O14   O     O_R   0.765660 0.292160 0.175050 -0.483596
O15   O     O_R   0.234340 0.292160 0.824950 -0.492353
O16   O     O_R   0.265660 0.792160 0.175050 -0.483596
O17   O     O_R   0.734340 0.792160 0.824950 -0.492353
O18   O     O_R   0.670190 0.408980 0.168550 -0.523667
O19   O     O_R   0.329810 0.408980 0.831450 -0.502952
O20   O     O_R   0.170190 0.908980 0.168550 -0.523667
O21   O     O_R   0.829810 0.908980 0.831450 -0.502952
O22   O     O_R   0.556580 0.251450 0.175160 -0.521651
O23   O     O_R   0.287540 0.542690 0.170470 -0.521682
O24   O     O_R   0.443420 0.251450 0.824840 -0.536656
O25   O     O_R   0.056580 0.751450 0.175160 -0.521651
O26   O     O_R   0.943420 0.751450 0.824840 -0.536656
O27   O     O_R   0.545920 0.049510 0.170320 -0.449224
O28   O     O_R   0.454080 0.049510 0.829680 -0.447007
O29   O     O_R   0.045920 0.549510 0.170320 -0.449224
O30   O     O_R   0.954080 0.549510 0.829680 -0.447007
O31   O     O_R   0.681390 0.957840 0.176710 -0.500973
O32   O     O_R   0.318610 0.957840 0.823290 -0.487353
O33   O     O_R   0.181390 0.457840 0.176710 -0.500973
O34   O     O_R   0.712460 0.542690 0.829530 -0.536185
O35   O     O_R   0.818610 0.457840 0.823290 -0.487353
O36   O     O_R   0.787500 0.044280 0.330990 -0.519210
O37   O     O_R   0.212500 0.044280 0.669010 -0.524359
O38   O     O_R   0.287500 0.544280 0.330990 -0.519209
O39   O     O_R   0.712500 0.544280 0.669010 -0.524359
O40   O     O_R   0.765610 0.293630 0.323860 -0.475887
O41   O     O_R   0.234390 0.293630 0.676140 -0.495224
O42   O     O_R   0.265610 0.793630 0.323860 -0.475887
O43   O     O_R   0.734390 0.793630 0.676140 -0.495224
O44   O     O_R   0.670140 0.410570 0.329080 -0.526086
O45   O     O_R   0.556540 0.252920 0.323970 -0.517180
O46   O     O_R   0.329860 0.410570 0.670920 -0.515413
O47   O     O_R   0.170140 0.910570 0.329080 -0.526086
O48   O     O_R   0.829860 0.910570 0.670920 -0.515414
O49   O     O_R   0.443460 0.252920 0.676030 -0.515951
O50   O     O_R   0.056540 0.752920 0.323970 -0.517179
O51   O     O_R   0.943460 0.752920 0.676030 -0.515951
O52   O     O_R   0.545870 0.051100 0.330840 -0.460883

loop_
_geom_bond_atom_site_label_1
_geom_bond_atom_site_label_2
_ccdc_geom_bond_type
Cr8   O44   S    
C6    C101  A    
C75   C79   A    
C13   C18   A    
Cr12  O52   S    
C26   H17   S    
C9    C61   A    
C11   H32   S    
Br6   C37   S    
C38   C44   A    
C73   H2    S    
C3    C101  A    
C87   O47   A    
Cr1   O9    S    
C75   H4    S    
C64   C68   A    
C78   C96   S    
Cr9   O24   S    
Br8   C40   S    
Cr1   O40   S    
Cr5   O10   S    
Cr3   O29   S    
Cr12  O31   S    
C70   H43   S    
Cr2   O28   S    
C42   C51   A    
C56   C60   A    
C80   O31   A    
C9    H13   S    
Cr6   O38   S    
C30   C34   A    
Cr5   O37   S    
C44   C53   A    
C71   C76   A    
Cr1   O36   S    
C92   O4    A    
C25   H16   S    
C19   C39   S    
C57   C62   A    
C21   C25   A    
C18   H39   S    
C41   C49   A    
Cr10  O47   S    
Cr4   O4    S    
C59   C64   A    
Cr7   O13   S    
C81   O12   A    
Br2   C5    S    
C10   C32   A    
C102  C103  A    
C48   C100  S    
C45   O22   A    
Cr3   O7    S    
C1    O14   A    
C17   O19   A    
C41   C90   S    
C16   C21   A    
C64   C87   S    
C93   O5    A    
C70   C75   A    
C40   C43   A    
C58   C63   A    
C92   O51   A    
C8    C9    A    
Cr2   O10   S    
C97   O8    A    
C62   C66   A    
Cr11  O26   S    
C57   C79   A    
C28   O16   A    
C96   O38   A    
C71   H44   S    
C39   O17   A    
C35   C84   S    
Cr10  O50   S    
C53   H26   S    
C77   C95   S    
Cr5   O12   S    
C73   C77   A    
C82   O33   A    
C51   H24   S    
C60   C65   A    
C54   C76   A    
C59   H28   S    
C72   H7    S    
C13   C35   A    
C49   H22   S    
C55   C77   A    
C30   H20   S    
C76   C93   S    
C13   H35   S    
C66   C85   S    
C72   C104  A    
Br1   C4    S    
Cr9   O49   S    
C65   C86   S    
C56   C78   A    
C97   O39   A    
C96   O7    A    
C48   O30   A    
C82   O23   A    
C17   C21   S    
Cr10  O11   S    
C55   C59   A    
C86   O46   A    
C46   O28   A    
C22   C26   A    
C19   C23   A    
C26   C31   A    
C83   H8    S    
Br7   C38   S    
C95   O37   A    
C2    C94   A    
C54   C58   A    
C24   H15   S    
Cr3   O3    S    
C1    O18   A    
C46   C98   S    
C61   H6    S    
Cr1   O1    S    
Cr12  O5    S    
C54   H1    S    
C69   H42   S    
C74   C78   A    
C95   O6    A    
Cr7   O34   S    
C100  C104  A    
C72   C94   A    
C52   C53   A    
C34   C82   S    
C62   H30   S    
C7    C100  A    
C39   O21   A    
Cr6   O11   S    
C11   C15   A    
Cr8   O9    S    
Cr7   O17   S    
Cr2   O32   S    
Cr8   O22   S    
Cr9   O19   S    
Cr4   O30   S    
Cr6   O23   S    
C45   C99   S    
Cr10  O20   S    
Cr1   O14   S    
C79   C97   S    
C91   O50   A    
C20   C24   A    
Cr4   O13   S    
C31   H21   S    
C85   O44   A    
C37   C41   A    
C89   O52   A    
C11   C33   A    
C68   H41   S    
C8    C50   A    
C24   C29   A    
C23   H14   S    
Br3   C6    S    
C20   C28   S    
Cr12  O9    S    
C84   O35   A    
C46   O24   A    
C1    C22   S    
C5    C98   A    
C48   O26   A    
Cr4   O8    S    
C47   O25   A    
Br5   C36   S    
C2    C83   A    
C60   H29   S    
C12   H33   S    
C56   H23   S    
C45   O27   A    
C23   C27   A    
Cr11  O21   S    
C15   C20   A    
Cr10  O25   S    
C33   C81   S    
Cr4   O35   S    
C84   O34   A    
C36   C37   A    
C98   C102  A    
C36   C42   A    
C43   C92   S    
Cr2   O2    S    
C81   O32   A    
Cr11  O51   S    
C42   C89   S    
C80   O1    A    
C29   H19   S    
C3    C104  A    
C50   C102  A    
C87   O42   A    
C99   C103  A    
C16   H38   S    
C2    H10   S    
C57   H34   S    
C93   O36   A    
Cr8   O18   S    
C68   C73   A    
C4    C99   A    
C12   C34   A    
Cr5   O15   S    
C18   C22   A    
Cr9   O10   S    
C63   C88   S    
Cr6   O16   S    
C44   C91   S    
Cr7   O43   S    
C25   C30   A    
C88   O48   A    
Cr6   O42   S    
C14   C19   A    
Cr9   O46   S    
C32   C80   S    
Br4   C7    S    
C10   C14   A    
C27   C32   A    
Cr8   O45   S    
C94   H9    S    
C58   H27   S    
Cr11  O13   S    
C55   H12   S    
C63   C67   A    
C61   C103  A    
C47   O29   A    
C14   H36   S    
C69   C74   A    
Cr3   O33   S    
Cr12  O27   S    
Cr5   O41   S    
C8    H11   S    
C52   H25   S    
C29   C33   A    
Cr3   O11   S    
C74   H3    S    
C49   C51   A    
C27   H18   S    
C90   O2    A    
C38   C40   A    
C3    C83   A    
Cr2   O6    S    
Cr7   O39   S    
C4    C5    A    
C31   C35   A    
C86   O41   A    
C66   C70   A    
C90   O49   A    
C88   O43   A    
C65   C69   A    
C6    C7    A    
C67   H40   S    
C89   O45   A    
C43   C52   A    
C50   H5    S    
C28   O20   A    
Cr11  O48   S    
C85   O40   A    
C67   C71   A    
C12   C16   A    
C47   C101  S    
C10   H31   S    
C17   O15   A    
C91   O3    A    
C15   H37   S    
