data_mof_unit_12595.cif
_audit_creation_date              2012-12-11T20:46:49-0500
_audit_creation_method            fapswitch 2.2
_symmetry_space_group_name_H-M    P1
_symmetry_Int_Tables_number       1
_space_group_crystal_system       triclinic
_cell_length_a                    8.330759
_cell_length_b                    18.910497
_cell_length_c                    18.817447
_cell_angle_alpha                 101.776043
_cell_angle_beta                  94.348096
_cell_angle_gamma                 90.831587
_cell_volume                      2892.3655875

loop_
_atom_site_label
_atom_site_type_symbol
_atom_type_description
_atom_site_fract_x
_atom_site_fract_y
_atom_site_fract_z
_atom_type_partial_charge
Ba1   Ba    Ba6+2 0.153490 0.533960 0.468530 1.812910
Ba2   Ba    Ba6+2 0.656680 0.466030 0.531410 1.769572
C1    C     C_3   0.369228 0.819323 0.255203 0.341170
C2    C     C_R   0.103102 0.904036 0.560262 -0.078402
C3    C     C_R   0.231748 0.048029 0.552413 -0.085686
C4    C     C_3   0.905744 0.715650 0.326740 0.394536
C5    C     C_R   0.075431 0.022730 0.522733 0.023993
C6    C     C_R   0.283834 0.119119 0.556471 -0.092858
C7    C     C_R   0.183290 0.168845 0.530958 -0.035448
C8    C     C_R   0.029923 0.144326 0.496097 -0.001668
C9    C     C_R   0.976250 0.070792 0.491322 0.029631
C10   C     C_R   0.231925 0.242324 0.538963 0.006833
C11   C     C_R   0.125182 0.291145 0.515773 -0.299096
C12   C     C_3   0.410995 0.752308 0.287529 0.619420
C13   C     C_R   0.978069 0.267881 0.476704 0.042357
C14   C     C_R   0.930773 0.193091 0.465588 -0.051069
C15   C     C_R   0.861104 0.927440 0.489511 0.035631
C16   C     C_3   0.913813 0.790659 0.309221 -0.295114
C17   C     C_R   0.800950 0.856077 0.490490 0.009536
C18   C     C_R   0.896363 0.808214 0.524776 -0.083811
C19   C     C_R   0.043124 0.835251 0.562074 0.017582
C20   C     C_R   0.788747 0.164944 0.424035 -0.008191
C21   C     C_R   0.735610 0.093890 0.419794 -0.080582
C22   C     C_R   0.823013 0.046334 0.456069 0.006900
C23   C     C_3   0.523440 0.672927 0.779019 0.180920
C24   C     C_R   0.763091 0.975242 0.457080 0.021451
C25   C     C_R   0.603732 0.951737 0.430635 -0.066958
C26   C     C_R   0.642232 0.833649 0.459964 -0.075265
C27   C     C_R   0.544926 0.883144 0.433072 -0.092522
C28   C     C_3   0.805525 0.346118 0.292629 0.299740
C29   C     C_R   0.579332 0.765197 0.465027 -0.068923
C30   C     C_R   0.667087 0.727323 0.510418 0.172491
C31   C     C_R   0.832781 0.738243 0.527682 -0.021399
C32   C     C_2   0.602200 0.515231 0.296677 -0.166205
C33   C     C_3   0.741353 0.507476 0.249414 -0.081717
C34   C     C_3   0.434158 0.686091 0.847668 -0.293354
C35   C     C_2   0.683955 0.503110 0.170254 -0.055813
C36   C     C_2   0.530182 0.480620 0.145969 -0.027759
C37   C     C_2   0.418484 0.465180 0.200449 -0.039891
C38   C     C_1   0.468703 0.477582 0.270779 0.068177
C39   C     C_R   0.363821 0.464129 0.925571 0.538374
C40   C     C_3   0.927797 0.345773 0.235833 -0.365734
C41   C     C_R   0.471974 0.473713 0.067860 0.521837
C42   C     C_R   0.397146 0.493837 0.803085 -0.116516
C43   C     C_R   0.336282 0.498604 0.732772 -0.020484
C44   C     C_R   0.087578 0.438125 0.750678 0.054022
C45   C     C_3   0.898751 0.266340 0.662865 0.337556
C46   C     C_R   0.147140 0.434318 0.821497 -0.057297
C47   C     C_R   0.303226 0.462303 0.848625 -0.029826
C48   C     C_R   0.183425 0.469449 0.706646 -0.215632
C49   C     C_3   0.992192 0.641298 0.704719 0.221313
C50   C     C_3   0.968382 0.682473 0.782408 0.292583
C51   C     C_3   0.294448 0.316511 0.370031 0.299668
C52   C     C_3   0.262954 0.235416 0.344023 -0.333669
C53   C     C_2   0.335216 0.192474 0.758782 0.510553
C54   C     C_2   0.649636 0.316309 0.251453 0.588545
C55   C     C_3   0.869234 0.189474 0.672696 -0.247063
C56   C     C_3   0.405933 0.305075 0.714562 0.454654
C57   C     C_3   0.385432 0.271058 0.781185 0.197163
C58   C     C_R   0.016261 0.951267 0.523202 0.000636
H1    H     H_    0.922418 0.293164 0.196260 0.130928
H2    H     H_    0.239630 0.816330 0.235901 0.027947
H3    H     H_    0.166141 0.225003 0.298905 0.144325
H4    H     H_    0.225655 0.210586 0.388677 0.037081
H5    H     H_    0.374012 0.208948 0.324647 0.171197
H6    H     H_    0.536996 0.757856 0.312112 -0.108625
H7    H     H_    0.624042 0.636849 0.785228 0.078325
H8    H     H_    0.576460 0.726196 0.775921 0.124202
H9    H     H_    0.407168 0.634537 0.863555 0.153647
H10   H     H_    0.512073 0.719341 0.893171 0.143036
H11   H     H_    0.322774 0.715591 0.839787 0.153173
H12   H     H_    0.906154 0.389423 0.205280 0.056455
H13   H     H_    0.386885 0.868748 0.298269 -0.054224
H14   H     H_    0.792317 0.813531 0.307903 0.151634
H15   H     H_    0.838075 0.271648 0.609765 0.061726
H16   H     H_    0.030211 0.275626 0.662844 -0.045859
H17   H     H_    0.738348 0.175665 0.666356 0.145206
H18   H     H_    0.929467 0.150729 0.631701 0.042232
H19   H     H_    0.919014 0.183757 0.727444 0.208231
H20   H     H_    0.283114 0.315041 0.692285 -0.335276
H21   H     H_    0.470015 0.358236 0.731706 0.084799
H22   H     H_    0.289298 0.300331 0.811908 0.025799
H23   H     H_    0.050900 0.351977 0.262176 0.159586
H24   H     H_    0.024478 0.707095 0.353892 0.103340
H25   H     H_    0.162599 0.347378 0.523344 0.061518
H26   H     H_    0.404233 0.134506 0.580735 0.093994
H27   H     H_    0.112411 0.804484 0.595218 0.142097
H28   H     H_    0.714605 0.197325 0.394510 0.133289
H29   H     H_    0.418661 0.870663 0.417545 0.074143
H30   H     H_    0.318721 0.013876 0.572664 0.074852
H31   H     H_    0.216502 0.919571 0.591346 0.082398
H32   H     H_    0.625293 0.077488 0.386377 0.085315
H33   H     H_    0.811591 0.714228 0.365163 -0.100477
H34   H     H_    0.111888 0.616827 0.703386 0.013157
H35   H     H_    0.517559 0.986577 0.410915 0.077581
H36   H     H_    0.770014 0.514013 0.132997 0.115186
H37   H     H_    0.294805 0.447145 0.182913 0.099552
H38   H     H_    0.514696 0.517817 0.823281 0.134151
H39   H     H_    0.071401 0.410560 0.855233 0.125233
H40   H     H_    0.613014 0.549034 0.351035 0.054647
H41   H     H_    0.136239 0.474404 0.652768 0.030039
H42   H     H_    0.990858 0.827469 0.352432 0.058998
H43   H     H_    0.965581 0.788563 0.256248 0.150917
H44   H     H_    0.791124 0.401832 0.323807 -0.089135
H45   H     H_    0.898278 0.598229 0.685753 0.027094
H46   H     H_    0.137866 0.680634 0.182527 0.344872
H47   H     H_    0.934128 0.653211 0.966014 0.392137
H48   H     H_    0.713106 0.803735 0.140183 0.380347
H49   H     H_    0.654335 0.173382 0.829719 0.341193
H50   H     H_    0.410054 0.154700 0.725634 0.006081
H51   H     H_    0.688037 0.663025 0.664044 0.325402
H52   H     H_    0.588400 0.345518 0.214182 -0.113674
H53   H     H_    0.064066 0.725227 0.799220 0.063285
H54   H     H_    0.853701 0.711123 0.782238 0.022020
H55   H     H_    0.182362 0.341842 0.388900 -0.000378
H56   H     H_    0.389851 0.325799 0.415652 0.066857
N1    N     N_R   0.514461 0.490682 0.950850 -0.179639
N2    N     N_R   0.567433 0.495225 0.020291 -0.191637
N3    N     N_R   0.321376 0.446943 0.042661 -0.214377
N4    N     N_R   0.268476 0.442215 0.973041 -0.203947
O1    O     O_2   0.117290 0.676350 0.548250 -0.396066
O2    O     O_2   0.749062 0.449197 0.747748 -0.408906
O3    O     O_3   0.835942 0.314941 0.719967 -0.522218
O4    O     O_3   0.869060 0.586940 0.542720 -0.469255
O5    O     O_3   0.438990 0.460930 0.412890 -0.478044
O6    O     O_2   0.623700 0.539890 0.674570 -0.474162
O7    O     O_3   0.419834 0.649002 0.715139 -0.569028
O8    O     O_2   0.565578 0.243028 0.527339 -0.507293
O9    O     O_3   0.493142 0.260459 0.662599 -0.615404
O10   O     O_3   0.356990 0.628630 0.417250 -0.389382
O11   O     O_2   0.252618 0.755753 0.470504 -0.459991
O12   O     O_3   0.343520 0.344368 0.311511 -0.632024
O13   O     O_3   0.986921 0.694944 0.663028 -0.623468
O14   O     O_3   0.297744 0.746426 0.338433 -0.681500
O15   O     O_2   0.186600 0.460070 0.325400 -0.477825
O16   O     O_3   0.942970 0.591450 0.378940 -0.517594
O17   O     O_2   0.063307 0.553454 0.251908 -0.419589
O18   O     O_2   0.541373 0.657487 0.181066 -0.222098
O19   O     O_2   0.351269 0.611515 0.254300 -0.328876
O20   O     O_3   0.236278 0.678528 0.155860 -0.445350
O21   O     O_2   0.840348 0.571382 0.832782 -0.316670
O22   O     O_2   0.129076 0.596917 0.859576 -0.349647
O23   O     O_3   0.870151 0.662213 0.263009 -0.561103
O24   O     O_3   0.933478 0.684904 0.930075 -0.473555
O25   O     O_2   0.388187 0.800746 0.110290 -0.191670
O26   O     O_2   0.508519 0.912231 0.186366 -0.271555
O27   O     O_3   0.662311 0.793635 0.183123 -0.498712
O28   O     O_2   0.515586 0.274743 0.917076 -0.259787
O29   O     O_2   0.642088 0.354448 0.849303 -0.248628
O30   O     O_3   0.694547 0.217293 0.814857 -0.488383
O31   O     O_2   0.211304 0.170246 0.778445 -0.567585
O32   O     O_2   0.401767 0.722778 0.582960 -0.251350
O33   O     O_2   0.552059 0.613038 0.539688 -0.289771
O34   O     O_2   0.693010 0.323600 0.451730 -0.475557
O35   O     O_3   0.668318 0.710691 0.652790 -0.569162
O36   O     O_2   0.594936 0.257347 0.256183 -0.544304
O37   O     O_3   0.941240 0.413050 0.457220 -0.497154
O38   O     O_3   0.453310 0.371360 0.582690 -0.483537
O39   O     O_3   0.859262 0.298960 0.337122 -0.627896
O40   O     O_3   0.371310 0.539060 0.587050 -0.378552
O41   O     O_3   0.867330 0.408540 0.621000 -0.511879
P1    P     P_3+3 0.945300 0.665790 0.568510 1.088023
P2    P     P_3+3 0.360080 0.438780 0.334620 0.988033
P3    P     P_3+3 0.903394 0.577200 0.284780 1.029206
P4    P     P_3+3 0.865000 0.334200 0.431430 0.987191
P5    P     P_3+3 0.884776 0.403306 0.712304 1.068683
P6    P     P_3+3 0.380506 0.723070 0.419467 1.036209
P7    P     P_3+3 0.438518 0.555909 0.680195 1.053594
P8    P     P_3+3 0.436029 0.278275 0.576523 0.951735
S1    S     S_3+6 0.388462 0.672343 0.218131 -0.011823
S2    S     S_3+6 0.968686 0.629857 0.851011 -0.116797
S3    S     S_3+6 0.482625 0.832463 0.181184 -0.003130
S4    S     S_3+6 0.562718 0.281371 0.843100 -0.039399
S5    S     S_3+6 0.563856 0.691843 0.571735 -0.060763

loop_
_geom_bond_atom_site_label_1
_geom_bond_atom_site_label_2
_ccdc_geom_bond_type
C42   C47   A    
C19   H27   S    
O2    P5    D    
O26   S3    D    
O18   S1    D    
C55   H19   S    
C25   H35   S    
C17   C18   A    
C23   H7    S    
C57   H22   S    
C54   O36   D    
O13   P1    S    
C27   H29   S    
C52   H5    S    
C51   C52   S    
C42   C43   A    
C5    C9    A    
O24   S2    S    
C24   C25   A    
O14   P6    S    
C32   C38   D    
C15   C24   A    
O9    P8    S    
C26   C27   A    
C33   C35   S    
Ba1   O5    S    
C45   H16   S    
C32   C33   S    
C53   C57   S    
C36   C37   S    
C1    S3    S    
C37   H37   S    
C25   C27   A    
C52   H3    S    
C56   O9    S    
C13   C14   A    
H47   O24   S    
C9    C22   A    
O21   S2    D    
Ba2   O41   S    
O19   S1    D    
Ba1   Ba2   S    
C16   H42   S    
O3    P5    S    
C42   H38   S    
O10   P6    S    
C15   C58   A    
O7    P7    S    
C32   H40   S    
C21   C22   A    
O34   P4    D    
C20   H28   S    
Ba1   O16   S    
C7    C8    A    
O29   S4    D    
O41   P5    S    
C51   H56   S    
C56   H20   S    
H48   O27   S    
O32   S5    D    
O25   S3    D    
O11   P6    D    
O8    P8    D    
Ba2   O34   S    
O5    P2    S    
C23   H8    S    
C50   S2    S    
C39   C47   S    
C43   P7    S    
O17   P3    D    
C34   H10   S    
O4    P1    S    
C26   C29   A    
C28   O39   S    
C4    C16   S    
C44   C46   A    
C4    H24   S    
C49   C50   S    
C55   H17   S    
C38   P2    S    
Ba1   O10   S    
C56   H21   S    
O37   P4    S    
C37   C38   D    
C3    C5    A    
C6    C7    A    
C41   N2    A    
C56   C57   S    
C50   H53   S    
C28   C54   S    
O33   S5    D    
O39   P4    S    
C35   H36   S    
C35   C36   D    
C45   C55   S    
C16   H14   S    
H46   O20   S    
C29   C30   A    
Ba2   P4    S    
Ba2   O38   S    
C4    H33   S    
C2    C58   A    
C40   H12   S    
C12   H6    S    
C51   O12   S    
C30   S5    S    
C18   C19   A    
C17   C26   A    
C40   H1    S    
C10   P8    S    
C1    C12   S    
C18   C31   A    
Ba2   O6    S    
O35   S5    S    
C46   C47   A    
C29   P6    S    
Ba1   P1    S    
C50   H54   S    
C11   C13   A    
C53   H50   S    
C11   H25   S    
C5    C58   A    
O27   S3    S    
O16   P3    S    
C1    H2    S    
C46   H39   S    
C14   C20   A    
C44   P5    S    
C23   C34   S    
C20   C21   A    
O15   P2    D    
C55   H18   S    
Ba1   O40   S    
C13   P4    S    
C40   H23   S    
C3    H30   S    
C22   C24   A    
C57   S4    S    
C3    C6    A    
N3    N4    A    
C34   H11   S    
O38   P8    S    
C53   O31   D    
C45   O3    S    
O20   S1    S    
C33   P3    S    
Ba2   O4    S    
C12   O14   S    
C44   C48   A    
O6    P7    D    
O28   S4    D    
C12   S1    S    
C30   C31   A    
C2    H31   S    
Ba1   O37   S    
H49   O30   S    
C23   O7    S    
O12   P2    S    
C45   H15   S    
C36   C41   S    
C8    C14   A    
N1    N2    A    
C2    C19   A    
C49   O13   S    
C52   H4    S    
C43   C48   A    
Ba2   O37   S    
O1    P1    D    
C15   C17   A    
O23   P3    S    
C31   P1    S    
C6    H26   S    
C16   H43   S    
O40   P7    S    
C39   N4    A    
C34   H9    S    
C1    H13   S    
C7    C10   A    
Ba1   O1    S    
C49   H45   S    
Ba1   O4    S    
C8    C9    A    
C49   H34   S    
Ba2   O5    S    
O30   S4    S    
C10   C11   A    
Ba1   P2    S    
C48   H41   S    
Ba2   O40   S    
C28   H44   S    
C21   H32   S    
C28   C40   S    
C39   N1    A    
C4    O23   S    
Ba1   O15   S    
H51   O35   S    
C54   H52   S    
C51   H55   S    
C41   N3    A    
O22   S2    D    
