data_mof_unit_60479.cif
_audit_creation_date              2013-03-05T16:38:42-0500
_audit_creation_method            fapswitch 2.2
_symmetry_space_group_name_H-M    P1
_symmetry_Int_Tables_number       1
_space_group_crystal_system       triclinic
_cell_length_a                    25.657536
_cell_length_b                    25.658692
_cell_length_c                    51.556869
_cell_angle_alpha                 90.014856
_cell_angle_beta                  90.02618
_cell_angle_gamma                 90.000552
_cell_volume                      33941.8832899

loop_
_atom_site_label
_atom_site_type_symbol
_atom_site_description
_atom_site_fract_x
_atom_site_fract_y
_atom_site_fract_z
_atom_type_partial_charge
Zn1   Zn    Zn3+2 0.061160 0.500000 0.728500 1.094229
Zn2   Zn    Zn3+2 0.938840 0.500000 0.271500 1.092103
Zn3   Zn    Zn3+2 0.500000 0.061160 0.728500 1.093776
Zn4   Zn    Zn3+2 0.500000 0.938840 0.271500 1.095446
Zn5   Zn    Zn3+2 0.938840 0.500000 0.728500 1.099016
Zn6   Zn    Zn3+2 0.061160 0.500000 0.271500 1.101363
Zn7   Zn    Zn3+2 0.500000 0.938840 0.728500 1.099380
Zn8   Zn    Zn3+2 0.500000 0.061160 0.271500 1.097226
Zn9   Zn    Zn3+2 0.561160 1.000000 0.228500 1.091954
Zn10  Zn    Zn3+2 0.438840 0.000000 0.771500 1.095984
Zn11  Zn    Zn3+2 0.000000 0.561160 0.228500 1.096751
Zn12  Zn    Zn3+2 0.000000 0.438840 0.771500 1.093599
Zn13  Zn    Zn3+2 0.438840 1.000000 0.228500 1.100675
Zn14  Zn    Zn3+2 0.561160 0.000000 0.771500 1.100680
Zn15  Zn    Zn3+2 0.000000 0.438840 0.228500 1.096825
Zn16  Zn    Zn3+2 0.000000 0.561160 0.771500 1.099432
O1    O     O_3   0.000000 0.500000 0.750000 -0.556720
O2    O     O_3   0.000000 0.500000 0.250000 -0.556694
O3    O     O_3   0.500000 0.000000 0.750000 -0.557267
O4    O     O_3   0.500000 0.000000 0.250000 -0.556422
O5    O     O_R   0.000000 0.542800 0.808290 -0.597358
O6    O     O_R   0.000000 0.457200 0.191710 -0.598502
O7    O     O_R   0.457200 0.000000 0.808290 -0.597238
O8    O     O_R   0.542800 1.000000 0.191710 -0.597271
O9    O     O_R   0.000000 0.457200 0.808290 -0.597526
O10   O     O_R   0.000000 0.542800 0.191710 -0.596917
O11   O     O_R   0.542800 0.000000 0.808290 -0.598602
O12   O     O_R   0.457200 1.000000 0.191710 -0.598721
O13   O     O_R   0.500000 0.042800 0.308290 -0.596841
O14   O     O_R   0.500000 0.957200 0.691710 -0.597917
O15   O     O_R   0.957200 0.500000 0.308290 -0.597218
O16   O     O_R   0.042800 0.500000 0.691710 -0.598844
O17   O     O_R   0.500000 0.957200 0.308290 -0.599146
O18   O     O_R   0.500000 0.042800 0.691710 -0.596832
O19   O     O_R   0.042800 0.500000 0.308290 -0.598207
O20   O     O_R   0.957200 0.500000 0.691710 -0.598990
O21   O     O_R   0.060260 0.397270 0.765470 -0.613441
O22   O     O_R   0.939740 0.602730 0.234530 -0.599273
O23   O     O_R   0.602730 0.060260 0.765470 -0.607737
O24   O     O_R   0.397270 0.939740 0.234530 -0.597532
O25   O     O_R   0.939740 0.602730 0.765470 -0.610994
O26   O     O_R   0.060260 0.397270 0.234530 -0.602182
O27   O     O_R   0.397270 0.939740 0.765470 -0.613278
O28   O     O_R   0.602730 0.060260 0.234530 -0.605169
O29   O     O_R   0.060260 0.602730 0.234530 -0.613955
O30   O     O_R   0.939740 0.397270 0.765470 -0.605205
O31   O     O_R   0.602730 0.939740 0.234530 -0.614163
O32   O     O_R   0.397270 0.060260 0.765470 -0.599154
O33   O     O_R   0.939740 0.397270 0.234530 -0.610368
O34   O     O_R   0.060260 0.602730 0.765470 -0.598986
O35   O     O_R   0.397270 0.060260 0.234530 -0.609491
O36   O     O_R   0.602730 0.939740 0.765470 -0.597945
O37   O     O_R   0.560260 0.897270 0.265470 -0.610896
O38   O     O_R   0.439740 0.102730 0.734530 -0.603095
O39   O     O_R   0.102730 0.560260 0.265470 -0.608773
O40   O     O_R   0.897270 0.439740 0.734530 -0.596466
O41   O     O_R   0.439740 0.102730 0.265470 -0.612687
O42   O     O_R   0.560260 0.897270 0.734530 -0.600381
O43   O     O_R   0.897270 0.439740 0.265470 -0.615746
O44   O     O_R   0.102730 0.560260 0.734530 -0.602532
O45   O     O_R   0.560260 0.102730 0.734530 -0.615763
O46   O     O_R   0.439740 0.897270 0.265470 -0.603209
O47   O     O_R   0.102730 0.439740 0.734530 -0.610942
O48   O     O_R   0.897270 0.560260 0.265470 -0.603812
O49   O     O_R   0.439740 0.897270 0.734530 -0.610097
O50   O     O_R   0.560260 0.102730 0.265470 -0.599315
O51   O     O_R   0.897270 0.560260 0.734530 -0.610158
O52   O     O_R   0.102730 0.439740 0.265470 -0.597720
C1    C     C_R   0.999993 0.500006 0.820871 0.940686
C2    C     C_R   0.000008 0.499993 0.179127 0.940115
C3    C     C_R   0.500010 0.000005 0.820875 0.939207
C4    C     C_R   0.499989 0.000007 0.179129 0.939826
C5    C     C_R   0.499992 0.000006 0.320871 0.939620
C6    C     C_R   0.499996 0.999994 0.679127 0.940628
C7    C     C_R   0.000010 0.500009 0.320873 0.940140
C8    C     C_R   0.999989 0.500008 0.679128 0.937140
C9    C     C_R   0.098975 0.401040 0.750003 0.813509
C10   C     C_R   0.901048 0.598973 0.250002 0.831108
C11   C     C_R   0.598986 0.098955 0.750004 0.816689
C12   C     C_R   0.401020 0.901049 0.249996 0.835388
C13   C     C_R   0.901019 0.598964 0.750003 0.815315
C14   C     C_R   0.098979 0.401043 0.249999 0.833974
C15   C     C_R   0.401045 0.901016 0.749997 0.816464
C16   C     C_R   0.598950 0.098978 0.250003 0.832513
C17   C     C_R   0.098986 0.598956 0.250004 0.817596
C18   C     C_R   0.901020 0.401050 0.749996 0.834109
C19   C     C_R   0.598958 0.901022 0.249999 0.813988
C20   C     C_R   0.401029 0.098955 0.749996 0.830663
C21   C     C_R   0.901045 0.401016 0.249997 0.815567
C22   C     C_R   0.098950 0.598978 0.750003 0.833877
C23   C     C_R   0.401017 0.098962 0.250000 0.816221
C24   C     C_R   0.598978 0.901041 0.749996 0.833311
C25   C     C_R   0.261180 0.777526 0.773082 0.198299
C26   C     C_R   0.738226 0.222997 0.226818 0.193187
C27   C     C_R   0.212735 0.251469 0.770154 0.196395
C28   C     C_R   0.786083 0.747153 0.229342 0.193555
C29   C     C_R   0.740491 0.220634 0.772693 0.196915
C30   C     C_R   0.259941 0.779008 0.227228 0.192166
C31   C     C_R   0.790865 0.752065 0.768352 0.196310
C32   C     C_R   0.215915 0.254704 0.228569 0.193448
C33   C     C_R   0.253086 0.214223 0.229210 0.196936
C34   C     C_R   0.753471 0.792320 0.767473 0.195856
C35   C     C_R   0.222867 0.738426 0.226849 0.198283
C36   C     C_R   0.777558 0.261223 0.773090 0.193641
C37   C     C_R   0.745623 0.784346 0.228696 0.196678
C38   C     C_R   0.250008 0.211091 0.769401 0.194576
C39   C     C_R   0.778817 0.260064 0.227194 0.196639
C40   C     C_R   0.220603 0.740447 0.772687 0.192247
C41   C     C_R   0.761745 0.276959 0.273178 0.197948
C42   C     C_R   0.238787 0.722434 0.726913 0.193666
C43   C     C_R   0.713974 0.752841 0.270681 0.196979
C44   C     C_R   0.287237 0.248444 0.729806 0.193551
C45   C     C_R   0.240111 0.721012 0.272773 0.196832
C46   C     C_R   0.759559 0.279388 0.727309 0.192307
C47   C     C_R   0.284090 0.245366 0.271404 0.196964
C48   C     C_R   0.709180 0.748032 0.731597 0.194370
C49   C     C_R   0.746558 0.707761 0.732485 0.197648
C50   C     C_R   0.246906 0.285833 0.270768 0.193497
C51   C     C_R   0.722483 0.238808 0.726915 0.198302
C52   C     C_R   0.277176 0.761604 0.273155 0.193606
C53   C     C_R   0.249980 0.288838 0.730566 0.197308
C54   C     C_R   0.754448 0.715661 0.271333 0.193173
C55   C     C_R   0.279374 0.759505 0.727310 0.196878
C56   C     C_R   0.721163 0.239884 0.272805 0.191893
C57   C     C_R   0.290409 0.786901 0.750393 -0.182725
C58   C     C_R   0.709559 0.213069 0.249624 -0.185128
C59   C     C_R   0.212881 0.290192 0.750740 -0.183714
C60   C     C_R   0.790337 0.712973 0.250661 -0.185107
C61   C     C_R   0.713103 0.209588 0.749607 -0.182707
C62   C     C_R   0.286930 0.790441 0.250382 -0.184509
C63   C     C_R   0.787248 0.709937 0.750861 -0.183317
C64   C     C_R   0.212981 0.290344 0.249350 -0.184529
C65   C     C_R   0.287022 0.209714 0.250626 -0.183182
C66   C     C_R   0.712787 0.790143 0.749096 -0.183989
C67   C     C_R   0.213106 0.709585 0.249621 -0.182746
C68   C     C_R   0.786931 0.290439 0.750397 -0.184469
C69   C     C_R   0.709721 0.787032 0.249363 -0.183732
C70   C     C_R   0.287098 0.209737 0.749226 -0.184824
C71   C     C_R   0.790415 0.286895 0.250373 -0.183304
C72   C     C_R   0.209563 0.713066 0.749602 -0.184508
C73   C     C_1   0.329384 0.827478 0.750281 0.178663
C74   C     C_1   0.670597 0.172496 0.249726 0.178240
C75   C     C_1   0.172434 0.329299 0.750454 0.176921
C76   C     C_1   0.829375 0.672470 0.250421 0.178805
C77   C     C_1   0.672527 0.170612 0.749719 0.178366
C78   C     C_1   0.327501 0.829404 0.250276 0.179669
C79   C     C_1   0.827613 0.670751 0.750507 0.177932
C80   C     C_1   0.172477 0.329376 0.249586 0.179894
C81   C     C_1   0.327520 0.170661 0.250397 0.177812
C82   C     C_1   0.672407 0.829301 0.749464 0.181717
C83   C     C_1   0.172526 0.670613 0.249727 0.178737
C84   C     C_1   0.827499 0.329406 0.750284 0.179238
C85   C     C_1   0.670663 0.827528 0.249597 0.176810
C86   C     C_1   0.327557 0.170655 0.749522 0.179594
C87   C     C_1   0.829385 0.327477 0.250271 0.177489
C88   C     C_1   0.170597 0.672497 0.749715 0.179579
C89   C     C_1   0.137995 0.638767 0.749837 0.002337
C90   C     C_1   0.861989 0.361216 0.250158 -0.012969
C91   C     C_1   0.361231 0.137995 0.749766 0.000840
C92   C     C_1   0.638014 0.861221 0.249796 -0.013693
C93   C     C_1   0.861229 0.362007 0.750162 0.002084
C94   C     C_1   0.138788 0.638009 0.249842 -0.010533
C95   C     C_1   0.638774 0.862000 0.749752 0.003401
C96   C     C_1   0.361216 0.138015 0.250202 -0.011543
C97   C     C_1   0.138778 0.362008 0.249790 0.002237
C98   C     C_1   0.861232 0.638030 0.750233 -0.011303
C99   C     C_1   0.361231 0.862005 0.250159 0.002453
C100  C     C_1   0.638790 0.138007 0.749839 -0.010896
C101  C     C_1   0.862010 0.638773 0.250213 0.000183
C102  C     C_1   0.138769 0.361977 0.750222 -0.013430
C103  C     C_1   0.637997 0.138765 0.249841 0.000179
C104  C     C_1   0.361990 0.861215 0.750161 -0.010667
C105  C     C_R   0.495452 0.953841 0.945194 0.678093
C106  C     C_R   0.495021 0.046233 0.054818 0.677770
C107  C     C_R   0.046176 0.495125 0.945192 0.677827
C108  C     C_R   0.953850 0.495191 0.054798 0.677774
C109  C     C_R   0.504638 0.046259 0.945208 0.677922
C110  C     C_R   0.504901 0.953886 0.054812 0.677913
C111  C     C_R   0.953806 0.504814 0.945187 0.677782
C112  C     C_R   0.046249 0.504604 0.054810 0.678026
C113  C     C_R   0.995330 0.453893 0.445188 0.677932
C114  C     C_R   0.995097 0.546268 0.554815 0.677771
C115  C     C_R   0.546107 0.995145 0.445197 0.677650
C116  C     C_R   0.453739 0.995283 0.554794 0.677805
C117  C     C_R   0.004720 0.546291 0.445205 0.677878
C118  C     C_R   0.004811 0.453904 0.554805 0.677877
C119  C     C_R   0.453741 0.004872 0.445181 0.678014
C120  C     C_R   0.546143 0.004652 0.554813 0.677990
N1    N     N_R   0.500050 0.000050 0.932291 -0.327011
N2    N     N_R   0.499954 0.000061 0.067725 -0.327034
N3    N     N_R   0.999984 0.499981 0.932280 -0.327024
N4    N     N_R   0.000055 0.499901 0.067714 -0.327110
N5    N     N_R   0.000032 0.500093 0.432286 -0.327105
N6    N     N_R   0.999949 0.500085 0.567721 -0.326833
N7    N     N_R   0.499922 0.000014 0.432279 -0.327026
N8    N     N_R   0.499943 0.999966 0.567713 -0.327130
C121  C     C_R   0.501178 0.047865 0.972527 -0.152003
C122  C     C_R   0.501490 0.952255 0.027491 -0.152042
C123  C     C_R   0.952199 0.501348 0.972506 -0.152020
C124  C     C_R   0.047846 0.501167 0.027489 -0.152143
C125  C     C_R   0.498875 0.952240 0.972515 -0.152142
C126  C     C_R   0.498472 0.047859 0.027500 -0.151952
C127  C     C_R   0.047813 0.498539 0.972514 -0.151948
C128  C     C_R   0.952224 0.498640 0.027479 -0.151945
C129  C     C_R   0.001258 0.547900 0.472524 -0.152029
C130  C     C_R   0.001387 0.452283 0.527484 -0.151921
C131  C     C_R   0.452121 0.001422 0.472500 -0.152130
C132  C     C_R   0.547748 0.001216 0.527493 -0.152167
C133  C     C_R   0.998756 0.452281 0.472509 -0.152121
C134  C     C_R   0.998552 0.547892 0.527497 -0.151936
C135  C     C_R   0.547735 0.998571 0.472518 -0.151854
C136  C     C_R   0.452125 0.998734 0.527474 -0.151923
C137  C     C_R   0.500015 0.000054 0.986271 -0.043993
C138  C     C_R   0.499992 0.000056 0.013745 -0.043920
C139  C     C_R   0.000013 0.499932 0.986260 -0.043938
C140  C     C_R   0.000028 0.499912 0.013734 -0.043945
C141  C     C_R   0.999998 0.500090 0.486266 -0.043979
C142  C     C_R   0.999979 0.500088 0.513740 -0.044064
C143  C     C_R   0.499930 0.999991 0.486259 -0.043946
C144  C     C_R   0.499934 0.999980 0.513733 -0.043967
C145  C     C_R   0.500092 0.095509 0.986410 0.227032
C146  C     C_R   0.500783 0.904604 0.013607 0.226776
C147  C     C_R   0.904556 0.500504 0.986379 0.226784
C148  C     C_R   0.095486 0.500203 0.013615 0.226721
C149  C     C_R   0.499939 0.904599 0.986389 0.226949
C150  C     C_R   0.499202 0.095508 0.013627 0.226809
C151  C     C_R   0.095470 0.499350 0.986397 0.226867
C152  C     C_R   0.904569 0.499611 0.013596 0.226997
C153  C     C_R   0.000268 0.595544 0.486408 0.226883
C154  C     C_R   0.000580 0.404635 0.513599 0.226980
C155  C     C_R   0.404473 0.000609 0.486369 0.226657
C156  C     C_R   0.595393 0.000232 0.513623 0.226846
C157  C     C_R   0.999726 0.404635 0.486381 0.226812
C158  C     C_R   0.999376 0.595541 0.513626 0.226911
C159  C     C_R   0.595387 0.999371 0.486405 0.226938
C160  C     C_R   0.404476 0.999726 0.513587 0.226980
O53   O     O_2   0.487021 0.909945 0.931422 -0.431624
O54   O     O_2   0.486241 0.090064 0.068584 -0.432581
O55   O     O_2   0.090019 0.486455 0.931430 -0.432413
O56   O     O_2   0.909981 0.486635 0.068556 -0.432488
O57   O     O_2   0.513087 0.090153 0.931452 -0.432485
O58   O     O_2   0.513661 0.910057 0.068575 -0.432060
O59   O     O_2   0.909948 0.513511 0.931423 -0.432389
O60   O     O_2   0.090133 0.513152 0.068579 -0.431098
O61   O     O_2   0.986797 0.410017 0.431415 -0.431569
O62   O     O_2   0.986393 0.590113 0.568582 -0.433368
O63   O     O_2   0.589952 0.986449 0.431440 -0.433179
O64   O     O_2   0.409861 0.986750 0.568548 -0.432225
O65   O     O_2   0.013270 0.590168 0.431450 -0.432043
O66   O     O_2   0.013501 0.410057 0.568566 -0.433379
O67   O     O_2   0.409892 0.013579 0.431411 -0.431499
O68   O     O_2   0.590025 0.013179 0.568586 -0.431419
C161  C     C_R   0.957704 0.478058 0.609226 0.233729
C162  C     C_R   0.957718 0.521959 0.390759 0.235066
C163  C     C_R   0.521811 0.957643 0.609231 0.234919
C164  C     C_R   0.477898 0.957783 0.390748 0.234563
C165  C     C_R   0.042195 0.522100 0.609251 0.234143
C166  C     C_R   0.042362 0.478218 0.390778 0.234553
C167  C     C_R   0.478093 0.042296 0.609232 0.235063
C168  C     C_R   0.521947 0.042268 0.390775 0.234503
C169  C     C_R   0.457735 0.977986 0.109230 0.234271
C170  C     C_R   0.457668 0.021806 0.890769 0.234582
C171  C     C_R   0.021944 0.457629 0.109243 0.234872
C172  C     C_R   0.977952 0.457756 0.890748 0.234758
C173  C     C_R   0.542169 0.022140 0.109254 0.234829
C174  C     C_R   0.542424 0.978286 0.890780 0.234520
C175  C     C_R   0.978181 0.542259 0.109221 0.234729
C176  C     C_R   0.021972 0.542256 0.890775 0.234313
C177  C     C_R   0.958147 0.477030 0.636509 0.163978
C178  C     C_R   0.958145 0.522952 0.363476 0.164975
C179  C     C_R   0.522839 0.958082 0.636514 0.165331
C180  C     C_R   0.476907 0.958216 0.363464 0.164354
C181  C     C_R   0.041770 0.523090 0.636535 0.163506
C182  C     C_R   0.041926 0.477185 0.363494 0.166467
C183  C     C_R   0.477093 0.041872 0.636515 0.165203
C184  C     C_R   0.522973 0.041833 0.363491 0.165380
C185  C     C_R   0.458177 0.976969 0.136513 0.164879
C186  C     C_R   0.458088 0.022811 0.863486 0.166783
C187  C     C_R   0.022944 0.458084 0.136527 0.164683
C188  C     C_R   0.976942 0.458199 0.863465 0.164762
C189  C     C_R   0.541743 0.023133 0.136537 0.164892
C190  C     C_R   0.541985 0.977262 0.863496 0.167253
C191  C     C_R   0.977155 0.541850 0.136504 0.166801
C192  C     C_R   0.022980 0.541831 0.863492 0.165164
C193  C     C_R   0.999968 0.500042 0.650355 -0.321910
C194  C     C_R   0.000029 0.500049 0.349650 -0.320806
C195  C     C_R   0.499977 0.999982 0.650350 -0.320883
C196  C     C_R   0.499958 0.000018 0.349645 -0.321247
C197  C     C_R   0.499968 0.000036 0.150357 -0.321238
C198  C     C_R   0.500030 0.000026 0.849654 -0.320634
C199  C     C_R   0.000035 0.499975 0.150350 -0.320774
C200  C     C_R   0.999970 0.500014 0.849645 -0.321229
C201  C     C_R   0.999948 0.500084 0.595661 -0.012711
C202  C     C_R   0.000039 0.500093 0.404346 -0.012778
C203  C     C_R   0.499947 0.999967 0.595654 -0.012692
C204  C     C_R   0.499920 0.000023 0.404338 -0.012717
C205  C     C_R   0.499951 0.000064 0.095665 -0.012729
C206  C     C_R   0.500049 0.000049 0.904351 -0.013097
C207  C     C_R   0.000063 0.499930 0.095655 -0.012777
C208  C     C_R   0.999968 0.499999 0.904339 -0.012698
N9    N     N_R   0.192044 0.729191 0.796030 0.256201
O69   O     O_R   0.216708 0.719659 0.817572 -0.226296
O70   O     O_R   0.141337 0.728235 0.795841 -0.277925
N10   N     N_R   0.806838 0.271851 0.203757 0.251819
O71   O     O_R   0.781684 0.281883 0.182412 -0.239315
O72   O     O_R   0.857547 0.272725 0.203658 -0.293415
N11   N     N_R   0.251390 0.172684 0.789713 0.257030
O73   O     O_R   0.250631 0.187031 0.813921 -0.223538
O74   O     O_R   0.253582 0.123279 0.784116 -0.290405
N12   N     N_R   0.742322 0.820684 0.207516 0.254198
O75   O     O_R   0.698300 0.828203 0.195545 -0.298308
O76   O     O_R   0.783377 0.846523 0.200161 -0.238832
N13   N     N_R   0.807100 0.271322 0.796277 0.256413
O77   O     O_R   0.829877 0.233259 0.808513 -0.226502
O78   O     O_R   0.811533 0.318561 0.805198 -0.277329
N14   N     N_R   0.193727 0.727940 0.203581 0.254803
O79   O     O_R   0.171176 0.765796 0.191086 -0.232513
O80   O     O_R   0.189503 0.680558 0.194824 -0.300934
N15   N     N_R   0.755735 0.834307 0.785937 0.257089
O81   O     O_R   0.761052 0.824469 0.810555 -0.222522
O82   O     O_R   0.752334 0.882487 0.778248 -0.290800
N16   N     N_R   0.257640 0.178987 0.207622 0.252687
O83   O     O_R   0.260493 0.196945 0.184063 -0.235726
O84   O     O_R   0.259071 0.128870 0.211413 -0.293341
N17   N     N_R   0.179832 0.258279 0.207278 0.255299
O85   O     O_R   0.172427 0.302458 0.195447 -0.273284
O86   O     O_R   0.154062 0.217327 0.199701 -0.232569
N18   N     N_R   0.833627 0.755110 0.786343 0.254017
O87   O     O_R   0.845433 0.715414 0.800910 -0.293006
O88   O     O_R   0.861041 0.797623 0.788173 -0.239246
N19   N     N_R   0.271593 0.807169 0.203812 0.256030
O89   O     O_R   0.281492 0.782141 0.182419 -0.226496
O90   O     O_R   0.272546 0.857875 0.203787 -0.277281
N20   N     N_R   0.729275 0.192047 0.796031 0.251783
O91   O     O_R   0.719754 0.216679 0.817580 -0.238616
O92   O     O_R   0.728411 0.141341 0.795837 -0.289202
N21   N     N_R   0.821545 0.742817 0.207843 0.256816
O93   O     O_R   0.803831 0.740224 0.184224 -0.224383
O94   O     O_R   0.871622 0.741269 0.211776 -0.287828
N22   N     N_R   0.173511 0.251895 0.790080 0.254021
O95   O     O_R   0.164254 0.294148 0.803260 -0.296466
O96   O     O_R   0.146774 0.209987 0.795072 -0.239564
N23   N     N_R   0.727576 0.194014 0.203519 0.256558
O97   O     O_R   0.765347 0.171546 0.190929 -0.227861
O98   O     O_R   0.680124 0.189781 0.194850 -0.279127
N24   N     N_R   0.271271 0.807059 0.796268 0.254942
O99   O     O_R   0.233202 0.829821 0.808500 -0.231627
O100  O     O_R   0.318503 0.811435 0.805210 -0.301462
N25   N     N_R   0.693177 0.228052 0.296249 0.256000
O101  O     O_R   0.718367 0.217999 0.317581 -0.227567
O102  O     O_R   0.642470 0.227091 0.296362 -0.279572
N26   N     N_R   0.307969 0.770715 0.703975 0.252003
O103  O     O_R   0.283341 0.780225 0.682420 -0.238258
O104  O     O_R   0.358677 0.771585 0.704179 -0.291203
N27   N     N_R   0.757768 0.679326 0.292516 0.254943
O105  O     O_R   0.801806 0.671778 0.304468 -0.274466
O106  O     O_R   0.716725 0.653467 0.299870 -0.235133
N28   N     N_R   0.248631 0.327272 0.710268 0.253157
O107  O     O_R   0.249412 0.312962 0.686055 -0.235308
O108  O     O_R   0.246497 0.376671 0.715884 -0.297135
N29   N     N_R   0.306335 0.772084 0.296421 0.256732
O109  O     O_R   0.328900 0.734223 0.308906 -0.226181
O110  O     O_R   0.310627 0.819470 0.305165 -0.277668
N30   N     N_R   0.692959 0.228705 0.703725 0.254542
O111  O     O_R   0.670197 0.266764 0.691480 -0.232726
O112  O     O_R   0.688592 0.181470 0.694791 -0.300774
N31   N     N_R   0.242312 0.321036 0.292369 0.256776
O113  O     O_R   0.239434 0.303040 0.315920 -0.223590
O114  O     O_R   0.240815 0.371157 0.288598 -0.284461
N32   N     N_R   0.744264 0.665750 0.714036 0.253646
O115  O     O_R   0.738930 0.675554 0.689416 -0.233227
O116  O     O_R   0.747615 0.617579 0.721746 -0.295785
N33   N     N_R   0.666437 0.745021 0.713591 0.253928
O117  O     O_R   0.654654 0.784739 0.699034 -0.271855
O118  O     O_R   0.638985 0.702533 0.711758 -0.237340
N34   N     N_R   0.320175 0.241808 0.292693 0.254505
O119  O     O_R   0.327551 0.197645 0.304541 -0.297084
O120  O     O_R   0.345926 0.282771 0.300271 -0.236409
N35   N     N_R   0.770819 0.307939 0.703962 0.255956
O121  O     O_R   0.780363 0.283270 0.682427 -0.226923
O122  O     O_R   0.771770 0.358644 0.704143 -0.275968
N36   N     N_R   0.228503 0.692816 0.296181 0.251849
O123  O     O_R   0.218626 0.717807 0.317587 -0.238303
O124  O     O_R   0.227637 0.642109 0.296193 -0.290878
N37   N     N_R   0.326450 0.247993 0.709872 0.254333
O125  O     O_R   0.335717 0.205718 0.696710 -0.273424
O126  O     O_R   0.353210 0.289884 0.704875 -0.236796
N38   N     N_R   0.678480 0.757139 0.292167 0.252711
O127  O     O_R   0.696157 0.759704 0.315794 -0.236606
O128  O     O_R   0.628408 0.758622 0.288215 -0.296426
N39   N     N_R   0.228701 0.692883 0.703729 0.256805
O129  O     O_R   0.266773 0.670107 0.691506 -0.225448
O130  O     O_R   0.181463 0.688441 0.694800 -0.278271
N40   N     N_R   0.772402 0.305923 0.296479 0.254577
O131  O     O_R   0.734634 0.328376 0.309079 -0.234331
O132  O     O_R   0.819849 0.310086 0.305161 -0.302436
N41   N     N_R   0.498432 0.144629 0.973163 0.271751
O133  O     O_R   0.455914 0.159111 0.961439 -0.208657
O134  O     O_R   0.536787 0.177450 0.975546 -0.215699
N42   N     N_R   0.499466 0.855473 0.026853 0.271771
O135  O     O_R   0.457040 0.840679 0.038544 -0.207343
O136  O     O_R   0.538065 0.822937 0.024501 -0.216076
N43   N     N_R   0.855418 0.499090 0.973121 0.271749
O137  O     O_R   0.840726 0.456655 0.961388 -0.207382
O138  O     O_R   0.822782 0.537598 0.975501 -0.216375
N44   N     N_R   0.144620 0.498629 0.026872 0.271867
O139  O     O_R   0.159188 0.456135 0.038580 -0.207706
O140  O     O_R   0.177367 0.537046 0.024516 -0.214919
N45   N     N_R   0.501622 0.855477 0.973132 0.271805
O141  O     O_R   0.544158 0.840997 0.961440 -0.208663
O142  O     O_R   0.463266 0.822653 0.975477 -0.215239
N46   N     N_R   0.500497 0.144641 0.026885 0.271756
O143  O     O_R   0.542906 0.159438 0.038614 -0.207505
O144  O     O_R   0.461902 0.177177 0.024508 -0.216156
N47   N     N_R   0.144595 0.500768 0.973150 0.271722
O145  O     O_R   0.159295 0.543222 0.961453 -0.207453
O146  O     O_R   0.177216 0.462241 0.975508 -0.216194
N48   N     N_R   0.855449 0.501152 0.026844 0.271759
O147  O     O_R   0.840867 0.543634 0.038562 -0.208470
O148  O     O_R   0.822719 0.462719 0.024465 -0.215693
N49   N     N_R   0.998707 0.644669 0.473162 0.271811
O149  O     O_R   0.956221 0.659232 0.461434 -0.208302
O150  O     O_R   0.037123 0.677417 0.475550 -0.215425
N50   N     N_R   0.999167 0.355505 0.526844 0.271647
O151  O     O_R   0.956717 0.340801 0.538541 -0.207842
O152  O     O_R   0.037695 0.322887 0.524485 -0.216720
N51   N     N_R   0.355339 0.999219 0.473107 0.271821
O153  O     O_R   0.340624 0.956785 0.461380 -0.207107
O154  O     O_R   0.322728 0.037749 0.475478 -0.215685
N52   N     N_R   0.644521 0.998645 0.526884 0.271849
O155  O     O_R   0.659076 0.956146 0.538591 -0.208508
O156  O     O_R   0.677279 0.037055 0.524531 -0.215260
N53   N     N_R   0.001305 0.355512 0.473122 0.271846
O157  O     O_R   0.043807 0.340950 0.461424 -0.208038
O158  O     O_R   0.962885 0.322765 0.475470 -0.215288
N54   N     N_R   0.000768 0.644670 0.526886 0.271661
O159  O     O_R   0.043203 0.659378 0.538619 -0.207600
O160  O     O_R   0.962241 0.677285 0.524506 -0.216957
N55   N     N_R   0.644517 0.000769 0.473163 0.271691
O161  O     O_R   0.659233 0.043212 0.461462 -0.207770
O162  O     O_R   0.677126 0.962233 0.475527 -0.216650
N56   N     N_R   0.355351 0.001299 0.526830 0.271758
O163  O     O_R   0.340794 0.043790 0.538548 -0.208392
O164  O     O_R   0.322598 0.962887 0.524449 -0.215546
N57   N     N_R   0.914721 0.455764 0.595170 0.259655
O165  O     O_R   0.898484 0.408950 0.600534 -0.201388
O166  O     O_R   0.892666 0.481541 0.576408 -0.296777
N58   N     N_R   0.914662 0.544118 0.404793 0.259625
O167  O     O_R   0.898272 0.590875 0.399415 -0.201946
O168  O     O_R   0.892687 0.518275 0.423545 -0.296220
N59   N     N_R   0.543937 0.914575 0.595187 0.259611
O169  O     O_R   0.590691 0.898159 0.600569 -0.203104
O170  O     O_R   0.518071 0.892618 0.576420 -0.296162
N60   N     N_R   0.455578 0.914810 0.404777 0.259549
O171  O     O_R   0.408758 0.898594 0.399383 -0.199580
O172  O     O_R   0.481337 0.892742 0.423542 -0.296785
N61   N     N_R   0.085168 0.544416 0.595222 0.259644
O173  O     O_R   0.101388 0.591233 0.600611 -0.200315
O174  O     O_R   0.107231 0.518656 0.576460 -0.296730
N62   N     N_R   0.085425 0.456085 0.404830 0.259680
O175  O     O_R   0.101835 0.409331 0.399455 -0.202481
O176  O     O_R   0.107383 0.481945 0.423598 -0.295961
N63   N     N_R   0.455952 0.085357 0.595189 0.259659
O177  O     O_R   0.409198 0.101766 0.600560 -0.202689
O178  O     O_R   0.481804 0.107315 0.576435 -0.295930
N64   N     N_R   0.544244 0.085244 0.404831 0.259687
O179  O     O_R   0.591060 0.101480 0.399470 -0.201652
O180  O     O_R   0.518468 0.107294 0.423590 -0.295867
N65   N     N_R   0.414786 0.955627 0.095174 0.259622
O181  O     O_R   0.398612 0.908793 0.100543 -0.200821
O182  O     O_R   0.392700 0.981364 0.076408 -0.296254
N66   N     N_R   0.414555 0.043845 0.904807 0.259825
O183  O     O_R   0.398037 0.090559 0.899433 -0.204165
O184  O     O_R   0.392656 0.017939 0.923560 -0.295776
N67   N     N_R   0.044110 0.414567 0.095211 0.259613
O185  O     O_R   0.090871 0.398187 0.100604 -0.200972
O186  O     O_R   0.018273 0.392577 0.076443 -0.296250
N68   N     N_R   0.955657 0.414770 0.904777 0.259622
O187  O     O_R   0.908838 0.398541 0.899390 -0.200005
O188  O     O_R   0.981437 0.392704 0.923535 -0.296337
N69   N     N_R   0.585110 0.044515 0.095223 0.259619
O189  O     O_R   0.601266 0.091355 0.100612 -0.200453
O190  O     O_R   0.607208 0.018785 0.076462 -0.296341
N70   N     N_R   0.585545 0.956259 0.904829 0.259803
O191  O     O_R   0.602073 0.909548 0.899450 -0.204552
O192  O     O_R   0.607441 0.982170 0.923598 -0.296061
N71   N     N_R   0.956033 0.585302 0.095167 0.259705
O193  O     O_R   0.909270 0.601697 0.100527 -0.203410
O194  O     O_R   0.981890 0.607254 0.076414 -0.295827
N72   N     N_R   0.044262 0.585236 0.904832 0.259644
O195  O     O_R   0.091069 0.601491 0.899464 -0.201012
O196  O     O_R   0.018491 0.607269 0.923597 -0.296204
N73   N     N_R   0.916027 0.452228 0.650033 0.267168
O197  O     O_R   0.868402 0.468380 0.646779 -0.227941
O198  O     O_R   0.924846 0.411360 0.664315 -0.310115
N74   N     N_R   0.915939 0.547609 0.349934 0.266858
O199  O     O_R   0.868371 0.531289 0.353165 -0.230025
O200  O     O_R   0.924614 0.588525 0.335667 -0.304093
N75   N     N_R   0.547487 0.915869 0.650047 0.266739
O201  O     O_R   0.531124 0.868314 0.646809 -0.227334
O202  O     O_R   0.588434 0.924525 0.664314 -0.305180
N76   N     N_R   0.452101 0.916102 0.349913 0.266637
O203  O     O_R   0.468225 0.868473 0.353167 -0.230752
O204  O     O_R   0.411260 0.924935 0.335601 -0.299208
N77   N     N_R   0.083890 0.547892 0.650085 0.266855
O205  O     O_R   0.131520 0.531767 0.646833 -0.230329
O206  O     O_R   0.075064 0.588733 0.664392 -0.301910
N78   N     N_R   0.084136 0.452526 0.349970 0.266593
O207  O     O_R   0.131696 0.468880 0.353210 -0.227599
O208  O     O_R   0.075473 0.411576 0.335711 -0.310882
N79   N     N_R   0.452450 0.084087 0.650047 0.266817
O209  O     O_R   0.468797 0.131645 0.646817 -0.228946
O210  O     O_R   0.411519 0.075433 0.664304 -0.305720
N80   N     N_R   0.547775 0.083956 0.349969 0.267043
O211  O     O_R   0.531619 0.131577 0.353219 -0.227251
O212  O     O_R   0.588646 0.075143 0.335692 -0.310408
N81   N     N_R   0.416085 0.952121 0.150038 0.266997
O213  O     O_R   0.368439 0.968206 0.146778 -0.227243
O214  O     O_R   0.424956 0.911285 0.164335 -0.307785
N82   N     N_R   0.415812 0.047359 0.849951 0.266466
O215  O     O_R   0.368294 0.030882 0.853169 -0.229401
O216  O     O_R   0.424365 0.088342 0.835714 -0.315194
N83   N     N_R   0.047612 0.415898 0.150072 0.266897
O217  O     O_R   0.031298 0.368326 0.146832 -0.228583
O218  O     O_R   0.088527 0.424595 0.164354 -0.301261
N84   N     N_R   0.952140 0.416082 0.849914 0.266606
O219  O     O_R   0.968282 0.368457 0.853161 -0.230134
O220  O     O_R   0.911285 0.424906 0.835610 -0.300244
N85   N     N_R   0.583833 0.047987 0.150087 0.266629
O221  O     O_R   0.631484 0.031930 0.146830 -0.230743
O222  O     O_R   0.574952 0.088801 0.164405 -0.302124
N86   N     N_R   0.584255 0.952713 0.849971 0.266140
O223  O     O_R   0.631771 0.969206 0.853201 -0.229345
O224  O     O_R   0.575701 0.911714 0.835731 -0.314349
N87   N     N_R   0.952486 0.584065 0.150025 0.266539
O225  O     O_R   0.968824 0.631626 0.146792 -0.229002
O226  O     O_R   0.911543 0.575405 0.164272 -0.313805
N88   N     N_R   0.047761 0.583966 0.849969 0.266985
O227  O     O_R   0.031586 0.631580 0.853222 -0.226693
O228  O     O_R   0.088633 0.575173 0.835690 -0.308290

loop_
_geom_bond_atom_site_label_1
_geom_bond_atom_site_label_2
_geom_bond_distance
_ccdc_geom_bond_type
N7    C204  1.440525 S    
N16   O84   1.301256 A    
N51   O153  1.301170 A    
C156  C159  1.403438 A    
C174  C206  1.408536 A    
C181  C193  1.417275 A    
N61   O173  1.301223 A    
Zn5   O51   1.903957 S    
C16   C103  1.430384 S    
C165  N61   1.437930 S    
C127  C151  1.416741 A    
N21   O93   1.301283 A    
C173  C189  1.406908 A    
C106  N2    1.364800 A    
N65   O181  1.301222 A    
N54   O159  1.301170 A    
C125  C149  1.416735 A    
C82   C95   1.203679 T    
Zn8   O4    1.921057 S    
C46   N35   1.438660 S    
C67   C83   1.443604 S    
C127  C139  1.417196 A    
N43   O138  1.300975 A    
N41   O134  1.300977 A    
Zn3   O38   1.903985 S    
C113  O61   1.348713 S    
C62   C78   1.443302 S    
Zn5   O20   1.954612 S    
C168  N64   1.437939 S    
Zn6   O19   1.954607 S    
C105  C125  1.411895 A    
C153  C158  1.403441 A    
C120  O68   1.348711 S    
N36   O124  1.301260 A    
Zn13  O35   1.903958 S    
O34   C22   1.277207 A    
Zn14  O36   1.903959 S    
C186  N82   1.435197 S    
N75   O202  1.301266 A    
Zn3   O3    1.921526 S    
C155  C160  1.403443 A    
C114  N6    1.364812 A    
C61   C77   1.443605 S    
C171  N67   1.437935 S    
C70   C86   1.443411 S    
N4    C207  1.440530 S    
C112  O60   1.348710 S    
C183  C195  1.417333 A    
C87   C90   1.203846 T    
C153  N49   1.434298 S    
C80   C97   1.203653 T    
C116  O64   1.348712 S    
C178  C194  1.417332 A    
C68   C84   1.443303 S    
N12   O76   1.301316 A    
N63   O177  1.301219 A    
C44   C70   1.410461 A    
C145  N41   1.434293 S    
N22   O95   1.301267 A    
Zn1   O44   1.903781 S    
N81   O214  1.301265 A    
Zn2   O43   1.903784 S    
C191  N87   1.435218 S    
C136  C144  1.417200 A    
Zn3   O18   1.954289 S    
N9    O69   1.301273 A    
C76   C101  1.203688 T    
N14   O79   1.301274 A    
C124  C148  1.416738 A    
C176  N72   1.437938 S    
C139  C140  1.416463 A    
Zn8   O41   1.903846 S    
N67   O186  1.301211 A    
C45   C52   1.410508 A    
C55   N26   1.438547 S    
O40   C18   1.277099 A    
N27   O105  1.301298 A    
C47   C50   1.410472 A    
N26   O103  1.301272 A    
C69   C85   1.443650 S    
N71   O194  1.301208 A    
C59   C75   1.443643 S    
C126  C138  1.417203 A    
C60   C76   1.443393 S    
C72   C88   1.443315 S    
O17   C5    1.275448 A    
N62   O176  1.301210 A    
Zn7   O3    1.921059 S    
N73   O198  1.301267 A    
N44   O140  1.300979 A    
C23   C96   1.430755 S    
O9    C1    1.275440 A    
N72   O195  1.301224 A    
Zn1   O16   1.954194 S    
C122  C138  1.417204 A    
O11   C3    1.275533 A    
C56   N25   1.438658 S    
C43   C69   1.410634 A    
C169  C205  1.408596 A    
Zn13  O4    1.920825 S    
Zn14  O3    1.920817 S    
Zn15  O26   1.903844 S    
N22   O96   1.301317 A    
C32   C64   1.410453 A    
C33   C65   1.410627 A    
C133  C141  1.417199 A    
N58   O167  1.301220 A    
N33   O118  1.301302 A    
O38   C20   1.277685 A    
N3    C208  1.440530 S    
C27   N22   1.438524 S    
C7    C194  1.483621 S    
C135  C159  1.416737 A    
Zn15  O33   1.904060 S    
C119  O67   1.348707 S    
N57   O165  1.301221 A    
N52   O156  1.300979 A    
N40   O131  1.301271 A    
C117  O65   1.348712 S    
Zn4   O4    1.921528 S    
N8    C203  1.440525 S    
C111  N3    1.364809 A    
N86   O223  1.301107 A    
C192  C200  1.417258 A    
N82   O216  1.301259 A    
N64   O179  1.301221 A    
C45   C67   1.410620 A    
O5    C1    1.275475 A    
C46   C68   1.410541 A    
C63   C79   1.443580 S    
N45   O141  1.301167 A    
C111  O59   1.348713 S    
N37   O126  1.301311 A    
C14   C97   1.430410 S    
Zn15  O2    1.921062 S    
C109  O57   1.348712 S    
C78   C99   1.203633 T    
N15   O82   1.301259 A    
Zn11  O2    1.921529 S    
Zn16  O5    1.954526 S    
C166  C182  1.406934 A    
O27   C15   1.277776 A    
C129  C153  1.416739 A    
N32   O115  1.301272 A    
C42   N39   1.438679 S    
N51   O154  1.300973 A    
C129  C141  1.417198 A    
C51   C61   1.410509 A    
C123  C139  1.417199 A    
Zn8   O13   1.954521 S    
O46   C12   1.277550 A    
N46   O143  1.301170 A    
C121  C145  1.416737 A    
N55   O162  1.300975 A    
O14   C6    1.275518 A    
C105  O53   1.348713 S    
N13   O78   1.301290 A    
C185  C197  1.417239 A    
C114  C134  1.411905 A    
N30   O111  1.301273 A    
O43   C21   1.277784 A    
C160  N56   1.434298 S    
N17   O86   1.301319 A    
C166  C202  1.408576 A    
C156  N52   1.434302 S    
N6    C201  1.440525 S    
C190  C198  1.417334 A    
C182  N78   1.435217 S    
N38   O127  1.301284 A    
N47   O146  1.300973 A    
C175  C207  1.408567 A    
N60   O171  1.301221 A    
C182  C194  1.417298 A    
N13   O77   1.301269 A    
C46   C51   1.410481 A    
C148  N44   1.434302 S    
C174  C190  1.406936 A    
N10   O72   1.301260 A    
C34   N15   1.438624 S    
C109  C121  1.411893 A    
C43   C54   1.410539 A    
C174  N70   1.437943 S    
N70   O191  1.301217 A    
C136  C160  1.416739 A    
N34   O120  1.301323 A    
N69   O189  1.301223 A    
N48   O148  1.300978 A    
C26   C39   1.410513 A    
N77   O206  1.301274 A    
C118  C130  1.411895 A    
C43   N38   1.438555 S    
C166  N62   1.437941 S    
N66   O183  1.301218 A    
N42   O136  1.300975 A    
Zn12  O30   1.903738 S    
C159  N55   1.434299 S    
C81   C96   1.203831 T    
N20   O91   1.301270 A    
C9    C102  1.430806 S    
C177  N73   1.435259 S    
N1    C206  1.440504 S    
C146  C149  1.403432 A    
C141  C142  1.416463 A    
C157  N53   1.434294 S    
O31   C19   1.277832 A    
Zn12  O1    1.921525 S    
C112  C124  1.411909 A    
C27   C38   1.410486 A    
N24   O100  1.301250 A    
C71   C87   1.443619 S    
C169  N65   1.437938 S    
C32   N17   1.438627 S    
N74   O200  1.301272 A    
N85   O221  1.301104 A    
O37   C19   1.277531 A    
C18   C93   1.430370 S    
C33   N16   1.438556 S    
N28   O108  1.301257 A    
C24   C95   1.430462 S    
C185  N81   1.435268 S    
N50   O151  1.301170 A    
N27   O106  1.301312 A    
O51   C13   1.277252 A    
C163  N59   1.437940 S    
N23   O98   1.301289 A    
Zn14  O11   1.954612 S    
N84   O220  1.301274 A    
C119  C131  1.411909 A    
N79   O209  1.301108 A    
C48   N33   1.438570 S    
O8    C4    1.275384 A    
C56   C58   1.410546 A    
N39   O130  1.301289 A    
Zn4   O17   1.954284 S    
C161  N57   1.437937 S    
C36   C68   1.410451 A    
O48   C10   1.277724 A    
C118  N6    1.364814 A    
C172  C208  1.408588 A    
C75   C102  1.203859 T    
N42   O135  1.301169 A    
O16   C8    1.275405 A    
N83   O217  1.301107 A    
C53   N28   1.438555 S    
C180  N76   1.435274 S    
C135  C143  1.417196 A    
C128  C140  1.417199 A    
Zn1   O1    1.921647 S    
O29   C17   1.277669 A    
O52   C14   1.277054 A    
C22   C89   1.430386 S    
N80   O211  1.301107 A    
C86   C91   1.203700 T    
C176  C208  1.408600 A    
N41   O133  1.301166 A    
C190  N86   1.435179 S    
C5    C196  1.483467 S    
C6    C195  1.483626 S    
O45   C11   1.277666 A    
C29   N20   1.438549 S    
C107  O55   1.348710 S    
C32   C33   1.410520 A    
C124  C140  1.417202 A    
N87   O226  1.301259 A    
C39   C71   1.410619 A    
N68   O187  1.301224 A    
C49   C63   1.410585 A    
C50   C64   1.410537 A    
C37   C69   1.410518 A    
N59   O169  1.301218 A    
C168  C184  1.406936 A    
C169  C185  1.406931 A    
C170  C206  1.408528 A    
N71   O193  1.301222 A    
C110  O58   1.348709 S    
N56   O163  1.301166 A    
O42   C24   1.277221 A    
Zn16  O25   1.903845 S    
C77   C100  1.203840 T    
N78   O207  1.301106 A    
C192  N88   1.435252 S    
C28   C37   1.410489 A    
N36   O123  1.301271 A    
C17   C94   1.430757 S    
Zn4   O37   1.903984 S    
N88   O228  1.301266 A    
C108  C128  1.411896 A    
Zn5   O40   1.904073 S    
Zn6   O39   1.904072 S    
N35   O121  1.301272 A    
C126  C150  1.416734 A    
C137  C138  1.416463 A    
N29   O110  1.301288 A    
N88   O227  1.301105 A    
N49   O149  1.301164 A    
C158  N54   1.434299 S    
Zn16  O34   1.904057 S    
C53   C59   1.410630 A    
C114  O62   1.348710 S    
C25   C40   1.410484 A    
N81   O213  1.301106 A    
C110  N2    1.364803 A    
C55   C57   1.410619 A    
C48   C66   1.410482 A    
Zn3   O45   1.903736 S    
C30   C35   1.410479 A    
Zn4   O46   1.903739 S    
C106  C126  1.411895 A    
C28   C60   1.410544 A    
N14   O80   1.301255 A    
Zn12  O21   1.903983 S    
Zn13  O24   1.904074 S    
O35   C23   1.277132 A    
Zn14  O23   1.904071 S    
Zn15  O6    1.954521 S    
C168  C204  1.408596 A    
C161  C177  1.406941 A    
Zn16  O1    1.921054 S    
N53   O158  1.300980 A    
N26   O104  1.301258 A    
C50   N31   1.438633 S    
C115  N7    1.364812 A    
C13   C98   1.430739 S    
O32   C20   1.277504 A    
Zn13  O12   1.954607 S    
C167  C183  1.406927 A    
C3    C198  1.483755 S    
C171  C207  1.408577 A    
C52   N29   1.438683 S    
C113  N5    1.364812 A    
C165  C201  1.408593 A    
C40   N9    1.438658 S    
N9    O70   1.301272 A    
N16   O83   1.301287 A    
C167  C203  1.408563 A    
Zn7   O14   1.954526 S    
N73   O197  1.301104 A    
C162  N58   1.437935 S    
C36   N13   1.438681 S    
N61   O174  1.301207 A    
O12   C4    1.275420 A    
N72   O196  1.301209 A    
N21   O94   1.301259 A    
N54   O160  1.300973 A    
N76   O204  1.301276 A    
N65   O182  1.301209 A    
N25   O101  1.301270 A    
C186  C198  1.417359 A    
C179  N75   1.435228 S    
N11   O73   1.301285 A    
O7    C3    1.275480 A    
C21   C90   1.430774 S    
C163  C203  1.408571 A    
C47   N34   1.438529 S    
O44   C22   1.277656 A    
C117  N5    1.364813 A    
C143  C144  1.416468 A    
C164  C204  1.408595 A    
N69   O190  1.301209 A    
N18   O87   1.301278 A    
C154  N50   1.434300 S    
C47   C65   1.410508 A    
C191  C199  1.417298 A    
C116  N8    1.364809 A    
O21   C9    1.277785 A    
C145  C150  1.403435 A    
C58   C74   1.443314 S    
O23   C11   1.277188 A    
O39   C17   1.277185 A    
Zn11  O22   1.903986 S    
C161  C201  1.408600 A    
N55   O161  1.301170 A    
Zn7   O49   1.904059 S    
Zn9   O4    1.921650 S    
O15   C7    1.275439 A    
C175  C191  1.406916 A    
Zn10  O3    1.921646 S    
C83   C94   1.203839 T    
C146  N42   1.434301 S    
C15   C104  1.430774 S    
C30   C62   1.410545 A    
C41   C56   1.410483 A    
C115  O63   1.348708 S    
C125  C137  1.417205 A    
N40   O132  1.301251 A    
O18   C6    1.275491 A    
C183  N79   1.435239 S    
C108  O56   1.348715 S    
N86   O224  1.301259 A    
Zn9   O31   1.903932 S    
N64   O180  1.301209 A    
Zn10  O32   1.903929 S    
O10   C2    1.275506 A    
O36   C24   1.277190 A    
C123  C147  1.416735 A    
C148  C151  1.403445 A    
C121  C137  1.417206 A    
N37   O125  1.301309 A    
C184  C196  1.417256 A    
N2    C205  1.440504 S    
N76   O203  1.301104 A    
C120  C132  1.411897 A    
C175  N71   1.437940 S    
O41   C23   1.277436 A    
C165  C181  1.406922 A    
O28   C16   1.277665 A    
N32   O116  1.301259 A    
C179  C195  1.417317 A    
C44   N37   1.438610 S    
O22   C10   1.277453 A    
C173  C205  1.408588 A    
C1    C200  1.483477 S    
C167  N63   1.437937 S    
C2    C199  1.483616 S    
N46   O144  1.300973 A    
C107  C127  1.411909 A    
C178  N74   1.435250 S    
N83   O218  1.301266 A    
C26   N23   1.438681 S    
C111  C123  1.411895 A    
C85   C92   1.203863 T    
C171  C187  1.406945 A    
C187  N83   1.435252 S    
N30   O112  1.301252 A    
C48   C49   1.410518 A    
N20   O92   1.301259 A    
C134  C158  1.416738 A    
C54   C60   1.410458 A    
N17   O85   1.301298 A    
C25   C57   1.410509 A    
C118  O66   1.348713 S    
C29   C36   1.410509 A    
C108  N4    1.364811 A    
C39   N10   1.438548 S    
N15   O81   1.301271 A    
C27   C59   1.410519 A    
C38   N11   1.438617 S    
C44   C53   1.410541 A    
C31   C34   1.410477 A    
C170  N66   1.437941 S    
N62   O175  1.301221 A    
N38   O128  1.301255 A    
N12   O75   1.301253 A    
N44   O139  1.301168 A    
N60   O172  1.301211 A    
C28   N21   1.438629 S    
C184  N80   1.435256 S    
C41   N40   1.438552 S    
N59   O170  1.301212 A    
C66   C82   1.443384 S    
C31   N18   1.438514 S    
C132  C144  1.417200 A    
N23   O97   1.301267 A    
N79   O210  1.301268 A    
Zn8   O50   1.904058 S    
C149  N45   1.434294 S    
C130  C154  1.416735 A    
N43   O137  1.301169 A    
O26   C14   1.277329 A    
N19   O89   1.301270 A    
N50   O152  1.300976 A    
N70   O192  1.301212 A    
N39   O129  1.301265 A    
C163  C179  1.406934 A    
C130  C142  1.417198 A    
C155  N51   1.434299 S    
C164  C180  1.406927 A    
O19   C7    1.275496 A    
N77   O205  1.301105 A    
C188  C200  1.417281 A    
C176  C192  1.406941 A    
C52   C62   1.410445 A    
C54   N27   1.438629 S    
C177  C193  1.417259 A    
C88   C89   1.203645 T    
C122  C146  1.416735 A    
N35   O122  1.301273 A    
N66   O184  1.301209 A    
C106  O54   1.348708 S    
C107  N3    1.364816 A    
C42   C55   1.410514 A    
C150  N46   1.434299 S    
O49   C15   1.277298 A    
O13   C5    1.275462 A    
C115  C135  1.411902 A    
N75   O201  1.301106 A    
C170  C186  1.406910 A    
C30   N19   1.438661 S    
C147  N43   1.434303 S    
C19   C92   1.430810 S    
C154  C157  1.403441 A    
C113  C133  1.411897 A    
C20   C91   1.430489 S    
C181  N77   1.435277 S    
N57   O166  1.301208 A    
C35   C67   1.410506 A    
N52   O155  1.301165 A    
C25   N24   1.438558 S    
C189  N85   1.435283 S    
O20   C8    1.275441 A    
N85   O222  1.301275 A    
N82   O215  1.301107 A    
N87   O225  1.301109 A    
O24   C12   1.277092 A    
C11   C100  1.430761 S    
C128  C152  1.416740 A    
C12   C99   1.430369 S    
Zn6   O52   1.903960 S    
C110  C122  1.411897 A    
O25   C13   1.277308 A    
N49   O150  1.300979 A    
C49   N32   1.438583 S    
Zn1   O47   1.903931 S    
Zn2   O48   1.903930 S    
C116  C136  1.411910 A    
C26   C58   1.410448 A    
Zn6   O2    1.920820 S    
C109  N1    1.364804 A    
C64   C80   1.443340 S    
C117  C129  1.411903 A    
C65   C81   1.443599 S    
N18   O88   1.301308 A    
C112  N4    1.364809 A    
C57   C73   1.443621 S    
N67   O185  1.301222 A    
C40   C72   1.410543 A    
C147  C152  1.403437 A    
Zn11  O10   1.954284 S    
C162  C178  1.406921 A    
C10   C101  1.430468 S    
C35   N14   1.438551 S    
C188  N84   1.435277 S    
Zn2   O15   1.954189 S    
N11   O74   1.301260 A    
N80   O212  1.301265 A    
C4    C197  1.483389 S    
C34   C66   1.410494 A    
C79   C98   1.203821 T    
C37   N12   1.438529 S    
N31   O113  1.301282 A    
C73   C104  1.203845 T    
N47   O145  1.301170 A    
Zn5   O1    1.920822 S    
N68   O188  1.301210 A    
N19   O90   1.301273 A    
N10   O71   1.301269 A    
C38   C70   1.410541 A    
C132  C156  1.416739 A    
C187  C199  1.417329 A    
C164  N60   1.437929 S    
C8    C193  1.483462 S    
N45   O142  1.300979 A    
N56   O164  1.300980 A    
C51   N30   1.438554 S    
C172  N68   1.437932 S    
N34   O119  1.301255 A    
N78   O208  1.301264 A    
N48   O147  1.301167 A    
O47   C9    1.277574 A    
Zn9   O28   1.903782 S    
C152  N48   1.434293 S    
Zn7   O42   1.903843 S    
C119  N7    1.364808 A    
Zn10  O27   1.903783 S    
C84   C93   1.203638 T    
O33   C21   1.277289 A    
Zn2   O2    1.921649 S    
C162  C202  1.408568 A    
N58   O168  1.301210 A    
Zn9   O8    1.954189 S    
C151  N47   1.434299 S    
Zn10  O7    1.954194 S    
C180  C196  1.417271 A    
N29   O109  1.301269 A    
C131  C143  1.417202 A    
C134  C142  1.417198 A    
C31   C63   1.410549 A    
Zn12  O9    1.954289 S    
C41   C71   1.410509 A    
C42   C72   1.410453 A    
C29   C61   1.410614 A    
N33   O117  1.301310 A    
C131  C155  1.416735 A    
N24   O99   1.301270 A    
C105  N1    1.364804 A    
N74   O199  1.301106 A    
C172  C188  1.406922 A    
O6    C2    1.275493 A    
N31   O114  1.301260 A    
N28   O107  1.301284 A    
C133  C157  1.416738 A    
Zn11  O29   1.903737 S    
O50   C16   1.277196 A    
C120  N8    1.364812 A    
N25   O102  1.301274 A    
N53   O157  1.301167 A    
N63   O178  1.301209 A    
N84   O219  1.301105 A    
C74   C103  1.203642 T    
C173  N69   1.437931 S    
C45   N36   1.438546 S    
N5    C202  1.440525 S    
C189  C197  1.417255 A    
O30   C18   1.277546 A    
