data_mof_unit_33641.cif
_audit_creation_date              2012-12-11T15:50:22-0500
_audit_creation_method            fapswitch 2.2
_symmetry_space_group_name_H-M    P1
_symmetry_Int_Tables_number       1
_space_group_crystal_system       triclinic
_cell_length_a                    18.922969
_cell_length_b                    11.177104
_cell_length_c                    18.605172
_cell_angle_alpha                 89.962638
_cell_angle_beta                  91.393056
_cell_angle_gamma                 90.001146
_cell_volume                      3933.90428784

loop_
_atom_site_label
_atom_site_type_symbol
_atom_type_description
_atom_site_fract_x
_atom_site_fract_y
_atom_site_fract_z
_atom_type_partial_charge
C1    C     C_R   0.271835 0.042813 0.852976 0.543073
C2    C     C_R   0.724905 0.035283 0.143753 0.551180
C3    C     C_R   0.773993 0.537560 0.855431 0.539301
C4    C     C_R   0.225285 0.536298 0.143961 0.530195
C5    C     C_3   0.501747 0.719939 0.977129 -0.120680
C6    C     C_3   0.451768 0.779777 0.030982 -0.140243
C7    C     C_3   0.046118 0.251242 0.967541 -0.128273
C8    C     C_3   0.990767 0.218386 0.023519 -0.122533
C9    C     C_R   0.234905 0.554825 0.067395 0.010527
C10   C     C_R   0.763054 0.558442 0.931433 0.018291
C11   C     C_R   0.734098 0.052895 0.067257 0.022760
C12   C     C_R   0.246930 0.096842 0.918796 0.010187
C13   C     C_R   0.287710 0.494266 0.030631 0.014580
C14   C     C_R   0.715931 0.488152 0.970338 0.035073
C15   C     C_R   0.783104 0.985646 0.029160 0.032077
C16   C     C_R   0.191558 0.047155 0.957619 -0.002938
C17   C     C_R   0.292614 0.506009 0.956728 0.007069
C18   C     C_R   0.712069 0.498350 0.044232 0.007557
C19   C     C_R   0.788697 0.999180 0.955530 0.005679
C20   C     C_R   0.182071 0.077071 0.029170 0.018372
C21   C     C_R   0.181146 0.608454 0.951980 -0.171893
C22   C     C_R   0.814528 0.625238 0.044670 -0.168265
C23   C     C_R   0.683425 0.119656 0.953738 -0.169805
C24   C     C_R   0.281137 0.210647 0.024188 -0.163969
C25   C     C_R   0.178619 0.604573 0.026365 -0.174258
C26   C     C_R   0.816077 0.619904 0.970562 -0.159083
C27   C     C_R   0.680351 0.111761 0.027684 -0.157700
C28   C     C_R   0.287958 0.186958 0.951565 -0.158943
C29   C     C_3   0.366101 0.497590 0.041653 -0.278200
C30   C     C_3   0.638264 0.468661 0.961615 -0.276489
C31   C     C_3   0.860893 0.974436 0.040262 -0.278828
C32   C     C_3   0.172183 0.919528 0.969771 -0.260871
C33   C     C_3   0.370897 0.513999 0.960821 -0.272902
C34   C     C_3   0.634373 0.475222 0.043324 -0.280254
C35   C     C_3   0.867237 0.987761 0.959190 -0.274613
C36   C     C_3   0.161358 0.952090 0.047922 -0.269187
C37   C     C_R   0.242952 0.573343 0.917250 0.015168
C38   C     C_R   0.756840 0.577628 0.081682 0.012199
C39   C     C_R   0.742828 0.076241 0.917753 0.006359
C40   C     C_R   0.230082 0.153177 0.064644 0.012596
C41   C     C_R   0.505497 0.824702 0.425835 -0.033637
C42   C     C_R   0.500035 0.828327 0.575647 -0.042323
C43   C     C_R   0.022575 0.333539 0.432270 -0.025292
C44   C     C_R   0.011328 0.333175 0.582395 -0.034081
C45   C     C_R   0.470983 0.821704 0.854598 0.540870
C46   C     C_R   0.532635 0.822361 0.143517 0.545256
C47   C     C_R   0.970528 0.321822 0.854732 0.536444
C48   C     C_R   0.031784 0.321073 0.143830 0.542208
C49   C     C_R   0.516231 0.721372 0.466132 -0.040199
C50   C     C_R   0.513332 0.722087 0.539153 -0.050933
C51   C     C_R   0.030829 0.229813 0.472083 -0.030392
C52   C     C_R   0.029163 0.228630 0.545534 -0.025834
C53   C     C_R   0.503968 0.937830 0.537044 0.244155
C54   C     C_R   0.493383 0.934053 0.460872 0.254826
C55   C     C_R   0.017968 0.444157 0.545769 0.238100
C56   C     C_R   0.022451 0.443874 0.470080 0.252960
C57   C     C_3   0.479171 0.603832 0.459378 -0.263154
C58   C     C_3   0.478234 0.602065 0.540424 -0.227601
C59   C     C_3   0.995303 0.112592 0.462553 -0.274202
C60   C     C_3   0.996385 0.106229 0.543504 -0.253883
C61   C     C_R   0.259301 0.605479 0.414922 -0.016602
C62   C     C_R   0.750094 0.597794 0.580697 0.029586
C63   C     C_R   0.757729 0.123690 0.410784 -0.007198
C64   C     C_R   0.244106 0.129509 0.590448 -0.009969
C65   C     C_R   0.237692 0.717067 0.438494 0.035758
C66   C     C_R   0.803483 0.653489 0.543645 0.043697
C67   C     C_R   0.718939 0.218697 0.440226 0.064530
C68   C     C_R   0.288990 0.214915 0.558967 0.028393
C69   C     C_R   0.240951 0.744034 0.511062 -0.017356
C70   C     C_R   0.792447 0.688988 0.474410 -0.049567
C71   C     C_R   0.728050 0.249085 0.512438 -0.017546
C72   C     C_R   0.282913 0.237434 0.485623 -0.044591
C73   C     C_R   0.296728 0.555014 0.535446 -0.171649
C74   C     C_R   0.674916 0.607313 0.475079 -0.137109
C75   C     C_R   0.817362 0.098031 0.524642 -0.190209
C76   C     C_R   0.176895 0.120403 0.479479 -0.125199
C77   C     C_R   0.295091 0.531220 0.462847 -0.170026
C78   C     C_R   0.683914 0.580291 0.547944 -0.187208
C79   C     C_R   0.814804 0.080423 0.450527 -0.195576
C80   C     C_R   0.181658 0.102201 0.554013 -0.167353
C81   C     C_3   0.169666 0.780256 0.424559 0.136195
C82   C     C_3   0.842232 0.766430 0.562884 0.152584
C83   C     C_3   0.640911 0.243498 0.440068 0.152221
C84   C     C_3   0.368573 0.223341 0.559557 0.157070
C85   C     C_3   0.169623 0.801139 0.504976 -0.223282
C86   C     C_3   0.823659 0.808839 0.487811 -0.271210
C87   C     C_3   0.651271 0.279174 0.517756 -0.209276
C88   C     C_3   0.362208 0.242352 0.479916 -0.209605
C89   C     C_R   0.259560 0.633808 0.850213 0.549492
C90   C     C_R   0.740375 0.634066 0.149747 0.557196
C91   C     C_R   0.759645 0.134202 0.850275 0.542054
C92   C     C_R   0.226036 0.181879 0.140740 0.560163
C93   C     C_R   0.267679 0.660718 0.560794 -0.003841
C94   C     C_R   0.729727 0.663348 0.438381 0.015327
C95   C     C_R   0.772526 0.179661 0.557661 -0.016393
C96   C     C_R   0.230184 0.179985 0.443012 0.012445
C97   C     C_R   0.269671 0.052995 0.649523 0.533601
C98   C     C_R   0.730319 0.051838 0.350919 0.534644
C99   C     C_R   0.770548 0.547178 0.647708 0.547850
C100  C     C_R   0.230708 0.549639 0.351085 0.533357
C101  C     C_R   0.468126 0.822513 0.646168 0.541212
C102  C     C_R   0.532720 0.821766 0.353869 0.539820
C103  C     C_R   0.971424 0.323497 0.648370 0.537597
C104  C     C_R   0.035033 0.323639 0.355574 0.550936
C105  C     C_R   0.273677 0.688518 0.636309 0.570721
C106  C     C_R   0.725189 0.690030 0.363079 0.579962
C107  C     C_R   0.774512 0.191902 0.636452 0.563388
C108  C     C_R   0.226208 0.190666 0.363907 0.581271
C109  C     C_3   0.510157 0.948742 0.020702 -0.108761
C110  C     C_3   0.559065 0.889839 0.965139 -0.134606
C111  C     C_3   0.958766 0.407669 0.030331 -0.126670
C112  C     C_3   0.014326 0.440494 0.973727 -0.113983
C113  C     C_3   0.445340 0.891168 0.982679 -0.115227
C114  C     C_3   0.566361 0.778709 0.014001 -0.115400
C115  C     C_3   0.935361 0.298335 0.985050 -0.112690
C116  C     C_3   0.069602 0.360178 0.012978 -0.112393
C117  C     C_3   0.494751 0.830725 0.929124 0.053670
C118  C     C_3   0.515875 0.835635 0.067623 0.065359
C119  C     C_3   0.991486 0.330606 0.929755 0.058627
C120  C     C_3   0.013338 0.327493 0.067961 0.056252
Cr1   Cr    Cr6+3 0.229640 0.835880 0.747370 0.981706
Cr2   Cr    Cr6+3 0.770360 0.835880 0.252630 0.986010
Cr3   Cr    Cr6+3 0.729640 0.335880 0.747370 0.972542
Cr4   Cr    Cr6+3 0.270360 0.335880 0.252630 0.964808
Cr5   Cr    Cr6+3 0.387390 0.989720 0.750850 0.974184
Cr6   Cr    Cr6+3 0.612610 0.989720 0.249150 0.972900
Cr7   Cr    Cr6+3 0.887390 0.489720 0.750850 1.016715
Cr8   Cr    Cr6+3 0.112610 0.489720 0.249150 0.994034
Cr9   Cr    Cr6+3 0.385770 0.677220 0.749340 0.965864
Cr10  Cr    Cr6+3 0.614230 0.677220 0.250660 0.978354
Cr11  Cr    Cr6+3 0.885770 0.177220 0.749340 1.014030
Cr12  Cr    Cr6+3 0.114230 0.177220 0.250660 0.977930
H1    H     H_    0.395152 0.937921 0.968229 0.128260
H2    H     H_    0.618377 0.738296 0.028050 0.119013
H3    H     H_    0.879447 0.274849 0.972110 0.119119
H4    H     H_    0.125459 0.381079 0.026986 0.125064
H5    H     H_    0.026371 0.041352 0.436709 0.145021
H6    H     H_    0.944646 0.106154 0.566559 0.178683
H7    H     H_    0.512295 0.531844 0.436904 0.167090
H8    H     H_    0.424566 0.605591 0.561725 0.184396
H9    H     H_    0.426097 0.612972 0.433252 0.143504
H10   H     H_    0.512835 0.531792 0.564663 0.150144
H11   H     H_    0.943168 0.127060 0.436934 0.149672
H12   H     H_    0.030604 0.034029 0.565365 0.122200
H13   H     H_    0.317851 0.488852 0.571951 0.202141
H14   H     H_    0.626491 0.583747 0.447334 0.180565
H15   H     H_    0.847091 0.034929 0.556702 0.174247
H16   H     H_    0.135408 0.077562 0.449251 0.181029
H17   H     H_    0.312685 0.447749 0.444331 0.153401
H18   H     H_    0.640817 0.544180 0.578276 0.116735
H19   H     H_    0.848692 0.014398 0.427069 0.127039
H20   H     H_    0.143059 0.048368 0.580625 0.116600
H21   H     H_    0.123540 0.726341 0.406267 0.189204
H22   H     H_    0.899815 0.748532 0.569893 0.161940
H23   H     H_    0.606114 0.163204 0.435402 0.171656
H24   H     H_    0.397968 0.139940 0.572001 0.210863
H25   H     H_    0.172152 0.894258 0.519550 0.155833
H26   H     H_    0.780409 0.875071 0.484707 0.140534
H27   H     H_    0.640890 0.373803 0.526299 0.162053
H28   H     H_    0.388904 0.324807 0.462277 0.150759
H29   H     H_    0.138308 0.653364 0.923249 0.131992
H30   H     H_    0.855237 0.677751 0.071606 0.133275
H31   H     H_    0.642216 0.170311 0.926210 0.133334
H32   H     H_    0.319248 0.267274 0.050310 0.142763
H33   H     H_    0.132320 0.641535 0.051293 0.144574
H34   H     H_    0.858968 0.665385 0.944360 0.139360
H35   H     H_    0.636218 0.154258 0.053463 0.133694
H36   H     H_    0.330817 0.229621 0.923738 0.138577
H37   H     H_    0.876676 0.884687 0.060416 0.136948
H38   H     H_    0.217490 0.857846 0.962205 0.158362
H39   H     H_    0.390215 0.412669 0.060522 0.125398
H40   H     H_    0.625306 0.378825 0.939712 0.140351
H41   H     H_    0.387549 0.604177 0.944236 0.174520
H42   H     H_    0.602318 0.550322 0.063347 0.162725
H43   H     H_    0.894997 0.070001 0.942551 0.166422
H44   H     H_    0.105215 0.946276 0.063850 0.131837
H45   H     H_    0.396799 0.438069 0.933323 0.123420
H46   H     H_    0.621851 0.387481 0.068117 0.128434
H47   H     H_    0.885532 0.904561 0.932756 0.130965
H48   H     H_    0.199868 0.908103 0.085546 0.138451
O1    O     O_R   0.214300 0.709080 0.827500 -0.535048
O2    O     O_R   0.785700 0.709080 0.172500 -0.527702
O3    O     O_R   0.714300 0.209080 0.827500 -0.537709
O4    O     O_R   0.285700 0.209080 0.172500 -0.537340
O5    O     O_R   0.445900 0.919370 0.676500 -0.481027
O6    O     O_R   0.554100 0.919370 0.323500 -0.479229
O7    O     O_R   0.945900 0.419370 0.676500 -0.470189
O8    O     O_R   0.054100 0.419370 0.323500 -0.458674
O9    O     O_R   0.456660 0.717710 0.669820 -0.552551
O10   O     O_R   0.543340 0.717710 0.330180 -0.547726
O11   O     O_R   0.956660 0.217710 0.669820 -0.536470
O12   O     O_R   0.043340 0.217710 0.330180 -0.535142
O13   O     O_R   0.320590 0.625770 0.672930 -0.530273
O14   O     O_R   0.679410 0.625770 0.327070 -0.500771
O15   O     O_R   0.820590 0.125770 0.672930 -0.490175
O16   O     O_R   0.179410 0.125770 0.327070 -0.486659
O17   O     O_3   0.334270 0.834280 0.749190 -0.259705
O18   O     O_3   0.665730 0.834280 0.250810 -0.272423
O19   O     O_3   0.834270 0.334280 0.749190 -0.273723
O20   O     O_3   0.165730 0.334280 0.250810 -0.288455
O21   O     O_R   0.236190 0.958390 0.823150 -0.499193
O22   O     O_R   0.763810 0.958390 0.176850 -0.498416
O23   O     O_R   0.736190 0.458390 0.823150 -0.501361
O24   O     O_R   0.263810 0.458390 0.176850 -0.512391
O25   O     O_R   0.332090 0.075280 0.831290 -0.538439
O26   O     O_R   0.667910 0.075280 0.168710 -0.539963
O27   O     O_R   0.832090 0.575280 0.831290 -0.529812
O28   O     O_R   0.167910 0.575280 0.168710 -0.538492
O29   O     O_R   0.446280 0.918040 0.826620 -0.509568
O30   O     O_R   0.553720 0.918040 0.173380 -0.515442
O31   O     O_R   0.946280 0.418040 0.826620 -0.511573
O32   O     O_R   0.053720 0.418040 0.173380 -0.509459
O33   O     O_R   0.457080 0.716270 0.831760 -0.533011
O34   O     O_R   0.542920 0.716270 0.168240 -0.531415
O35   O     O_R   0.957080 0.216270 0.831760 -0.526165
O36   O     O_R   0.042920 0.216270 0.168240 -0.531918
O37   O     O_R   0.320980 0.624440 0.823040 -0.501372
O38   O     O_R   0.679020 0.624440 0.176960 -0.505480
O39   O     O_R   0.820980 0.124440 0.823040 -0.495513
O40   O     O_R   0.179020 0.124440 0.176960 -0.509536
O41   O     O_R   0.213880 0.710510 0.665560 -0.541872
O42   O     O_R   0.786120 0.710510 0.334440 -0.529939
O43   O     O_R   0.713880 0.210510 0.665560 -0.554363
O44   O     O_R   0.286120 0.210510 0.334440 -0.548877
O45   O     O_R   0.235800 0.959720 0.673040 -0.513533
O46   O     O_R   0.764200 0.959720 0.326960 -0.520601
O47   O     O_R   0.735800 0.459720 0.673040 -0.530938
O48   O     O_R   0.264200 0.459720 0.326960 -0.525182
O49   O     O_R   0.331670 0.076720 0.669350 -0.557738
O50   O     O_R   0.668330 0.076720 0.330650 -0.548650
O51   O     O_R   0.831670 0.576720 0.669350 -0.484493
O52   O     O_R   0.168330 0.576720 0.330650 -0.517324
O53   O     O_3   0.513040 0.046388 0.572485 -0.552321
C121  C     C_3   0.570880 0.039534 0.623061 0.009520
H49   H     H_    0.621605 0.049649 0.595421 0.116814
H50   H     H_    0.576324 0.953717 0.651861 0.108060
C122  C     C_3   0.562514 0.132626 0.681847 -0.336764
H51   H     H_    0.514320 0.113603 0.712395 0.142811
H52   H     H_    0.607635 0.127273 0.720846 0.140688
H53   H     H_    0.559360 0.223699 0.658615 0.147312
O54   O     O_3   0.476766 0.036786 0.421555 -0.558071
C123  C     C_3   0.422157 0.015182 0.367876 -0.000704
H54   H     H_    0.368937 0.015782 0.391541 0.133254
H55   H     H_    0.422224 0.927266 0.340978 0.108639
C124  C     C_3   0.427139 0.108374 0.308386 -0.333893
H56   H     H_    0.477292 0.097533 0.279516 0.145105
H57   H     H_    0.383015 0.095966 0.268709 0.148372
H58   H     H_    0.425191 0.200117 0.331014 0.151149
O55   O     O_3   0.007019 0.552477 0.579730 -0.552088
C125  C     C_3   0.062892 0.574952 0.629572 0.020006
H59   H     H_    0.113465 0.585645 0.601228 0.155199
H60   H     H_    0.069893 0.501579 0.669521 0.126998
C126  C     C_3   0.046227 0.688934 0.670627 -0.340529
H61   H     H_    0.994017 0.680285 0.696186 0.163094
H62   H     H_    0.086917 0.704767 0.713499 0.131262
H63   H     H_    0.044678 0.766720 0.633457 0.129583
O56   O     O_3   0.029345 0.551343 0.434265 -0.537349
C127  C     C_3   0.961591 0.593051 0.413468 0.021240
H64   H     H_    0.933385 0.624722 0.461389 0.159527
H65   H     H_    0.929397 0.522567 0.385642 0.130881
C128  C     C_3   0.969686 0.697055 0.361666 -0.377697
H66   H     H_    0.997225 0.666007 0.313130 0.153585
H67   H     H_    0.917243 0.732135 0.344694 0.137777
H68   H     H_    0.000148 0.770560 0.387925 0.127647
O57   O     O_3   0.179641 0.887266 0.385468 -0.576519
C129  C     C_3   0.192395 0.862745 0.312035 0.024719
H69   H     H_    0.221357 0.778165 0.302719 0.120793
H70   H     H_    0.227909 0.933000 0.291334 0.177796
C130  C     C_3   0.123759 0.864542 0.267511 -0.340760
H71   H     H_    0.092953 0.946543 0.279049 0.174250
H72   H     H_    0.135762 0.862542 0.209409 0.098387
H73   H     H_    0.091669 0.784857 0.280057 0.121052
O58   O     O_3   0.817890 0.836287 0.621687 -0.547979
C131  C     C_3   0.744444 0.861478 0.622960 0.008834
H74   H     H_    0.711102 0.812387 0.583323 0.115476
H75   H     H_    0.735898 0.956840 0.610403 0.146141
C132  C     C_3   0.718489 0.838783 0.698746 -0.348128
H76   H     H_    0.737589 0.910818 0.735456 0.164216
H77   H     H_    0.660062 0.835942 0.698994 0.070530
H78   H     H_    0.738474 0.751956 0.719599 0.176051
O59   O     O_3   0.620877 0.343972 0.397746 -0.567217
C133  C     C_3   0.596681 0.307680 0.328682 0.011547
H79   H     H_    0.566386 0.222520 0.329417 0.154860
H80   H     H_    0.642573 0.298070 0.292956 0.167768
C134  C     C_3   0.546910 0.401624 0.296967 -0.373448
H81   H     H_    0.573612 0.489507 0.295239 0.214997
H82   H     H_    0.530546 0.375794 0.241383 0.071279
H83   H     H_    0.498965 0.408804 0.329924 0.128524
O60   O     O_3   0.396614 0.326972 0.593377 -0.588675
C135  C     C_3   0.398108 0.313595 0.668772 -0.005484
H84   H     H_    0.420776 0.226547 0.685598 0.164474
H85   H     H_    0.343814 0.322970 0.689700 0.153104
C136  C     C_3   0.445066 0.409533 0.702584 -0.367149
H86   H     H_    0.425642 0.498765 0.686652 0.215412
H87   H     H_    0.444716 0.401934 0.762098 0.082897
H88   H     H_    0.500115 0.400283 0.684253 0.121952
H89   H     H_    0.127849 0.750172 0.532249 0.121880
H90   H     H_    0.870737 0.824749 0.454753 0.102430
H91   H     H_    0.621784 0.223512 0.554507 0.134702
H92   H     H_    0.382638 0.166667 0.452361 0.163216
H93   H     H_    0.512934 0.042257 0.040605 0.111521
H94   H     H_    0.602459 0.930170 0.934614 0.117200
H95   H     H_    0.923789 0.469768 0.059127 0.117891
H96   H     H_    0.024083 0.530851 0.951304 0.106884
H97   H     H_    0.502804 0.625464 0.959376 0.116164
H98   H     H_    0.404961 0.751702 0.060661 0.097821
H99   H     H_    0.080331 0.189276 0.937819 0.127195
H100  H     H_    0.985187 0.126872 0.045245 0.119806
H101  H     H_    0.383310 0.572821 0.075603 0.134327
H102  H     H_    0.611999 0.544290 0.933001 0.128370
H103  H     H_    0.882151 0.050412 0.072340 0.129896
H104  H     H_    0.122375 0.894318 0.940719 0.133586

loop_
_geom_bond_atom_site_label_1
_geom_bond_atom_site_label_2
_ccdc_geom_bond_type
C135  C136  S    
C83   C87   S    
C2    O22   A    
C73   C93   A    
C75   C95   A    
C48   C120  S    
C6    H98   S    
C133  H79   S    
C102  O6    A    
C63   C98   S    
C101  O9    A    
C5    C6    S    
C20   C40   A    
Cr3   O47   S    
C125  H60   S    
C104  O12   A    
C29   C33   S    
Cr1   O45   S    
C131  H74   S    
Cr7   O27   S    
Cr3   O3    S    
C72   C88   S    
C11   C15   A    
C12   C16   A    
C123  H55   S    
C55   O55   S    
Cr12  O36   S    
C107  O43   A    
C125  C126  S    
C96   C108  S    
C59   C60   S    
Cr8   O52   S    
C113  H1    S    
C124  H56   S    
C24   H32   S    
C121  H50   S    
C41   C49   A    
C109  C118  S    
C4    O28   A    
C123  C124  S    
Cr11  O35   S    
C51   C52   A    
C7    C119  S    
C103  O7    A    
C62   C66   A    
C46   O30   A    
Cr3   O43   S    
C121  C122  S    
C89   O1    A    
C34   H42   S    
C66   C82   S    
C11   C27   A    
C68   C72   A    
C64   C97   S    
C130  H72   S    
C10   C14   A    
C126  H62   S    
C58   H8    S    
Cr4   O20   S    
Cr11  O15   S    
C84   C88   S    
C99   O51   A    
C37   C89   S    
C38   C90   S    
C69   C93   A    
Cr3   O23   S    
C35   H43   S    
C18   C38   A    
Cr1   O21   S    
C134  H82   S    
C19   C35   S    
C76   C96   A    
C84   H24   S    
C44   C55   A    
C66   C70   A    
C108  O44   A    
C122  H51   S    
Cr5   O25   S    
C112  H96   S    
C87   H27   S    
Cr10  O34   S    
C88   H28   S    
C28   H36   S    
C62   C99   S    
C72   C96   A    
C61   C65   A    
C71   C95   A    
C76   H16   S    
Cr2   O42   S    
C124  H58   S    
C73   C77   A    
Cr8   O28   S    
C75   C79   A    
Cr9   O17   S    
C110  H94   S    
Cr10  O10   S    
C60   H6    S    
C22   C38   A    
C67   C83   S    
C47   O31   A    
Cr11  O19   S    
C111  C112  S    
C43   C51   A    
C7    C8    S    
C106  O14   A    
C53   C54   A    
C46   C118  S    
O55   C125  S    
C64   C68   A    
Cr3   O19   S    
Cr4   O4    S    
Cr5   O49   S    
C42   C53   A    
C128  H66   S    
C83   H23   S    
Cr12  O20   S    
C81   H21   S    
C41   C102  S    
Cr5   O5    S    
O56   C127  S    
Cr10  O38   S    
C43   C104  S    
C9    C13   A    
C52   C60   S    
C98   O50   A    
C85   H89   S    
Cr4   O44   S    
C61   C77   A    
Cr9   O9    S    
C2    O26   A    
O53   C121  S    
C110  C114  S    
Cr6   O18   S    
C59   H11   S    
C132  H76   S    
C81   O57   S    
C1    C12   S    
C101  O5    A    
C2    C11   S    
C44   C103  S    
C35   H47   S    
C104  O8    A    
C30   C34   S    
C33   H45   S    
C48   O32   A    
C92   O4    A    
Cr5   O29   S    
C31   H103  S    
C32   H104  S    
C45   O29   A    
C116  C120  S    
C73   H13   S    
Cr12  O40   S    
C7    C116  S    
C136  H86   S    
C18   C34   S    
Cr7   O7    S    
O60   C135  S    
C114  H2    S    
C29   H39   S    
C30   H40   S    
C129  H70   S    
C42   C50   A    
C113  C117  S    
C115  C119  S    
C22   C26   A    
C61   C100  S    
C103  O11   A    
C42   C101  S    
C112  C116  S    
C69   C85   S    
C45   C117  S    
C21   C25   A    
C62   C78   A    
C76   C80   A    
C129  C130  S    
Cr7   O19   S    
C128  H68   S    
C32   C36   S    
C15   C31   S    
C16   C32   S    
C133  H80   S    
C13   C17   A    
C132  H77   S    
C127  H64   S    
C57   C58   S    
C115  H3    S    
C105  O41   A    
C131  H75   S    
Cr9   O33   S    
C90   O38   A    
C133  C134  S    
C49   C50   A    
C132  H78   S    
C4    C9    S    
C81   C85   S    
C30   H102  S    
C97   O45   A    
C55   C56   A    
C91   O3    A    
C131  C132  S    
C3    O23   A    
C74   C94   A    
C56   O56   S    
C36   H48   S    
C1    O21   A    
C9    C25   A    
C15   C19   A    
C78   H18   S    
C29   H101  S    
C12   C28   A    
C13   C29   S    
C70   C94   A    
C136  H88   S    
C22   H30   S    
Cr2   O46   S    
C57   H7    S    
C135  H84   S    
C39   C91   S    
C100  O48   A    
Cr9   O37   S    
C26   H34   S    
C47   O35   A    
C88   H92   S    
C108  O16   A    
C130  H71   S    
C64   C80   A    
C17   C33   S    
C110  C117  S    
C109  H93   S    
C68   C84   S    
C54   O54   S    
C24   C28   A    
Cr6   O6    S    
C82   O58   S    
C77   H17   S    
C31   H37   S    
C75   H15   S    
C125  H59   S    
C86   H90   S    
C50   C58   S    
Cr8   O20   S    
C134  H81   S    
C126  H63   S    
C7    H99   S    
C58   H10   S    
C65   C81   S    
C123  H54   S    
C95   C107  S    
C71   C87   S    
C36   H44   S    
Cr11  O11   S    
C124  H57   S    
C31   C35   S    
C34   H46   S    
C121  H49   S    
C85   H25   S    
C32   H38   S    
C53   O53   S    
Cr1   O1    S    
Cr8   O8    S    
C74   H14   S    
Cr10  O14   S    
C112  C119  S    
C116  H4    S    
C8    H100  S    
C57   H9    S    
C25   H33   S    
Cr2   O22   S    
C82   C86   S    
C109  C110  S    
Cr8   O32   S    
C5    H97   S    
C126  H61   S    
Cr6   O26   S    
C65   C69   A    
C102  O10   A    
C67   C71   A    
C20   C36   S    
C21   C37   A    
C74   C78   A    
C130  H73   S    
Cr1   O41   S    
C48   O36   A    
C5    C114  S    
C14   C18   A    
C107  O15   A    
C49   C57   S    
C45   O33   A    
C63   C79   A    
C105  O13   A    
Cr4   O24   S    
Cr6   O50   S    
O54   C123  S    
C134  H83   S    
C111  H95   S    
C4    O24   A    
C59   H5    S    
Cr11  O39   S    
C92   O40   A    
C8    C115  S    
C93   C105  S    
C97   O49   A    
C84   O60   S    
C90   O2    A    
C46   O34   A    
C23   C27   A    
C1    O25   A    
O57   C129  S    
C16   C20   A    
C10   C26   A    
C47   C119  S    
Cr5   O17   S    
C14   C30   S    
Cr4   O48   S    
C23   H31   S    
C63   C67   A    
C21   H29   S    
C100  O52   A    
Cr6   O30   S    
C128  H67   S    
O59   C133  S    
C5    C117  S    
C111  C120  S    
C127  H65   S    
C6    C113  S    
C83   O59   S    
Cr7   O51   S    
O58   C131  S    
C17   C37   A    
C40   C92   S    
C86   H26   S    
Cr1   O17   S    
C114  C118  S    
C19   C39   A    
Cr7   O31   S    
C60   H12   S    
C122  H52   S    
C122  H53   S    
C127  C128  S    
C51   C59   S    
C70   C86   S    
C33   H41   S    
C8    C120  S    
C79   H19   S    
C80   H20   S    
Cr12  O12   S    
C94   C106  S    
Cr9   O13   S    
C109  C113  S    
C87   H91   S    
C136  H87   S    
C3    C10   S    
Cr2   O18   S    
C44   C52   A    
C106  O42   A    
C23   C39   A    
C3    O27   A    
C24   C40   A    
C135  H85   S    
C91   O39   A    
C99   O47   A    
C41   C54   A    
C129  H69   S    
C89   O37   A    
C82   H22   S    
C43   C56   A    
Cr2   O2    S    
Cr12  O16   S    
C111  C115  S    
Cr10  O18   S    
C6    C118  S    
C27   H35   S    
C98   O46   A    
