data_mof_unit_64567.cif
_audit_creation_date              2012-12-10T20:13:00-0500
_audit_creation_method            fapswitch 2.2
_symmetry_space_group_name_H-M    P1
_symmetry_Int_Tables_number       1
_space_group_crystal_system       triclinic
_cell_length_a                    42.077316
_cell_length_b                    35.517219
_cell_length_c                    35.52639
_cell_angle_alpha                 90.000036
_cell_angle_beta                  148.967931
_cell_angle_gamma                 90.0
_cell_volume                      27370.4345507

loop_
_atom_site_label
_atom_site_type_symbol
_atom_type_description
_atom_site_fract_x
_atom_site_fract_y
_atom_site_fract_z
_atom_type_partial_charge
C1    C     C_R   0.999256 0.000011 0.072664 0.874005
C2    C     C_R   0.719050 0.978122 0.743701 0.089887
C3    C     C_R   0.456378 0.673617 0.434411 -0.211398
C4    C     C_R   0.044020 0.134336 0.566171 0.048456
C5    C     C_R   0.955980 0.134336 0.433829 0.048456
C6    C     C_R   0.543979 0.634322 0.566161 0.048389
C7    C     C_R   0.456021 0.634322 0.433839 0.048389
C8    C     C_R   0.000000 0.114476 0.500000 -0.040001
C9    C     C_R   0.500000 0.614466 0.500000 -0.039945
C10   C     C_R   0.000000 0.192976 0.500000 0.107231
C11   C     C_R   0.500000 0.692956 0.500000 0.107263
C12   C     C_1   0.000000 0.232928 0.500000 -0.043040
C13   C     C_R   0.780709 0.479170 0.255203 0.092017
C14   C     C_1   0.500000 0.732902 0.500000 -0.043130
C15   C     C_1   0.500000 0.766502 0.500000 0.048960
C16   C     C_1   0.000000 0.266531 0.500000 0.048980
C17   C     C_R   0.533506 0.825952 0.561614 0.041273
C18   C     C_R   0.466494 0.825952 0.438385 0.041273
C19   C     C_R   0.034283 0.325991 0.562048 0.041720
C20   C     C_R   0.965717 0.325991 0.437952 0.041721
C21   C     C_R   0.228913 0.072625 0.306843 0.181022
C22   C     C_R   0.771087 0.072625 0.693157 0.181023
C23   C     C_R   0.729028 0.569468 0.309887 0.184506
C24   C     C_R   0.219291 0.479170 0.744797 0.092017
C25   C     C_R   0.270972 0.569467 0.690113 0.184506
C26   C     C_R   0.533756 0.865549 0.561897 0.008321
C27   C     C_R   0.466244 0.865549 0.438103 0.008322
C28   C     C_R   0.034523 0.365590 0.562315 0.008188
C29   C     C_R   0.965477 0.365590 0.437684 0.008188
C30   C     C_R   0.500000 0.885303 0.500000 -0.095292
C31   C     C_R   1.000000 0.385329 0.500000 -0.094986
C32   C     C_R   0.500000 0.806642 0.500000 0.087041
C33   C     C_R   0.000000 0.306676 0.500000 0.086950
C34   C     C_R   0.944056 0.826677 0.443380 -0.167532
C35   C     C_R   0.313886 0.003390 0.312175 -0.142237
C36   C     C_R   0.055944 0.826677 0.556619 -0.167532
C37   C     C_R   0.444086 0.326364 0.443275 -0.166978
C38   C     C_R   0.555913 0.326365 0.556726 -0.166979
C39   C     C_R   0.943973 0.865813 0.443298 -0.203036
C40   C     C_R   0.056027 0.865813 0.556702 -0.203035
C41   C     C_R   0.444008 0.365557 0.443200 -0.201899
C42   C     C_R   0.555992 0.365557 0.556800 -0.201899
C43   C     C_R   1.000000 0.885655 0.500000 -0.035910
C44   C     C_R   0.500000 0.385467 0.500000 -0.037191
C45   C     C_R   1.000000 0.807286 0.500000 0.162033
C46   C     C_R   0.686114 0.003390 0.687825 -0.142237
C47   C     C_R   0.500000 0.306885 0.500000 0.161687
C48   C     C_1   1.000000 0.767363 0.500000 -0.077610
C49   C     C_1   0.500000 0.266817 0.500000 -0.077337
C50   C     C_1   0.500000 0.233144 0.500000 -0.045448
C51   C     C_1   1.000000 0.733777 0.500000 -0.044301
C52   C     C_R   0.461095 0.173651 0.436031 -0.217190
C53   C     C_R   0.538905 0.173651 0.563970 -0.217189
C54   C     C_R   0.981872 0.674539 0.513787 -0.220818
C55   C     C_R   0.018127 0.674539 0.486213 -0.220818
C56   C     C_R   0.288748 0.080652 0.355687 -0.226216
C57   C     C_R   0.813788 0.503575 0.312134 -0.145759
C58   C     C_R   0.711253 0.080652 0.644313 -0.226216
C59   C     C_R   0.788793 0.577976 0.358958 -0.224352
C60   C     C_R   0.211207 0.577976 0.641042 -0.224352
C61   C     C_R   0.460778 0.134312 0.435514 0.045295
C62   C     C_R   0.539222 0.134312 0.564486 0.045296
C63   C     C_R   0.981514 0.635256 0.513786 0.058223
C64   C     C_R   0.018486 0.635256 0.486214 0.058223
C65   C     C_R   0.500000 0.114479 0.500000 -0.037307
C66   C     C_R   0.000000 0.615073 0.500000 -0.050002
C67   C     C_R   0.500000 0.193072 0.500000 0.116473
C68   C     C_R   0.186212 0.503575 0.687866 -0.145758
C69   C     C_R   1.000000 0.693844 0.500000 0.118146
C70   C     C_R   0.316556 0.058436 0.356714 -0.176370
C71   C     C_R   0.683444 0.058436 0.643287 -0.176372
C72   C     C_R   0.816465 0.557015 0.358807 -0.175001
C73   C     C_R   0.183536 0.557015 0.641193 -0.175000
C74   C     C_R   0.284027 0.028731 0.306241 0.035602
C75   C     C_R   0.715973 0.028731 0.693758 0.035602
C76   C     C_R   0.783955 0.528000 0.307202 0.035400
C77   C     C_R   0.216045 0.528000 0.692798 0.035399
C78   C     C_R   0.220736 0.024024 0.249244 -0.000676
C79   C     C_R   0.948941 0.985031 0.274109 -0.225723
C80   C     C_R   0.779264 0.024024 0.750756 -0.000676
C81   C     C_R   0.720682 0.523035 0.250075 -0.000430
C82   C     C_R   0.279318 0.523035 0.749925 -0.000430
C83   C     C_R   0.186920 0.999704 0.190397 -0.168369
C84   C     C_R   0.813080 0.999704 0.809603 -0.168369
C85   C     C_R   0.686825 0.499687 0.190312 -0.165855
C86   C     C_R   0.313175 0.499687 0.809688 -0.165855
C87   C     C_R   0.051059 0.985031 0.725891 -0.225723
C88   C     C_R   0.448910 0.484981 0.274091 -0.225685
C89   C     C_R   0.000743 0.000011 0.927336 0.874007
C90   C     C_R   0.551090 0.484981 0.725909 -0.225685
C91   C     C_R   0.947897 0.984146 0.312424 0.107867
C92   C     C_R   0.052103 0.984146 0.687576 0.107866
C93   C     C_R   0.447887 0.484107 0.312427 0.107972
C94   C     C_R   0.552113 0.484107 0.687573 0.107971
C95   C     C_R   0.998025 0.999635 0.383479 -0.101730
C96   C     C_R   0.001975 0.999635 0.616521 -0.101729
C97   C     C_R   0.498016 0.499613 0.383470 -0.101763
C98   C     C_R   0.501984 0.499613 0.616530 -0.101762
C99   C     C_R   0.048229 0.015217 0.414947 -0.220908
C100  C     C_R   0.499088 0.500009 0.072492 0.872342
C101  C     C_R   0.951771 0.015217 0.585053 -0.220908
C102  C     C_R   0.548206 0.515194 0.414910 -0.220944
C103  C     C_R   0.451794 0.515194 0.585090 -0.220944
C104  C     C_R   0.049055 0.015921 0.376655 0.124807
C105  C     C_R   0.950945 0.015921 0.623345 0.124806
C106  C     C_R   0.549011 0.515888 0.376596 0.124906
C107  C     C_R   0.450989 0.515888 0.623405 0.124907
C108  C     C_R   0.999042 0.000706 0.305956 0.083850
C109  C     C_R   0.000958 0.000706 0.694044 0.083850
C110  C     C_R   0.498992 0.500662 0.305905 0.083888
C111  C     C_R   0.500911 0.500009 0.927508 0.872343
C112  C     C_R   0.501008 0.500662 0.694095 0.083888
C113  C     C_1   0.998830 0.000574 0.265702 -0.061240
C114  C     C_1   0.001170 0.000573 0.734298 -0.061240
C115  C     C_1   0.498743 0.500530 0.265613 -0.061142
C116  C     C_1   0.501257 0.500530 0.734387 -0.061142
C117  C     C_R   0.120380 0.999987 0.122069 0.885350
C118  C     C_R   0.879620 0.999986 0.877930 0.885349
C119  C     C_R   0.620342 0.499983 0.122102 0.884371
C120  C     C_R   0.379658 0.499983 0.877898 0.884370
C121  C     C_1   0.998966 0.000422 0.232243 -0.048528
C122  C     C_R   0.217270 0.977393 0.193870 0.041019
C123  C     C_1   0.001034 0.000422 0.767757 -0.048528
C124  C     C_1   0.498836 0.500384 0.232110 -0.048390
C125  C     C_1   0.501164 0.500383 0.767890 -0.048390
C126  C     C_R   0.991832 0.966128 0.165292 0.087783
C127  C     C_R   0.008167 0.966128 0.834708 0.087783
C128  C     C_R   0.491502 0.466117 0.164948 0.087813
C129  C     C_R   0.508498 0.466117 0.835052 0.087813
C130  C     C_R   0.991969 0.966271 0.126272 -0.185621
C131  C     C_R   0.008031 0.966271 0.873728 -0.185623
C132  C     C_R   0.491619 0.466270 0.125908 -0.185066
C133  C     C_R   0.782730 0.977393 0.806130 0.041019
C134  C     C_R   0.508381 0.466270 0.874092 -0.185067
C135  C     C_R   0.999272 0.000089 0.113861 -0.110243
C136  C     C_R   0.000728 0.000089 0.886139 -0.110242
C137  C     C_R   0.499043 0.500083 0.113629 -0.109279
C138  C     C_R   0.500957 0.500082 0.886371 -0.109279
C139  C     C_R   0.006756 0.034012 0.141141 -0.221913
C140  C     C_R   0.993244 0.034012 0.858859 -0.221912
C141  C     C_R   0.506640 0.533992 0.141030 -0.221104
C142  C     C_R   0.493360 0.533992 0.858970 -0.221103
C143  C     C_R   0.007189 0.034348 0.180932 0.125156
C144  C     C_R   0.717029 0.478404 0.192810 0.040099
C145  C     C_R   0.992812 0.034348 0.819068 0.125155
C146  C     C_R   0.507108 0.534316 0.180856 0.125614
C147  C     C_R   0.492892 0.534316 0.819144 0.125613
C148  C     C_R   0.999375 0.000271 0.192534 0.085678
C149  C     C_R   0.000625 0.000271 0.807466 0.085679
C150  C     C_R   0.499191 0.500244 0.192346 0.085706
C151  C     C_R   0.500809 0.500244 0.807654 0.085707
C152  C     C_R   0.500000 0.926611 0.500000 0.952714
C153  C     C_R   1.000000 0.426621 0.500000 0.953828
C154  C     C_R   0.379916 0.000944 0.379380 0.912263
C155  C     C_R   0.282970 0.478404 0.807189 0.040098
C156  C     C_R   0.620084 0.000944 0.620619 0.912264
C157  C     C_R   0.879881 0.501041 0.379353 0.906611
C158  C     C_R   0.120118 0.501041 0.620647 0.906611
C159  C     C_R   0.500000 0.073315 0.500000 0.883500
C160  C     C_R   0.000000 0.573530 0.500000 0.864838
C161  C     C_R   0.195279 0.043688 0.255072 0.103343
C162  C     C_R   0.804721 0.043688 0.744928 0.103343
C163  C     C_R   0.695292 0.541423 0.256740 0.099320
C164  C     C_R   0.304708 0.541423 0.743260 0.099320
C165  C     C_R   1.000000 0.926820 0.500000 0.852998
C166  C     C_R   0.280950 0.978122 0.256299 0.089887
C167  C     C_R   0.500000 0.426755 0.500000 0.851486
C168  C     C_R   0.999299 0.999764 0.426001 0.882997
C169  C     C_R   0.000701 0.999764 0.573998 0.882998
C170  C     C_R   0.499298 0.499759 0.426001 0.883151
C171  C     C_R   0.500702 0.499759 0.573999 0.883151
C172  C     C_R   0.000000 0.073309 0.500000 0.914575
C173  C     C_R   0.500000 0.573305 0.500000 0.914678
C174  C     C_R   0.043663 0.173633 0.565598 -0.211351
C175  C     C_R   0.956337 0.173633 0.434402 -0.211351
C176  C     C_R   0.543622 0.673617 0.565589 -0.211398
H1    H     H_    0.900650 0.811565 0.399447 0.134174
H2    H     H_    0.163210 0.931926 0.127256 0.214343
H3    H     H_    0.083216 0.625439 0.512275 0.167365
H4    H     H_    0.165385 0.108860 0.262406 0.171595
H5    H     H_    0.233555 0.112239 0.353564 0.171855
H6    H     H_    0.834615 0.108860 0.737595 0.171595
H7    H     H_    0.766446 0.112239 0.646436 0.171855
H8    H     H_    0.665633 0.604890 0.267153 0.172109
H9    H     H_    0.733811 0.607198 0.358454 0.170083
H10   H     H_    0.334367 0.604890 0.732847 0.172109
H11   H     H_    0.266189 0.607198 0.641547 0.170082
H12   H     H_    0.314967 0.103140 0.395242 0.143330
H13   H     H_    0.836790 0.931926 0.872743 0.214343
H14   H     H_    0.685033 0.103140 0.604758 0.143329
H15   H     H_    0.814944 0.599865 0.399430 0.134531
H16   H     H_    0.185056 0.599864 0.600570 0.134532
H17   H     H_    0.363703 0.064998 0.397050 0.154128
H18   H     H_    0.636297 0.064998 0.602950 0.154128
H19   H     H_    0.863493 0.563987 0.399170 0.162481
H20   H     H_    0.136507 0.563987 0.600831 0.162481
H21   H     H_    0.300360 0.925204 0.258300 0.183732
H22   H     H_    0.298142 0.957972 0.221359 0.206417
H23   H     H_    0.701858 0.957972 0.778641 0.206417
H24   H     H_    0.848503 0.970052 0.913331 0.192920
H25   H     H_    0.699639 0.925204 0.741700 0.183732
H26   H     H_    0.799835 0.426900 0.254966 0.183985
H27   H     H_    0.797660 0.460922 0.219299 0.205936
H28   H     H_    0.200165 0.426900 0.745034 0.183985
H29   H     H_    0.202340 0.460922 0.780701 0.205936
H30   H     H_    0.910990 0.973128 0.219682 0.138817
H31   H     H_    0.089010 0.973128 0.780317 0.138817
H32   H     H_    0.410955 0.473069 0.219670 0.138778
H33   H     H_    0.589045 0.473069 0.780329 0.138778
H34   H     H_    0.913566 0.941957 0.309185 0.177721
H35   H     H_    0.651108 0.472592 0.085319 0.191902
H36   H     H_    0.862661 0.958902 0.226312 0.173420
H37   H     H_    0.086434 0.941957 0.690815 0.177721
H38   H     H_    0.137339 0.958902 0.773688 0.173420
H39   H     H_    0.413593 0.441921 0.309245 0.177613
H40   H     H_    0.362664 0.458845 0.226352 0.173289
H41   H     H_    0.586406 0.441921 0.690754 0.177613
H42   H     H_    0.637335 0.458845 0.773648 0.173289
H43   H     H_    0.662592 0.433522 0.124351 0.214072
H44   H     H_    0.348892 0.472591 0.914681 0.191902
H45   H     H_    0.337407 0.433522 0.875649 0.214072
H46   H     H_    0.120550 0.011696 0.412930 0.187975
H47   H     H_    0.085194 0.054206 0.377443 0.189818
H48   H     H_    0.879450 0.011696 0.587070 0.187976
H49   H     H_    0.099350 0.811565 0.600553 0.134174
H50   H     H_    0.914806 0.054206 0.622557 0.189819
H51   H     H_    0.620484 0.511667 0.412833 0.188047
H52   H     H_    0.585112 0.554171 0.377331 0.189735
H53   H     H_    0.379517 0.511667 0.587168 0.188048
H54   H     H_    0.414889 0.554172 0.622670 0.189734
H55   H     H_    0.944873 0.933093 0.154085 0.187844
H56   H     H_    0.022262 0.926652 0.232758 0.189774
H57   H     H_    0.055126 0.933093 0.845915 0.187844
H58   H     H_    0.977738 0.926652 0.767241 0.189774
H59   H     H_    0.444449 0.433138 0.153651 0.187799
H60   H     H_    0.400664 0.311274 0.399215 0.132991
H61   H     H_    0.521813 0.426588 0.232273 0.189958
H62   H     H_    0.555551 0.433138 0.846349 0.187799
H63   H     H_    0.478187 0.426588 0.767727 0.189958
H64   H     H_    0.986015 0.939881 0.105364 0.172902
H65   H     H_    0.013985 0.939881 0.894635 0.172902
H66   H     H_    0.485567 0.439892 0.104894 0.172872
H67   H     H_    0.514433 0.439892 0.895106 0.172872
H68   H     H_    0.012742 0.060199 0.132014 0.157013
H69   H     H_    0.987259 0.060199 0.867986 0.157014
H70   H     H_    0.512720 0.560174 0.132005 0.156690
H71   H     H_    0.599336 0.311274 0.600785 0.132991
H72   H     H_    0.487280 0.560174 0.867995 0.156691
H73   H     H_    0.017015 0.091838 0.192580 0.177915
H74   H     H_    0.057933 0.067884 0.266164 0.182397
H75   H     H_    0.982986 0.091838 0.807421 0.177915
H76   H     H_    0.942068 0.067884 0.733837 0.182397
H77   H     H_    0.517155 0.591791 0.192741 0.177683
H78   H     H_    0.558024 0.567770 0.266247 0.182263
H79   H     H_    0.482845 0.591791 0.807259 0.177683
H80   H     H_    0.441976 0.567770 0.733753 0.182263
H81   H     H_    0.077247 0.188997 0.616273 0.144001
H82   H     H_    0.086793 0.027254 0.469303 0.175510
H83   H     H_    0.922753 0.188997 0.383727 0.144001
H84   H     H_    0.577173 0.688982 0.616255 0.143957
H85   H     H_    0.422827 0.688982 0.383744 0.143957
H86   H     H_    0.132153 0.122879 0.669911 0.190803
H87   H     H_    0.082020 0.123275 0.655457 0.182503
H88   H     H_    0.867847 0.122879 0.330089 0.190803
H89   H     H_    0.917980 0.123275 0.344542 0.182504
H90   H     H_    0.632083 0.622863 0.669937 0.190765
H91   H     H_    0.581878 0.623258 0.655374 0.182520
H92   H     H_    0.367917 0.622862 0.330064 0.190765
H93   H     H_    0.913207 0.027254 0.530697 0.175510
H94   H     H_    0.418122 0.623258 0.344626 0.182520
H95   H     H_    0.551245 0.812445 0.634076 0.183953
H96   H     H_    0.613929 0.812043 0.668983 0.181183
H97   H     H_    0.448755 0.812445 0.365924 0.183954
H98   H     H_    0.386071 0.812043 0.331017 0.181183
H99   H     H_    0.053554 0.312488 0.635869 0.183920
H100  H     H_    0.115423 0.312107 0.669300 0.181324
H101  H     H_    0.946445 0.312489 0.364131 0.183920
H102  H     H_    0.884576 0.312107 0.330700 0.181324
H103  H     H_    0.615483 0.877891 0.669786 0.173792
H104  H     H_    0.586771 0.527242 0.469259 0.175443
H105  H     H_    0.553596 0.878805 0.636275 0.188539
H106  H     H_    0.384516 0.877891 0.330214 0.173793
H107  H     H_    0.446404 0.878805 0.363725 0.188539
H108  H     H_    0.116953 0.377990 0.669996 0.173405
H109  H     H_    0.055955 0.378858 0.638081 0.188771
H110  H     H_    0.883047 0.377990 0.330003 0.173405
H111  H     H_    0.944045 0.378858 0.361919 0.188771
H112  H     H_    0.130912 0.003556 0.203970 0.175065
H113  H     H_    0.104265 0.049271 0.171291 0.219073
H114  H     H_    0.869088 0.003556 0.796030 0.175064
H115  H     H_    0.413229 0.527242 0.530742 0.175443
H116  H     H_    0.895735 0.049271 0.828709 0.219074
H117  H     H_    0.630792 0.501004 0.204107 0.176189
H118  H     H_    0.604279 0.546825 0.172008 0.218416
H119  H     H_    0.369208 0.501004 0.795893 0.176188
H120  H     H_    0.395721 0.546825 0.827992 0.218416
H121  H     H_    0.900184 0.880458 0.398961 0.158678
H122  H     H_    0.099816 0.880458 0.601038 0.158677
H123  H     H_    0.400220 0.380202 0.398757 0.158052
H124  H     H_    0.599780 0.380202 0.601243 0.158052
H125  H     H_    0.430795 0.188981 0.386457 0.139536
H126  H     H_    0.151496 0.970052 0.086669 0.192920
H127  H     H_    0.569205 0.188981 0.613544 0.139536
H128  H     H_    0.967654 0.689956 0.524236 0.139004
H129  H     H_    0.032345 0.689956 0.475763 0.139004
H130  H     H_    0.374491 0.122993 0.329825 0.179496
H131  H     H_    0.428952 0.122800 0.351052 0.191251
H132  H     H_    0.625510 0.122992 0.670172 0.179496
H133  H     H_    0.571052 0.122800 0.648950 0.191252
H134  H     H_    0.990143 0.624229 0.578058 0.189110
H135  H     H_    0.916784 0.625439 0.487726 0.167365
H136  H     H_    0.009857 0.624229 0.421943 0.189110
N1    N     N_3   0.184497 0.953954 0.134351 -0.473056
N2    N     N_3   0.016095 0.931024 0.823449 -0.465067
N3    N     N_3   0.483458 0.431019 0.176081 -0.464945
N4    N     N_3   0.516543 0.431019 0.823919 -0.464946
N5    N     N_3   0.015094 0.069061 0.209244 -0.453450
N6    N     N_3   0.984907 0.069061 0.790757 -0.453450
N7    N     N_3   0.515171 0.569011 0.209335 -0.453369
N8    N     N_3   0.484829 0.569011 0.790665 -0.453369
N9    N     N_3   0.088004 0.114685 0.633617 -0.440116
N10   N     N_3   0.911996 0.114685 0.366383 -0.440116
N11   N     N_3   0.587917 0.614669 0.633593 -0.440176
N12   N     N_3   0.815503 0.953954 0.865648 -0.473056
N13   N     N_3   0.412083 0.614669 0.366407 -0.440177
N14   N     N_3   0.567278 0.804982 0.623631 -0.466456
N15   N     N_3   0.432722 0.804982 0.376368 -0.466457
N16   N     N_3   0.068842 0.305029 0.624504 -0.466470
N17   N     N_3   0.931158 0.305029 0.375496 -0.466470
N18   N     N_3   0.569307 0.885896 0.625334 -0.431949
N19   N     N_3   0.430692 0.885896 0.374666 -0.431950
N20   N     N_3   0.070842 0.385963 0.626132 -0.432827
N21   N     N_3   0.929158 0.385963 0.373868 -0.432828
N22   N     N_3   0.139747 0.032149 0.217058 -0.449161
N23   N     N_3   0.684059 0.455939 0.132341 -0.473190
N24   N     N_3   0.860253 0.032149 0.782942 -0.449161
N25   N     N_3   0.639360 0.529535 0.217547 -0.450263
N26   N     N_3   0.360640 0.529535 0.782453 -0.450263
N27   N     N_3   0.419470 0.114552 0.369082 -0.448769
N28   N     N_3   0.580531 0.114553 0.630918 -0.448771
N29   N     N_3   0.961333 0.616178 0.526638 -0.438890
N30   N     N_3   0.038667 0.616178 0.473362 -0.438890
N31   N     N_3   0.201954 0.093014 0.310318 -0.444000
N32   N     N_3   0.798047 0.093014 0.689682 -0.444000
N33   N     N_3   0.702139 0.588532 0.314296 -0.443526
N34   N     N_3   0.315941 0.455939 0.867658 -0.473190
N35   N     N_3   0.297861 0.588532 0.685704 -0.443525
N36   N     N_3   0.312720 0.952750 0.263717 -0.429834
N37   N     N_3   0.687279 0.952750 0.736283 -0.429833
N38   N     N_3   0.812296 0.454670 0.261490 -0.427411
N39   N     N_3   0.187704 0.454670 0.738510 -0.427411
N40   N     N_3   0.897130 0.966797 0.280299 -0.426678
N41   N     N_3   0.102870 0.966796 0.719701 -0.426678
N42   N     N_3   0.397138 0.466753 0.280334 -0.426765
N43   N     N_3   0.602862 0.466753 0.719665 -0.426765
N44   N     N_3   0.101004 0.032210 0.410506 -0.463838
N45   N     N_3   0.898996 0.032210 0.589495 -0.463839
N46   N     N_3   0.600942 0.532181 0.410413 -0.463978
N47   N     N_3   0.399059 0.532181 0.589588 -0.463978
N48   N     N_3   0.983904 0.931024 0.176550 -0.465066
O1    O     O_R   0.000000 0.031300 0.055440 -0.637444
O2    O     O_R   0.051710 0.000130 0.607150 -0.589359
O3    O     O_R   0.448290 0.500130 0.392850 -0.589347
O4    O     O_R   0.551710 0.500130 0.607150 -0.589347
O5    O     O_R   0.051750 0.055530 0.551750 -0.604695
O6    O     O_R   0.948250 0.055530 0.448250 -0.604694
O7    O     O_R   0.551750 0.555530 0.551750 -0.604765
O8    O     O_R   0.448250 0.555530 0.448250 -0.604764
O9    O     O_R   0.000010 0.968720 0.055460 -0.625546
O10   O     O_R   0.999990 0.968720 0.944540 -0.625546
O11   O     O_R   0.500010 0.468720 0.055460 -0.625578
O12   O     O_R   1.000000 0.031300 0.944560 -0.637446
O13   O     O_R   0.499990 0.468720 0.944540 -0.625578
O14   O     O_R   0.091620 0.031300 0.091630 -0.623335
O15   O     O_R   0.908380 0.031300 0.908370 -0.623335
O16   O     O_R   0.591620 0.531300 0.091630 -0.622499
O17   O     O_R   0.408380 0.531300 0.908370 -0.622498
O18   O     O_R   0.091630 0.968720 0.091640 -0.628891
O19   O     O_R   0.908370 0.968720 0.908360 -0.628891
O20   O     O_R   0.591630 0.468720 0.091640 -0.628828
O21   O     O_R   0.408370 0.468720 0.908360 -0.628828
O22   O     O_R   0.500020 0.944570 0.468740 -0.603857
O23   O     O_R   0.500000 0.531300 0.055440 -0.637227
O24   O     O_R   0.499980 0.944570 0.531260 -0.603856
O25   O     O_R   0.000020 0.444570 0.468740 -0.603678
O26   O     O_R   0.999980 0.444570 0.531260 -0.603678
O27   O     O_R   0.408390 0.000000 0.377090 -0.598160
O28   O     O_R   0.591610 0.000000 0.622910 -0.598159
O29   O     O_R   0.908390 0.500000 0.377090 -0.601726
O30   O     O_R   0.091610 0.500000 0.622910 -0.601726
O31   O     O_R   0.408390 0.000010 0.439680 -0.631565
O32   O     O_R   0.591610 0.000010 0.560320 -0.631565
O33   O     O_R   0.908390 0.500010 0.439680 -0.627924
O34   O     O_R   0.500000 0.531300 0.944560 -0.637228
O35   O     O_R   0.091610 0.500010 0.560320 -0.627924
O36   O     O_R   0.500000 0.055430 0.468690 -0.616667
O37   O     O_R   0.500000 0.055430 0.531310 -0.616667
O38   O     O_R   0.000000 0.555430 0.468690 -0.608538
O39   O     O_R   0.000000 0.555430 0.531310 -0.608539
O40   O     O_R   0.051700 0.944680 0.551720 -0.626467
O41   O     O_R   0.948300 0.944680 0.448280 -0.626467
O42   O     O_R   0.551700 0.444680 0.551720 -0.625857
O43   O     O_R   0.448300 0.444680 0.448280 -0.625858
O44   O     O_R   0.051730 0.000100 0.496300 -0.630935
O45   O     O_R   0.948270 0.000100 0.503700 -0.630935
O46   O     O_R   0.551730 0.500100 0.496300 -0.630873
O47   O     O_R   0.448270 0.500100 0.503700 -0.630873
O48   O     O_R   0.948290 0.000130 0.392850 -0.589359
Zn1   Zn    Zn3+2 0.000000 0.041790 0.000000 0.919648
Zn2   Zn    Zn3+2 0.930920 0.000100 0.430910 0.968153
Zn3   Zn    Zn3+2 0.569080 0.500100 0.569090 0.968174
Zn4   Zn    Zn3+2 0.430920 0.500100 0.430910 0.968175
Zn5   Zn    Zn3+2 0.500000 0.541790 0.000000 0.922675
Zn6   Zn    Zn3+2 1.000000 0.958220 0.000000 0.929017
Zn7   Zn    Zn3+2 0.500000 0.458220 0.000000 0.929497
Zn8   Zn    Zn3+2 0.500010 0.000000 0.458220 0.976104
Zn9   Zn    Zn3+2 0.499990 0.000000 0.541780 0.976104
Zn10  Zn    Zn3+2 0.000010 0.500000 0.458220 0.977156
Zn11  Zn    Zn3+2 0.999990 0.500000 0.541780 0.977155
Zn12  Zn    Zn3+2 0.069080 0.000100 0.569090 0.968153

loop_
_geom_bond_atom_site_label_1
_geom_bond_atom_site_label_2
_ccdc_geom_bond_type
C10   C174  A    
C173  O7    A    
H23   N37   S    
H131  N27   S    
C107  C112  A    
C59   H15   S    
C35   C154  S    
C136  C140  A    
C95   C168  S    
C174  H81   S    
C15   C32   S    
C135  C139  A    
C57   C76   A    
C6    N11   S    
C52   C61   A    
C95   C99   A    
H37   N41   S    
C54   C63   A    
C25   C164  A    
C28   N20   S    
O20   Zn7   S    
C62   N28   S    
C137  C141  A    
C146  C150  A    
C40   C43   A    
C12   C16   T    
C5    N10   S    
C3    H85   S    
C159  O37   A    
C119  O16   A    
C25   C60   A    
O9    Zn6   S    
O3    Zn4   S    
H25   N37   S    
C89   C136  S    
O17   Zn5   S    
O29   Zn10  S    
C42   C44   A    
C88   H32   S    
C68   C158  S    
C85   C144  A    
C118  O19   A    
C28   C31   A    
C161  N22   S    
C29   N21   S    
H58   N2    S    
C131  H65   S    
H38   N41   S    
C71   H18   S    
C99   H82   S    
C132  C137  A    
C156  O32   A    
C111  O34   A    
H45   N34   S    
C64   C66   A    
C108  C113  S    
H6    N32   S    
O45   Zn2   S    
C22   C58   A    
H134  N29   S    
H10   N35   S    
C103  H115  S    
H53   N47   S    
C119  O20   A    
O43   Zn4   S    
C20   C33   A    
C132  H66   S    
O48   Zn2   S    
C22   N32   S    
H126  N1    S    
O16   Zn5   S    
H108  N20   S    
H74   N5    S    
C129  N4    S    
C68   C77   A    
C118  O15   A    
H35   N23   S    
C165  O41   A    
C159  O36   A    
C52   H125  S    
O5    Zn12  S    
C140  C145  A    
H24   N12   S    
C5    C8    A    
C157  O29   A    
O21   Zn7   S    
O19   Zn6   S    
O22   Zn8   S    
H46   N44   S    
C153  O25   A    
C83   C117  S    
C143  N5    S    
C17   N14   S    
H5    N31   S    
H11   N35   S    
C19   N16   S    
C82   C164  A    
C77   C82   A    
C70   H17   S    
C64   N30   S    
O24   Zn9   S    
O25   Zn10  S    
H113  N22   S    
C127  C131  A    
C25   N35   S    
C3    C11   A    
C100  C137  S    
H112  N22   S    
C61   C65   A    
C73   H20   S    
C17   C32   A    
C126  C130  A    
C34   H1    S    
C103  C107  A    
C154  O31   A    
C51   C69   S    
H102  N17   S    
H2    N1    S    
O26   Zn11  S    
H92   N13   S    
H88   N10   S    
C36   H49   S    
C6    C9    A    
H90   N11   S    
H75   N6    S    
C23   C59   A    
C11   C176  A    
C171  O4    A    
H73   N5    S    
H54   N47   S    
C13   C57   A    
C168  O44   A    
C92   C96   A    
H132  N28   S    
C13   C144  A    
C4    C8    A    
C85   C119  S    
H89   N10   S    
C125  C151  S    
H114  N24   S    
H136  N30   S    
C2    N37   S    
H40   N42   S    
C58   H14   S    
H43   N23   S    
C9    C173  S    
C37   C47   A    
C50   C67   S    
C79   C91   A    
O40   Zn12  S    
H117  N25   S    
H99   N16   S    
C94   N43   S    
O39   Zn11  S    
C46   C75   A    
C26   N18   S    
H91   N11   S    
H111  N21   S    
C143  C148  A    
C34   C39   A    
H106  N19   S    
C131  C136  A    
C19   C33   A    
C101  H93   S    
C93   N42   S    
C97   C170  S    
H57   N2    S    
C147  C151  A    
C21   N31   S    
C70   C74   A    
O6    Zn2   S    
C100  O23   A    
C30   C152  S    
C60   H16   S    
H39   N42   S    
C172  O5    A    
H76   N6    S    
O18   Zn6   S    
H77   N7    S    
H48   N45   S    
C152  O22   A    
C19   C28   A    
C55   H129  S    
C80   C162  A    
C55   C69   A    
C52   C67   A    
C109  C114  S    
C133  N12   S    
C114  C123  T    
C167  O42   A    
C26   C30   A    
C96   C169  S    
H118  N25   S    
C74   C78   A    
C4    N9    S    
C170  O46   A    
H94   N13   S    
C93   C97   A    
C112  C116  S    
C10   C175  A    
C105  C109  A    
H47   N44   S    
C73   C77   A    
C142  C147  A    
H79   N8    S    
C105  N45   S    
C90   H33   S    
C104  N44   S    
C165  O40   A    
C107  N47   S    
C128  N3    S    
C46   C156  S    
C142  H72   S    
C147  N8    S    
C116  C125  T    
C89   O12   A    
C127  C149  A    
O34   Zn5   S    
O4    Zn3   S    
C42   H124  S    
C27   N19   S    
H8    N33   S    
C83   C122  A    
C37   C41   A    
O27   Zn8   S    
C53   C67   A    
C63   C66   A    
C91   C95   A    
H42   N43   S    
C113  C121  T    
C78   C161  A    
C84   C118  S    
C49   C50   T    
C14   C15   T    
C160  O39   A    
C86   C120  S    
C87   C92   A    
H22   N36   S    
C158  O30   A    
O1    Zn1   S    
C35   C74   A    
O13   Zn7   S    
C5    C175  A    
C130  C135  A    
C80   C84   A    
H61   N3    S    
O37   Zn9   S    
H62   N4    S    
C129  C151  A    
C3    C7    A    
C22   C162  A    
C58   C71   A    
C94   C98   A    
C98   C103  A    
H101  N17   S    
C60   C73   A    
C35   C166  A    
O30   Zn11  S    
O14   Zn1   S    
H105  N18   S    
C18   N15   S    
C152  O24   A    
O28   Zn9   S    
C78   C83   A    
C7    N13   S    
O23   Zn5   S    
C97   C102  A    
C72   C76   A    
C59   C72   A    
C88   C110  A    
C99   C104  A    
C163  N25   S    
C173  O8    A    
O15   Zn1   S    
C4    C174  A    
C96   C101  A    
O31   Zn9   S    
H9    N33   S    
H107  N19   S    
H130  N27   S    
C90   C94   A    
C43   C165  S    
C84   C133  A    
C2    C133  A    
C154  O27   A    
H120  N26   S    
C53   H127  S    
H116  N24   S    
O33   Zn11  S    
C126  C148  A    
C176  H84   S    
C158  O35   A    
C82   C86   A    
C1    O1    A    
C44   C167  S    
C86   C155  A    
O38   Zn10  S    
C170  O3    A    
C121  C148  S    
C171  O47   A    
C39   H121  S    
C141  C146  A    
O41   Zn2   S    
H3    N30   S    
O46   Zn3   S    
C138  C142  A    
C41   C44   A    
C18   C32   A    
C169  O2    A    
C17   C26   A    
H103  N18   S    
H59   N3    S    
C104  C108  A    
C45   C48   S    
C167  O43   A    
H98   N15   S    
H95   N14   S    
C124  C150  S    
C122  N1    S    
C115  C124  T    
C91   N40   S    
H29   N39   S    
O35   Zn10  S    
H119  N26   S    
C102  H104  S    
C21   C56   A    
C23   N33   S    
C87   C109  A    
C145  N6    S    
C63   N29   S    
C41   H123  S    
C54   C69   A    
C40   H122  S    
C92   N41   S    
C169  O45   A    
C24   C68   A    
C129  C134  A    
O32   Zn8   S    
O8    Zn4   S    
C164  N26   S    
H100  N16   S    
O7    Zn3   S    
C110  C115  S    
H4    N31   S    
C145  C149  A    
C8    C172  S    
C111  C138  S    
C117  O18   A    
C123  C149  S    
C122  C166  A    
H50   N45   S    
C160  O38   A    
C90   C112  A    
C65   C159  S    
C144  N23   S    
C72   H19   S    
C66   C160  S    
C47   C49   S    
H109  N20   S    
H26   N38   S    
C2    C46   A    
C100  O11   A    
H13   N12   S    
C130  H64   S    
C1    O9    A    
H133  N28   S    
C153  O26   A    
C38   C42   A    
C11   C14   S    
H56   N48   S    
H51   N46   S    
C120  O17   A    
O12   Zn1   S    
O10   Zn6   S    
C89   O10   A    
H110  N21   S    
H86   N9    S    
O42   Zn3   S    
C56   H12   S    
H27   N38   S    
C156  O28   A    
C172  O6    A    
O2    Zn12  S    
C75   C80   A    
C24   C155  A    
C13   N38   S    
C111  O13   A    
C117  O14   A    
C27   C30   A    
C81   C163  A    
C139  C143  A    
H41   N43   S    
C128  C132  A    
C31   C153  S    
C20   N17   S    
C23   C163  A    
C20   C29   A    
C48   C51   T    
H28   N39   S    
C101  C105  A    
C146  N7    S    
C21   C161  A    
C140  H69   S    
O44   Zn12  S    
C166  N36   S    
C36   C40   A    
H96   N14   S    
C155  N34   S    
H36   N40   S    
C54   H128  S    
H7    N32   S    
C39   C43   A    
C162  N24   S    
O11   Zn7   S    
H135  N29   S    
C16   C33   S    
H87   N9    S    
H21   N36   S    
C157  O33   A    
C53   C62   A    
C55   C64   A    
C38   C47   A    
C141  H70   S    
C36   C45   A    
C34   C45   A    
O47   Zn4   S    
H44   N34   S    
C139  H68   S    
C87   H31   S    
H63   N4    S    
C10   C12   S    
C98   C171  S    
H97   N15   S    
C56   C70   A    
H34   N40   S    
C79   C108  A    
C37   H60   S    
C106  C110  A    
C128  C150  A    
C7    C9    A    
C57   C157  S    
C88   C93   A    
C62   C65   A    
C120  O21   A    
C18   C27   A    
C106  N46   S    
C76   C81   A    
C134  C138  A    
C79   H30   S    
H55   N48   S    
H52   N46   S    
C29   C31   A    
C1    C135  S    
O36   Zn8   S    
C71   C75   A    
C6    C176  A    
C38   H71   S    
C102  C106  A    
H78   N7    S    
C81   C85   A    
C134  H67   S    
C127  N2    S    
C168  O48   A    
C61   N27   S    
C24   N39   S    
C126  N48   S    
C175  H83   S    
H80   N8    S    
