data_mof_unit_41642.cif
_audit_creation_date              2012-12-10T18:59:53-0500
_audit_creation_method            fapswitch 2.2
_symmetry_space_group_name_H-M    P1
_symmetry_Int_Tables_number       1
_space_group_crystal_system       triclinic
_cell_length_a                    10.78168
_cell_length_b                    10.626849
_cell_length_c                    9.846634
_cell_angle_alpha                 90.190941
_cell_angle_beta                  90.958788
_cell_angle_gamma                 89.937988
_cell_volume                      1128.01608481

loop_
_atom_site_label
_atom_site_type_symbol
_atom_type_description
_atom_site_fract_x
_atom_site_fract_y
_atom_site_fract_z
_atom_type_partial_charge
C1    C     C_R   0.497299 0.260230 0.499698 0.934517
C2    C     C_R   0.502701 0.739770 0.500302 0.934516
C3    C     C_R   0.872612 0.496851 0.503917 -0.063400
C4    C     C_R   0.127388 0.503150 0.496082 -0.063400
C5    C     C_R   0.941788 0.474828 0.624315 0.001807
C6    C     C_R   0.058212 0.525172 0.375684 0.001806
C7    C     C_R   0.409479 0.062062 0.419971 0.269552
C8    C     C_R   0.590521 0.937938 0.580029 0.269552
C9    C     C_R   0.413951 0.932907 0.420462 -0.261607
C10   C     C_R   0.586049 0.067093 0.579538 -0.261607
C11   C     C_R   0.503339 0.872075 0.500481 -0.128983
C12   C     C_R   0.496661 0.127925 0.499519 -0.128983
C13   C     C_R   0.536056 0.604254 0.072882 -0.080979
C14   C     C_R   0.463943 0.395746 0.927118 -0.080975
C15   C     C_R   0.535997 0.604216 0.929169 -0.056482
C16   C     C_R   0.464003 0.395784 0.070831 -0.056479
C17   C     C_R   0.259926 0.502020 0.498523 0.891275
C18   C     C_R   0.740074 0.497980 0.501477 0.891274
C19   C     C_R   0.205133 0.698802 0.084720 -0.127482
C20   C     C_R   0.794871 0.301187 0.915274 -0.127484
C21   C     C_R   0.156956 0.673199 0.212707 -0.122592
C22   C     C_R   0.843048 0.326794 0.787288 -0.122600
C23   C     C_R   0.112660 0.552358 0.242165 0.126181
C24   C     C_R   0.887340 0.447638 0.757834 0.126180
C25   C     C_R   0.116879 0.457709 0.142694 -0.092286
C26   C     C_R   0.883115 0.542285 0.857307 -0.092286
C27   C     C_R   0.165283 0.483589 0.015151 -0.139496
C28   C     C_R   0.834710 0.516400 0.984848 -0.139494
C29   C     C_R   0.208764 0.604204 0.985793 -0.121782
C30   C     C_R   0.791234 0.395783 0.014203 -0.121779
C31   C     C_R   0.931275 0.521368 0.381475 -0.236129
C32   C     C_R   0.068725 0.478633 0.618525 -0.236129
H1    H     H_    0.245870 0.624136 0.886712 0.151129
H2    H     H_    0.754127 0.375847 0.113283 0.151127
H3    H     H_    0.565277 0.687526 0.875996 0.175178
H4    H     H_    0.434723 0.312474 0.124004 0.175178
H5    H     H_    0.239450 0.791962 0.062159 0.148502
H6    H     H_    0.760558 0.208025 0.937831 0.148505
H7    H     H_    0.153671 0.747140 0.288511 0.130889
H8    H     H_    0.846338 0.252855 0.711483 0.130892
H9    H     H_    0.082582 0.364194 0.164020 0.162282
H10   H     H_    0.917409 0.635803 0.835983 0.162283
H11   H     H_    0.169199 0.409848 0.939411 0.134962
H12   H     H_    0.830790 0.590140 0.060589 0.134960
H13   H     H_    0.878299 0.539787 0.289304 0.159476
H14   H     H_    0.121701 0.460214 0.710696 0.159475
H15   H     H_    0.346539 0.879823 0.360809 0.170967
H16   H     H_    0.653461 0.120178 0.639191 0.170968
H17   H     H_    0.565508 0.687591 0.127737 0.143958
H18   H     H_    0.434492 0.312409 0.872263 0.143957
N1    N     N_R   0.499970 0.499970 0.857200 -0.084071
N2    N     N_R   0.500030 0.500030 0.142800 -0.084071
O1    O     O_R   0.499990 0.316750 0.614620 -0.634073
O2    O     O_R   0.500010 0.683250 0.385380 -0.634073
O3    O     O_R   0.499990 0.316780 0.385290 -0.602782
O4    O     O_R   0.500010 0.683220 0.614710 -0.602782
O5    O     O_R   0.316760 0.500000 0.614660 -0.640507
O6    O     O_R   0.683240 0.500000 0.385340 -0.640506
O7    O     O_R   0.316760 0.500020 0.385330 -0.593287
O8    O     O_R   0.683240 0.499980 0.614670 -0.593287
Zn1   Zn    Zn3+2 0.500000 0.499980 0.653120 0.967144
Zn2   Zn    Zn3+2 0.500000 0.500020 0.346880 0.967144
Br1   Br    Br    0.279016 0.142932 0.317023 -0.581883
Br2   Br    Br    0.720984 0.857068 0.682977 -0.581885

loop_
_geom_bond_atom_site_label_1
_geom_bond_atom_site_label_2
_ccdc_geom_bond_type
O6    Zn2   S    
C28   H12   S    
O5    Zn1   S    
C15   N1    A    
C27   C29   A    
C13   N2    A    
C20   H6    S    
C19   H5    S    
C26   C28   A    
C14   N1    A    
C21   H7    S    
C2    O4    A    
C5    C32   A    
C22   H8    S    
C7    C9    A    
C28   C30   A    
C6    C31   A    
C1    O3    A    
C20   C30   A    
C16   H4    S    
C3    C31   A    
N1    Zn1   S    
C9    C11   A    
C7    Br1   S    
C14   H18   S    
C1    C12   S    
C10   C12   A    
C17   O7    A    
C8    C11   A    
C13   H17   S    
C6    C23   S    
C18   O8    A    
C19   C21   A    
C20   C22   A    
C9    H15   S    
C14   C16   A    
C13   C15   A    
C21   C23   A    
C10   H16   S    
C7    C12   A    
C22   C24   A    
C25   C27   A    
C4    C17   S    
C31   H13   S    
C4    C32   A    
C8    Br2   S    
O3    Zn2   S    
C27   H11   S    
C5    C24   S    
C23   C25   A    
C26   H10   S    
C3    C18   S    
C4    C6    A    
C2    O2    A    
C25   H9    S    
C15   H3    S    
C1    O1    A    
O4    Zn1   S    
C30   H2    S    
O7    Zn2   S    
C2    C11   S    
O2    Zn2   S    
C17   O5    A    
C32   H14   S    
O1    Zn1   S    
N2    Zn2   S    
C8    C10   A    
C18   O6    A    
C16   N2    A    
C29   H1    S    
C24   C26   A    
O8    Zn1   S    
C3    C5    A    
C19   C29   A    
