data_mof_unit_52115.cif
_audit_creation_date              2012-12-10T18:44:24-0500
_audit_creation_method            fapswitch 2.2
_symmetry_space_group_name_H-M    P1
_symmetry_Int_Tables_number       1
_space_group_crystal_system       triclinic
_cell_length_a                    12.88196
_cell_length_b                    10.714411
_cell_length_c                    9.831767
_cell_angle_alpha                 90.053689
_cell_angle_beta                  97.187548
_cell_angle_gamma                 90.156087
_cell_volume                      1346.33660008

loop_
_atom_site_label
_atom_site_type_symbol
_atom_type_description
_atom_site_fract_x
_atom_site_fract_y
_atom_site_fract_z
_atom_type_partial_charge
C1    C     C_R   0.499921 0.259858 0.499904 0.867942
C2    C     C_R   0.701933 0.500717 0.526800 0.883653
C3    C     C_R   0.814052 0.499906 0.542826 -0.046576
C4    C     C_R   0.185948 0.500096 0.457174 -0.046576
C5    C     C_R   0.020903 0.537549 0.320467 -0.230963
C6    C     C_R   0.979097 0.462456 0.679533 -0.230966
C7    C     C_R   0.128778 0.529817 0.330819 -0.210626
C8    C     C_R   0.871222 0.470187 0.669182 -0.210621
C9    C     C_R   0.136027 0.475654 0.572406 -0.282210
C10   C     C_R   0.863972 0.524350 0.427595 -0.282211
C11   C     C_R   0.028963 0.484251 0.563431 0.191907
C12   C     C_R   0.500079 0.740142 0.500096 0.867941
C13   C     C_R   0.971037 0.515754 0.436570 0.191907
C14   C     C_R   0.477410 0.063727 0.375678 -0.178248
C15   C     C_R   0.522589 0.936273 0.624322 -0.178248
C16   C     C_R   0.477508 0.935864 0.375756 -0.202818
C17   C     C_R   0.522491 0.064136 0.624244 -0.202817
C18   C     C_3   0.737254 0.649683 0.940794 -0.362017
C19   C     C_3   0.262745 0.350328 0.059214 -0.361996
C20   C     C_R   0.500068 0.872567 0.500081 -0.020426
C21   C     C_R   0.499931 0.127433 0.499918 -0.020426
C22   C     C_R   0.566998 0.575251 0.083277 -0.325759
C23   C     C_R   0.433002 0.424748 0.916723 -0.325753
C24   C     C_R   0.568723 0.574292 0.938274 0.603067
C25   C     C_R   0.431277 0.425707 0.061726 0.603066
C26   C     C_R   0.298067 0.499283 0.473200 0.883652
H1    H     H_    0.819599 0.548815 0.330114 0.153380
H2    H     H_    0.540715 0.113045 0.720844 0.161874
H3    H     H_    0.618239 0.636513 0.148427 0.171609
H4    H     H_    0.381761 0.363486 0.851573 0.171610
H5    H     H_    0.790138 0.683141 0.867700 0.203050
H6    H     H_    0.762798 0.553569 0.972495 0.143872
H7    H     H_    0.746707 0.714151 0.030013 0.160647
H8    H     H_    0.209864 0.316870 0.132313 0.203049
H9    H     H_    0.253281 0.285869 0.969988 0.160641
H10   H     H_    0.237206 0.446449 0.027527 0.143865
H11   H     H_    0.180401 0.451187 0.669886 0.153380
H12   H     H_    0.832634 0.450560 0.758564 0.160686
H13   H     H_    0.167366 0.549446 0.241437 0.160681
H14   H     H_    0.976778 0.561470 0.222801 0.132419
H15   H     H_    0.023223 0.438536 0.777200 0.132419
H16   H     H_    0.459089 0.112301 0.279060 0.187057
H17   H     H_    0.540910 0.887699 0.720940 0.187056
H18   H     H_    0.459284 0.886955 0.279156 0.161874
N1    N     N_R   0.499970 0.499970 0.857200 -0.134978
N2    N     N_R   0.500030 0.500030 0.142800 -0.134978
O1    O     O_R   0.499990 0.316750 0.614620 -0.635702
O2    O     O_3   0.366485 0.347148 0.125443 -0.578108
O3    O     O_R   0.500010 0.683250 0.385380 -0.635702
O4    O     O_R   0.499990 0.316780 0.385290 -0.581297
O5    O     O_R   0.500010 0.683220 0.614710 -0.581298
O6    O     O_R   0.346360 0.499970 0.595710 -0.631665
O7    O     O_R   0.653640 0.500030 0.404290 -0.631665
O8    O     O_R   0.346360 0.499990 0.366380 -0.585845
O9    O     O_R   0.653640 0.500010 0.633620 -0.585841
O10   O     O_3   0.633517 0.652849 0.874555 -0.578105
Zn1   Zn    Zn3+2 0.500000 0.499980 0.653120 0.986069
Zn2   Zn    Zn3+2 0.500000 0.500020 0.346880 0.986066

loop_
_geom_bond_atom_site_label_1
_geom_bond_atom_site_label_2
_ccdc_geom_bond_type
C10   H1    S    
C4    C26   S    
O7    Zn2   S    
C10   C13   A    
C1    C21   S    
C23   N1    A    
C22   H3    S    
C26   O6    A    
O1    Zn1   S    
C11   C13   A    
C1    O4    A    
C16   H18   S    
C5    C13   A    
C18   O10   S    
C14   H16   S    
C12   O5    A    
C12   C20   S    
C9    H11   S    
C2    C3    S    
C4    C9    A    
C15   H17   S    
C3    C10   A    
C19   H9    S    
N2    Zn2   S    
C9    C11   A    
C25   O2    S    
N1    Zn1   S    
C8    H12   S    
C4    C7    A    
O5    Zn1   S    
C24   N1    A    
C26   O8    A    
C14   C21   A    
C16   C20   A    
C22   N2    A    
C12   O3    A    
C22   C24   A    
C2    O9    A    
O9    Zn1   S    
C15   C20   A    
C18   H7    S    
C14   C16   A    
C24   O10   S    
O6    Zn1   S    
O4    Zn2   S    
C23   H4    S    
C23   C25   A    
C18   H6    S    
C5    C7    A    
C3    C8    A    
O8    Zn2   S    
C5    H14   S    
C6    C11   A    
C15   C17   A    
C7    H13   S    
C19   O2    S    
C1    O1    A    
C6    C8    A    
C18   H5    S    
C19   H10   S    
C17   H2    S    
C25   N2    A    
C2    O7    A    
C17   C21   A    
O3    Zn2   S    
C6    H15   S    
C19   H8    S    
