data_mof_unit_43302.cif
_audit_creation_date              2013-03-05T15:55:18-0500
_audit_creation_method            fapswitch 2.2
_symmetry_space_group_name_H-M    P1
_symmetry_Int_Tables_number       1
_space_group_crystal_system       triclinic
_cell_length_a                    6.932327
_cell_length_b                    16.801684
_cell_length_c                    17.041262
_cell_angle_alpha                 100.317923
_cell_angle_beta                  88.299826
_cell_angle_gamma                 91.40441
_cell_volume                      1951.54815389

loop_
_atom_site_label
_atom_site_type_symbol
_atom_site_description
_atom_site_fract_x
_atom_site_fract_y
_atom_site_fract_z
_atom_type_partial_charge
O1    O     O_R   0.494370 0.415690 0.413450 -0.605128
O2    O     O_R   0.819420 0.429360 0.578420 -0.594088
O3    O     O_R   0.994280 0.584310 0.586550 -0.600989
C1    C     C_R   0.647379 0.416193 0.607277 1.069478
O4    O     O_R   0.823790 0.406230 0.413570 -0.605821
O5    O     O_R   0.998670 0.561000 0.420530 -0.584454
C2    C     C_R   0.655187 0.383106 0.384891 0.914650
O6    O     O_R   0.489970 0.439000 0.579470 -0.587065
O7    O     O_3   0.662300 0.550810 0.502470 -0.266087
V1    V     V_3+5 0.935380 0.490570 0.499540 1.187539
O8    O     O_R   0.328650 0.570640 0.421580 -0.600282
C3    C     C_R   0.163578 0.586573 0.394948 0.959519
O9    O     O_R   0.324290 0.593770 0.586430 -0.565612
C4    C     C_R   0.154676 0.616891 0.614897 1.069708
V2    V     V_3+5 0.435930 0.509430 0.500460 1.210701
O10   O     O_3   0.159140 0.449190 0.497530 -0.293851
C5    C     C_R   0.286874 0.746642 0.691546 -0.242714
H1    H     H_    0.404524 0.742822 0.647879 0.176254
C6    C     C_R   0.275647 0.814218 0.753374 0.571628
C7    C     C_R   0.122890 0.818728 0.811761 -0.336804
C8    C     C_R   0.978674 0.757498 0.801934 -0.031189
H2    H     H_    0.858776 0.759491 0.844427 0.188592
C9    C     C_R   0.987699 0.692419 0.737919 -0.028817
H3    H     H_    0.874409 0.646344 0.732404 0.174180
C10   C     C_R   0.143425 0.685800 0.682761 -0.201394
C11   C     C_R   0.169371 0.637204 0.331656 -0.200232
C12   C     C_R   0.099985 0.858097 0.164198 -0.302102
C13   C     C_R   0.966176 0.827245 0.289122 -0.045364
C14   C     C_R   0.986655 0.879242 0.233974 -0.186559
C15   C     C_R   0.192934 0.782336 0.149754 0.457846
C16   C     C_R   0.203149 0.737173 0.213173 -0.218609
C17   C     C_R   0.073256 0.756363 0.279756 0.131029
C18   C     C_R   0.053180 0.705102 0.336828 -0.159915
C19   C     C_R   0.312568 0.623623 0.271166 -0.267160
C20   C     C_R   0.336642 0.674087 0.214010 0.572575
H4    H     H_    0.950917 0.719255 0.386482 0.132577
H5    H     H_    0.412980 0.575132 0.270863 0.189824
H6    H     H_    0.869972 0.843661 0.340462 0.115399
H7    H     H_    0.907308 0.935079 0.244283 0.126493
C21   C     C_R   0.624905 0.368184 0.672935 -0.325506
C22   C     C_R   0.641443 0.140158 0.834695 -0.202686
C23   C     C_R   0.828098 0.181509 0.724830 -0.118472
C24   C     C_R   0.796909 0.129100 0.779280 -0.097343
C25   C     C_R   0.518012 0.205235 0.834896 -0.157355
C26   C     C_R   0.553772 0.261274 0.782838 -0.014350
C27   C     C_R   0.708443 0.247956 0.726277 0.217700
C28   C     C_R   0.740383 0.300335 0.671232 -0.281227
C29   C     C_R   0.481964 0.386520 0.734954 0.302567
C30   C     C_R   0.440243 0.330720 0.786873 0.195266
H8    H     H_    0.853328 0.287249 0.625641 0.138780
H9    H     H_    0.947937 0.170692 0.682237 0.113022
H10   H     H_    0.894234 0.079338 0.777781 0.158940
H11   H     H_    0.398712 0.213157 0.877770 0.171890
C31   C     C_R   0.811592 0.275747 0.282029 -0.132156
H12   H     H_    0.952088 0.294477 0.305637 0.119204
C32   C     C_R   0.800126 0.211946 0.216919 -0.123027
H13   H     H_    0.932493 0.183386 0.192545 0.120994
C33   C     C_R   0.620754 0.185338 0.183923 -0.111391
C34   C     C_R   0.453184 0.224357 0.217905 -0.125970
H14   H     H_    0.312694 0.205636 0.194285 0.121103
C35   C     C_R   0.464650 0.288159 0.283017 -0.124470
H15   H     H_    0.332290 0.316730 0.307383 0.124056
C36   C     C_R   0.644011 0.314726 0.316049 -0.121169
O11   O     O_R   0.774880 0.061150 0.920630 -0.597743
O12   O     O_R   0.440980 0.093710 0.086500 -0.615774
O13   O     O_R   0.266190 0.938890 0.079390 -0.589598
C37   C     C_R   0.609580 0.116885 0.115151 0.895335
O14   O     O_R   0.445420 0.070740 0.921670 -0.572118
O15   O     O_R   0.270660 0.915760 0.913380 -0.526955
C38   C     C_R   0.617958 0.086925 0.895384 1.046607
O16   O     O_R   0.770400 0.084270 0.086640 -0.613477
O17   O     O_3   0.602590 0.949210 0.997500 -0.222114
V3    V     V_3+5 0.329470 0.009420 0.000470 1.261299
O18   O     O_R   0.940650 0.906250 0.913470 -0.575750
C39   C     C_R   0.110405 0.885482 0.882600 1.135152
O19   O     O_R   0.936210 0.929220 0.078300 -0.582087
C40   C     C_R   0.101688 0.912377 0.104047 1.027077
V4    V     V_3+5 0.828930 0.990510 0.999490 1.264267
O20   O     O_3   0.105680 0.050790 0.002500 -0.302617
S1    S     S_3+6 0.219339 0.732735 0.048546 0.048759
O21   O     O_2   0.410149 0.755473 0.013758 -0.192908
O22   O     O_2   0.204007 0.642459 0.042250 -0.196023
O23   O     O_3   0.042672 0.760660 0.994333 -0.566559
H16   H     H_    0.921843 0.739449 0.016184 0.386326
S2    S     S_3+6 0.365310 0.481977 0.753357 0.057210
O24   O     O_2   0.326169 0.508434 0.841270 -0.121323
O25   O     O_2   0.490430 0.545774 0.724618 -0.296913
O26   O     O_3   0.153512 0.473875 0.706547 -0.492828
H17   H     H_    0.155295 0.420861 0.670145 0.328342
N1    N     N_R   0.282824 0.344950 0.843926 0.260178
O27   O     O_R   0.315943 0.360104 0.919966 -0.320887
O28   O     O_R   0.106920 0.346671 0.819812 -0.352392
S3    S     S_3+6 0.443232 0.894883 0.749627 -0.064968
O29   O     O_2   0.591966 0.895925 0.812119 -0.284062
O30   O     O_2   0.543419 0.884683 0.669031 -0.330584
O31   O     O_3   0.324770 0.982789 0.766385 -0.582026
H18   H     H_    0.397717 0.018571 0.735315 0.361004
S4    S     S_3+6 0.564110 0.669470 0.162527 0.002743
O32   O     O_2   0.554435 0.611517 0.084557 -0.169204
O33   O     O_2   0.627054 0.751942 0.148010 -0.297352
O34   O     O_3   0.729086 0.635807 0.218477 -0.563353
H19   H     H_    0.842847 0.622727 0.182294 0.383151

loop_
_geom_bond_atom_site_label_1
_geom_bond_atom_site_label_2
_geom_bond_distance
_ccdc_geom_bond_type
C21   C28   1.404548 A    
S3    O29   1.501696 D    
C12   C14   1.401520 A    
C19   H5    1.083701 S    
C6    C7    1.425317 A    
C30   N1    1.435229 S    
C1    O6    1.295518 A    
C26   C27   1.414910 A    
O34   H19   0.990726 S    
O23   H16   0.990805 S    
C13   C14   1.395242 A    
O19   V4    2.002364 S    
O5    C3    1.301932 A    
C15   C16   1.431709 A    
C24   H10   1.083466 S    
C31   C36   1.405689 A    
V2    O10   2.145012 S    
C18   H4    1.084303 S    
O12   V3    2.005590 S    
C32   H13   1.082758 S    
C19   C20   1.405242 A    
C23   C27   1.403343 A    
C35   C36   1.409419 A    
O17   V4    1.698817 S    
C31   H12   1.082758 S    
O8    V2    2.002425 S    
C25   H11   1.081760 S    
C11   C19   1.402228 A    
C1    C21   1.494539 S    
O12   C37   1.303660 A    
C9    H3    1.083245 S    
O15   V3    2.003256 S    
O1    V2    2.000592 S    
O11   C38   1.293688 A    
C20   S4    1.778149 S    
O7    V1    2.163531 S    
C6    S3    1.772003 S    
C23   H9    1.083693 S    
C15   S1    1.782273 S    
C34   H14   1.082759 S    
S3    O30   1.504337 D    
O9    C4    1.299938 A    
C12   C15   1.419384 A    
C22   C24   1.405136 A    
S1    O23   1.680533 S    
C28   H8    1.084500 S    
S2    O25   1.502805 D    
C31   C32   1.400540 A    
C34   C35   1.400572 A    
O18   C39   1.304218 A    
C13   C17   1.401094 A    
O19   C40   1.295689 A    
S1    O22   1.502628 D    
O4    C2    1.303663 A    
V4    O20   2.145021 S    
S1    O21   1.502302 D    
C33   C34   1.405701 A    
S2    O24   1.502962 D    
O13   V3    1.978857 S    
C7    C39   1.495428 S    
C3    C11   1.487618 S    
O2    C1    1.305525 A    
C11   C18   1.400997 A    
N1    O28   1.300932 A    
C16   C17   1.422949 A    
C26   C30   1.413722 A    
O31   H18   0.990314 S    
C14   H7    1.083556 S    
C5    H1    1.082812 S    
V3    O20   1.712366 S    
C7    C8    1.408442 A    
C2    C36   1.490125 S    
O3    C4    1.294868 A    
C29   C30   1.419194 A    
S3    O31   1.682819 S    
S4    O33   1.502810 D    
C8    C9    1.400577 A    
C22   C25   1.404289 A    
C16   C20   1.426309 A    
C23   C24   1.398060 A    
O2    V1    1.975189 S    
C25   C26   1.417652 A    
S2    O26   1.682695 S    
C21   C29   1.424789 A    
O13   C40   1.299687 A    
C27   C28   1.406146 A    
O1    C2    1.296803 A    
O11   V4    1.994515 S    
O17   V3    2.163473 S    
C12   C40   1.488694 S    
O5    V1    1.978868 S    
O8    C3    1.294794 A    
O6    V2    1.993969 S    
S4    O34   1.681232 S    
C5    C10   1.400179 A    
C17   C18   1.411812 A    
O9    V2    1.999035 S    
O14   V3    1.975293 S    
O4    V1    2.005651 S    
O3    V1    2.003429 S    
V1    O10   1.712274 S    
N1    O27   1.301264 A    
C5    C6    1.405794 A    
C32   C33   1.409409 A    
O15   C39   1.295919 A    
C37   O16   1.296802 A    
C9    C10   1.403403 A    
C4    C10   1.484395 S    
O7    V2    1.699512 S    
C35   H15   1.082757 S    
C33   C37   1.490121 S    
O26   H17   0.990209 S    
O14   C38   1.304274 A    
S4    O32   1.502227 D    
O18   V4    1.998964 S    
C29   S2    1.786894 S    
C13   H6    1.083632 S    
C8    H2    1.083184 S    
O16   V4    2.002356 S    
C22   C38   1.486713 S    
