data_mof_unit_55859.cif
_audit_creation_date              2012-10-26T21:05:40-0400
_audit_creation_method            fapswitch 2.2
_symmetry_space_group_name_H-M    P1
_symmetry_Int_Tables_number       1
_space_group_crystal_system       triclinic
_cell_length_a                    13.086579
_cell_length_b                    9.096089
_cell_length_c                    7.784791
_cell_angle_alpha                 90.017495
_cell_angle_beta                  95.547554
_cell_angle_gamma                 89.976775
_cell_volume                      922.335357622

loop_
_atom_site_label
_atom_site_type_symbol
_atom_type_description
_atom_site_fract_x
_atom_site_fract_y
_atom_site_fract_z
_atom_type_partial_charge
C1    C     C_R   0.499992 0.220028 0.499986 0.546314
C2    C     C_R   0.859827 0.413641 0.677854 -0.056869
C3    C     C_R   0.132193 0.433813 0.577606 -0.008596
C4    C     C_R   0.867801 0.566254 0.422535 -0.008533
C5    C     C_R   0.024495 0.454873 0.567374 -0.012050
C6    C     C_R   0.975484 0.545039 0.432615 -0.012197
C7    C     C_1   0.499995 0.065369 0.499983 -0.030610
C8    C     C_1   0.500007 0.934631 0.500018 -0.030605
C9    C     C_2   0.812422 0.657716 0.285502 0.376447
C10   C     C_2   0.187598 0.342859 0.715111 0.376566
C11   C     C_R   0.500009 0.779972 0.500014 0.546347
C12   C     C_R   0.300575 0.496406 0.469272 0.523702
C13   C     C_R   0.699422 0.503568 0.530733 0.523748
C14   C     C_R   0.811211 0.499320 0.546519 -0.089483
C15   C     C_R   0.188778 0.500591 0.453494 -0.089579
C16   C     C_R   0.035891 0.611471 0.312834 0.419410
C17   C     C_R   0.964075 0.388266 0.687016 0.419521
C18   C     C_R   0.140132 0.586046 0.321970 -0.056765
Cu1   Cu    Cu3+1 0.500010 0.500000 0.669080 1.078982
Cu2   Cu    Cu3+1 0.499990 0.500000 0.330920 1.079131
F1    F     F_    0.997082 0.706487 0.189043 -0.575561
F2    F     F_    0.002867 0.293030 0.810588 -0.575718
H1    H     H_    0.815639 0.359043 0.769964 0.181789
H2    H     H_    0.184302 0.640483 0.229710 0.181981
H3    H     H_    0.769276 0.753194 0.320780 0.096957
H4    H     H_    0.231045 0.247516 0.680335 0.097190
N1    N     N_1   0.499980 0.500000 0.076820 -0.058558
N2    N     N_1   0.500020 0.500000 0.923180 -0.058601
O1    O     O_R   0.500000 0.288400 0.642760 -0.504697
O2    O     O_2   0.190764 0.380108 0.866279 -0.408163
O3    O     O_R   0.500000 0.711600 0.357240 -0.504597
O4    O     O_R   0.500000 0.288400 0.357240 -0.491517
O5    O     O_R   0.500000 0.711600 0.642760 -0.491467
O6    O     O_R   0.349000 0.500000 0.619590 -0.497552
O7    O     O_R   0.651000 0.500000 0.380410 -0.497254
O8    O     O_R   0.348990 0.500000 0.334020 -0.490635
O9    O     O_R   0.651010 0.500000 0.665980 -0.490627
O10   O     O_2   0.808902 0.620748 0.134204 -0.407850

loop_
_geom_bond_atom_site_label_1
_geom_bond_atom_site_label_2
_ccdc_geom_bond_type
C15   C18   A    
C16   F1    S    
Cu2   N1    S    
C12   O8    A    
C6    C16   A    
C10   O2    D    
C13   O9    A    
C17   F2    S    
C12   C15   S    
C10   H4    S    
C1    O1    A    
C9    H3    S    
C7    C8    T    
C3    C10   S    
C13   C14   S    
C2    C17   A    
Cu1   N2    S    
C8    C11   S    
C18   H2    S    
C4    C6    A    
C9    O10   D    
C13   O7    A    
C4    C14   A    
C5    C6    A    
C2    C14   A    
C5    C17   A    
C11   O3    A    
Cu1   O1    S    
C11   O5    A    
C3    C15   A    
C16   C18   A    
Cu2   O4    S    
C2    H1    S    
Cu1   O9    S    
C3    C5    A    
C4    C9    S    
C1    C7    S    
Cu2   O7    S    
C12   O6    A    
Cu1   O6    S    
C1    O4    A    
Cu1   Cu2   S    
Cu1   O5    S    
N1    N2    T    
Cu2   O3    S    
Cu2   O8    S    
