data_mof_unit_40822.cif
_audit_creation_date              2012-12-11T15:10:44-0500
_audit_creation_method            fapswitch 2.2
_symmetry_space_group_name_H-M    P1
_symmetry_Int_Tables_number       1
_space_group_crystal_system       triclinic
_cell_length_a                    21.150591
_cell_length_b                    7.239184
_cell_length_c                    18.259789
_cell_angle_alpha                 89.995575
_cell_angle_beta                  93.413003
_cell_angle_gamma                 89.995379
_cell_volume                      2790.85260834

loop_
_atom_site_label
_atom_site_type_symbol
_atom_type_description
_atom_site_fract_x
_atom_site_fract_y
_atom_site_fract_z
_atom_type_partial_charge
O1    O     O_R   0.448880 0.506250 0.415280 -0.528945
O2    O     O_R   0.551120 0.006250 0.584720 -0.528961
O3    O     O_R   0.434830 0.174000 0.557310 -0.521056
O4    O     O_R   0.565170 0.674000 0.442690 -0.521055
C1    C     C_R   0.416991 0.344580 0.579654 0.696785
C2    C     C_R   0.583009 0.844579 0.420345 0.696796
O5    O     O_R   0.441680 0.176440 0.414130 -0.530631
O6    O     O_R   0.558320 0.676440 0.585870 -0.530634
O7    O     O_R   0.558020 0.007570 0.440520 -0.519490
O8    O     O_R   0.441980 0.507570 0.559480 -0.519471
C3    C     C_R   0.428078 0.344801 0.388296 0.683473
C4    C     C_R   0.571925 0.844776 0.611704 0.683449
O9    O     O_3   0.538160 0.339670 0.508820 -0.364894
O10   O     O_3   0.461840 0.839670 0.491180 -0.364874
V1    V     V_3+5 0.492920 0.064260 0.498360 1.426653
V2    V     V_3+5 0.507080 0.564260 0.501640 1.426682
C5    C     C_R   0.875576 0.986922 0.688356 -0.160585
C6    C     C_R   0.124338 0.485584 0.311705 -0.160553
H1    H     H_    0.963471 0.014207 0.752044 0.107250
H2    H     H_    0.036439 0.512858 0.248016 0.107221
H3    H     H_    0.795619 0.987274 0.571172 0.125528
H4    H     H_    0.204252 0.485267 0.428928 0.125521
H5    H     H_    0.897436 0.018531 0.637636 0.114097
H6    H     H_    0.102435 0.516553 0.362458 0.114092
C7    C     C_R   0.887076 0.942919 0.819842 -0.037948
C8    C     C_R   0.112918 0.442775 0.180157 -0.037878
C9    C     C_R   0.582446 0.810894 0.745776 -0.195042
C10   C     C_R   0.417620 0.311881 0.254184 -0.195123
C11   C     C_R   0.617133 0.806316 0.813028 0.008520
C12   C     C_R   0.382960 0.307734 0.186910 0.008516
C13   C     C_R   0.682329 0.839399 0.816791 -0.194514
C14   C     C_R   0.317739 0.340443 0.183162 -0.194533
C15   C     C_R   0.714642 0.878516 0.752932 0.067288
C16   C     C_R   0.285373 0.378738 0.247060 0.067277
C17   C     C_R   0.678317 0.885009 0.684099 0.069227
C18   C     C_R   0.321668 0.384766 0.315917 0.069221
C19   C     C_R   0.781747 0.911077 0.755122 0.081352
C20   C     C_R   0.218247 0.410955 0.244881 0.081362
C21   C     C_R   0.810337 0.951387 0.688434 0.137142
C22   C     C_R   0.189603 0.450447 0.311610 0.137123
C23   C     C_R   0.773808 0.956943 0.622051 -0.199047
C24   C     C_R   0.226104 0.455562 0.378017 -0.199025
C25   C     C_R   0.709011 0.923888 0.619773 -0.186312
C26   C     C_R   0.290923 0.422854 0.380281 -0.186217
C27   C     C_R   0.821776 0.906048 0.820829 -0.210888
C28   C     C_R   0.178246 0.406338 0.179150 -0.210862
C29   C     C_R   0.913381 0.984008 0.753442 -0.165453
C30   C     C_R   0.086556 0.483041 0.246599 -0.165502
C31   C     C_R   0.611959 0.850408 0.681108 -0.091391
C32   C     C_R   0.388050 0.350561 0.318890 -0.091329
H7    H     H_    0.803858 0.876629 0.873588 0.098360
H8    H     H_    0.196202 0.377502 0.126361 0.098300
H9    H     H_    0.531958 0.783060 0.743651 0.114876
H10   H     H_    0.468131 0.284405 0.256294 0.114851
H11   H     H_    0.706419 0.833437 0.870423 0.115445
H12   H     H_    0.293674 0.334877 0.129510 0.115445
H13   H     H_    0.683020 0.929483 0.566908 0.109346
H14   H     H_    0.316891 0.428088 0.433167 0.109193
C33   C     C_1   0.864593 0.938934 0.132179 -0.204972
C34   C     C_1   0.135407 0.438931 0.867821 -0.204981
C35   C     C_1   0.821769 0.924879 0.175975 0.003376
C36   C     C_1   0.178231 0.424876 0.824025 0.003365
C37   C     C_1   0.771230 0.905756 0.228130 0.004608
C38   C     C_1   0.228770 0.405755 0.771870 0.004603
C39   C     C_1   0.728673 0.889122 0.272139 0.004925
C40   C     C_1   0.271326 0.389122 0.727860 0.004927
C41   C     C_1   0.678124 0.869995 0.324278 0.005202
C42   C     C_1   0.321876 0.369997 0.675722 0.005209
C43   C     C_1   0.635278 0.855938 0.368041 -0.201053
C44   C     C_1   0.364722 0.355941 0.631959 -0.201047
O11   O     O_R   0.058070 0.289240 0.940580 -0.520112
O12   O     O_R   0.941930 0.789240 0.059420 -0.520112
O13   O     O_R   0.058330 0.616740 0.085880 -0.532006
O14   O     O_R   0.941670 0.116740 0.914120 -0.532013
C45   C     C_R   0.072019 0.448779 0.111726 0.684798
C46   C     C_R   0.927980 0.948804 0.888272 0.684800
O15   O     O_R   0.065180 0.619040 0.942700 -0.521859
O16   O     O_R   0.934820 0.119040 0.057300 -0.521857
O17   O     O_R   0.948870 0.787780 0.915270 -0.529923
O18   O     O_R   0.051130 0.287780 0.084730 -0.529916
C47   C     C_R   0.083173 0.450322 0.920183 0.705189
C48   C     C_R   0.916826 0.950323 0.079817 0.705213
O19   O     O_3   0.961870 0.453310 0.991210 -0.365295
O20   O     O_3   0.038130 0.953310 0.008790 -0.365288
V3    V     V_3+5 0.007070 0.728770 0.001630 1.420316
V4    V     V_3+5 0.992930 0.228770 0.998370 1.420332
C49   C     C_1   0.585532 0.765937 0.878927 0.313441
N1    N     N_1   0.560150 0.733494 0.931859 -0.315761
C50   C     C_1   0.414619 0.268266 0.120968 0.313455
N2    N     N_1   0.440047 0.236564 0.068001 -0.315746

loop_
_geom_bond_atom_site_label_1
_geom_bond_atom_site_label_2
_ccdc_geom_bond_type
C2    C43   S    
C40   C42   S    
C49   N1    T    
C37   C39   T    
C9    C11   A    
C23   C25   A    
O1    C3    A    
C46   O17   A    
O2    C4    A    
C2    O7    A    
O12   V3    S    
O3    V1    S    
C21   C23   A    
O5    C3    A    
C5    H5    S    
O14   C46   A    
C6    H6    S    
H1    C29   S    
C27   H7    S    
C28   H8    S    
C34   C36   T    
C5    C21   A    
C35   C37   S    
C6    C22   A    
C36   C38   S    
C10   C32   A    
C26   H14   S    
C39   C41   S    
C17   C31   A    
O18   V4    S    
C33   C48   S    
C12   C14   A    
C17   C25   A    
C45   O18   A    
C7    C29   A    
C8    C30   A    
O16   V4    S    
O5    V1    S    
O15   V3    S    
O6    V2    S    
O13   C45   A    
C24   C26   A    
C12   C50   S    
C4    C31   S    
C33   C35   T    
C11   C49   S    
O20   V3    S    
O4    C2    A    
C10   H10   S    
C15   C19   A    
C41   C43   T    
C14   C16   A    
O4    V2    S    
C1    C44   S    
O11   V4    S    
C34   C47   S    
O16   C48   A    
O15   C47   A    
O6    C4    A    
C13   C15   A    
C8    C45   S    
C25   H13   S    
O1    V2    S    
O14   V4    S    
O2    V1    S    
O13   V3    S    
H2    C30   S    
H3    C23   S    
C42   C44   T    
C18   C26   A    
C19   C27   A    
C7    C27   A    
O17   V3    S    
C18   C32   A    
C16   C20   A    
C5    C29   A    
O3    C1    A    
C6    C30   A    
C9    H9    S    
C7    C46   S    
C10   C12   A    
O7    V1    S    
C1    O8    A    
C19   C21   A    
C3    C32   S    
O8    V2    S    
C20   C22   A    
H4    C24   S    
C22   C24   A    
C15   C17   A    
C16   C18   A    
C20   C28   A    
C8    C28   A    
O19   V4    S    
C11   C13   A    
O9    V2    S    
O10   V1    S    
C13   H11   S    
C50   N2    T    
C14   H12   S    
O12   C48   A    
C9    C31   A    
C38   C40   T    
O11   C47   A    
