data_mof_unit_34332.cif
_audit_creation_date              2012-12-11T14:40:04-0500
_audit_creation_method            fapswitch 2.2
_symmetry_space_group_name_H-M    P1
_symmetry_Int_Tables_number       1
_space_group_crystal_system       triclinic
_cell_length_a                    19.601803
_cell_length_b                    10.860922
_cell_length_c                    19.451958
_cell_angle_alpha                 90.118848
_cell_angle_beta                  97.634843
_cell_angle_gamma                 89.722123
_cell_volume                      4104.43384254

loop_
_atom_site_label
_atom_site_type_symbol
_atom_type_description
_atom_site_fract_x
_atom_site_fract_y
_atom_site_fract_z
_atom_type_partial_charge
C1    C     C_R   0.706444 0.003765 0.365653 0.562545
C2    C     C_R   0.292787 0.000618 0.633549 0.564011
C3    C     C_R   0.206444 0.503764 0.365653 0.562206
C4    C     C_R   0.792786 0.500614 0.633548 0.561211
C5    C     C_3   0.730857 0.339639 0.486606 -0.125458
C6    C     C_3   0.297951 0.402174 0.517306 -0.130759
C7    C     C_3   0.230862 0.839646 0.486604 -0.124828
C8    C     C_3   0.797950 0.902174 0.517307 -0.130495
C9    C     C_3   0.753726 0.418832 0.428691 0.067912
C10   C     C_3   0.245837 0.416437 0.569364 0.065653
C11   C     C_3   0.253729 0.918840 0.428688 0.067828
C12   C     C_3   0.745836 0.916439 0.569365 0.065864
C13   C     C_3   0.726988 0.535381 0.460217 -0.145746
C14   C     C_3   0.228933 0.548325 0.545383 -0.156615
C15   C     C_3   0.226990 0.035387 0.460214 -0.145969
C16   C     C_3   0.728933 0.048327 0.545384 -0.157066
C17   C     C_3   0.799682 0.552777 0.502473 -0.132220
C18   C     C_3   0.170483 0.497333 0.491065 -0.131722
C19   C     C_3   0.299684 0.052787 0.502470 -0.132892
C20   C     C_3   0.670483 0.997335 0.491065 -0.131718
C21   C     C_3   0.825001 0.434437 0.470079 0.007291
C22   C     C_3   0.188083 0.365875 0.515637 0.025229
C23   C     C_3   0.325005 0.934449 0.470075 0.007272
C24   C     C_3   0.688082 0.865878 0.515638 0.025499
C25   C     C_3   0.803030 0.354849 0.528173 -0.098465
C26   C     C_3   0.239943 0.350565 0.463857 -0.097056
C27   C     C_3   0.303036 0.854860 0.528170 -0.098256
C28   C     C_3   0.739942 0.850566 0.463858 -0.097016
C29   C     C_3   0.777104 0.472411 0.560126 0.045282
C30   C     C_3   0.222236 0.481574 0.439512 0.039687
C31   C     C_3   0.277108 0.972420 0.560124 0.043573
C32   C     C_3   0.722236 0.981575 0.439512 0.039675
C33   C     C_3   0.549590 0.175826 0.958187 -0.105699
C34   C     C_3   0.538199 0.275879 0.011916 -0.116303
C35   C     C_3   0.049484 0.673501 0.958153 -0.108898
C36   C     C_3   0.039189 0.774706 0.011595 -0.117902
C37   C     C_3   0.540930 0.073380 0.011405 -0.125493
C38   C     C_3   0.459836 0.273573 0.988885 -0.115513
C39   C     C_3   0.039806 0.572151 0.011699 -0.127184
C40   C     C_3   0.960793 0.774828 0.988618 -0.113706
C41   C     C_3   0.529008 0.173719 0.063943 0.052896
C42   C     C_3   0.471576 0.173781 0.936015 0.051516
C43   C     C_3   0.028972 0.673655 0.063941 0.051864
C44   C     C_3   0.971445 0.673873 0.936035 0.052938
C45   C     C_R   0.534504 0.180326 0.337570 0.546029
C46   C     C_R   0.464821 0.179848 0.661907 0.545110
C47   C     C_R   0.034504 0.680326 0.337570 0.545979
C48   C     C_R   0.964820 0.679848 0.661905 0.545666
C49   C     C_3   0.451007 0.171191 0.041765 -0.104444
C50   C     C_3   0.462214 0.071078 0.987694 -0.127359
C51   C     C_3   0.950941 0.673539 0.041813 -0.103192
C52   C     C_3   0.961060 0.572276 0.988041 -0.124048
C53   C     C_1   0.757532 0.408286 0.899589 -0.010102
C54   C     C_1   0.237025 0.424867 0.095817 -0.009717
C55   C     C_1   0.273623 0.951814 0.910615 -0.007587
C56   C     C_1   0.736941 0.925161 0.095737 -0.009682
C57   C     C_1   0.733557 0.358098 0.025354 -0.048251
C58   C     C_1   0.252482 0.408216 0.965393 -0.049877
C59   C     C_1   0.243339 0.888469 0.031556 -0.044931
C60   C     C_1   0.752370 0.908696 0.965294 -0.048807
C61   C     C_1   0.744594 0.382179 0.956551 -0.043855
C62   C     C_1   0.245636 0.415068 0.036144 -0.049911
C63   C     C_1   0.258756 0.922394 0.966027 -0.043337
C64   C     C_1   0.745524 0.915519 0.036047 -0.049343
C65   C     C_1   0.727074 0.338289 0.085009 -0.017533
C66   C     C_1   0.257402 0.395265 0.905001 -0.007766
C67   C     C_1   0.232705 0.857488 0.088211 -0.009355
C68   C     C_1   0.757318 0.895614 0.904915 -0.007720
C69   C     C_R   0.741079 0.369002 0.359418 0.551293
C70   C     C_R   0.259650 0.365225 0.638719 0.545227
C71   C     C_R   0.241080 0.869006 0.359416 0.550747
C72   C     C_R   0.759650 0.865226 0.638720 0.543161
C73   C     C_R   0.721912 0.952369 0.163749 0.542058
C74   C     C_R   0.292246 0.989768 0.845748 0.534836
C75   C     C_R   0.221934 0.452302 0.163779 0.542659
C76   C     C_R   0.777488 0.450550 0.835541 0.547110
C77   C     C_R   0.559618 0.181863 0.135574 0.530588
C78   C     C_R   0.440688 0.182198 0.864489 0.535554
C79   C     C_R   0.059617 0.681849 0.135570 0.533135
C80   C     C_R   0.940585 0.682218 0.864477 0.553026
C81   C     C_R   0.722135 0.310284 0.156083 0.541915
C82   C     C_R   0.264076 0.360720 0.835596 0.536529
C83   C     C_R   0.223696 0.816084 0.155682 0.535408
C84   C     C_R   0.764050 0.860821 0.835557 0.540280
C85   C     C_1   0.484984 0.172487 0.594267 -0.019681
C86   C     C_1   0.512238 0.173854 0.404286 -0.025942
C87   C     C_1   0.984981 0.672487 0.594265 -0.018210
C88   C     C_1   0.012236 0.673853 0.404285 -0.025815
C89   C     C_1   0.501855 0.171636 0.463729 -0.071889
C90   C     C_1   0.494167 0.170685 0.534474 -0.066753
C91   C     C_1   0.001852 0.671635 0.463728 -0.071921
C92   C     C_1   0.994164 0.670684 0.534472 -0.066428
C93   C     C_3   0.704863 0.456595 0.519541 -0.120270
C94   C     C_3   0.280618 0.534499 0.491688 -0.126721
C95   C     C_3   0.204867 0.956600 0.519540 -0.119823
C96   C     C_3   0.780618 0.034500 0.491688 -0.126576
Cr1   Cr    Cr6+3 0.765830 0.160660 0.268180 1.014717
Cr2   Cr    Cr6+3 0.234170 0.160660 0.731820 1.018661
Cr3   Cr    Cr6+3 0.265830 0.660660 0.268180 1.015456
Cr4   Cr    Cr6+3 0.734170 0.660660 0.731820 1.016930
Cr5   Cr    Cr6+3 0.612110 0.009150 0.248770 1.017251
Cr6   Cr    Cr6+3 0.387890 0.009150 0.751230 1.020822
Cr7   Cr    Cr6+3 0.112110 0.509150 0.248770 1.017844
Cr8   Cr    Cr6+3 0.887890 0.509150 0.751230 1.022466
Cr9   Cr    Cr6+3 0.615930 0.324050 0.248450 1.022133
Cr10  Cr    Cr6+3 0.384070 0.324050 0.751550 1.019409
Cr11  Cr    Cr6+3 0.115930 0.824050 0.248450 1.022343
Cr12  Cr    Cr6+3 0.884070 0.824050 0.751550 1.022514
H1    H     H_    0.699402 0.255762 0.476011 0.109508
H2    H     H_    0.350699 0.363453 0.529442 0.120890
H3    H     H_    0.199410 0.755766 0.476010 0.109439
H4    H     H_    0.850697 0.863452 0.529442 0.120830
H5    H     H_    0.655546 0.463584 0.541525 0.126361
H6    H     H_    0.318614 0.603214 0.478801 0.129043
H7    H     H_    0.155550 0.963586 0.541522 0.127108
H8    H     H_    0.818614 0.103213 0.478801 0.129034
H9    H     H_    0.692429 0.601330 0.429163 0.118239
H10   H     H_    0.224797 0.627193 0.580993 0.123603
H11   H     H_    0.192429 0.101334 0.429161 0.118208
H12   H     H_    0.724798 0.127194 0.580995 0.121410
H13   H     H_    0.329424 0.139240 0.511087 0.101248
H14   H     H_    0.617961 0.035422 0.478778 0.117616
H15   H     H_    0.829422 0.639229 0.511091 0.101122
H16   H     H_    0.117961 0.535419 0.478776 0.117715
H17   H     H_    0.834377 0.281216 0.556737 0.127143
H18   H     H_    0.247125 0.276030 0.426714 0.124802
H19   H     H_    0.334385 0.781227 0.556732 0.127445
H20   H     H_    0.747123 0.776029 0.426716 0.124812
H21   H     H_    0.575045 0.991995 0.022655 0.129685
H22   H     H_    0.425789 0.355193 0.978071 0.128454
H23   H     H_    0.073090 0.489763 0.023173 0.130521
H24   H     H_    0.927582 0.857461 0.977593 0.128805
H25   H     H_    0.589077 0.177776 0.922227 0.132027
H26   H     H_    0.570013 0.359584 0.023365 0.128537
H27   H     H_    0.088924 0.673496 0.922124 0.134210
H28   H     H_    0.071984 0.857300 0.022800 0.127020
H29   H     H_    0.411555 0.169306 0.077761 0.134134
H30   H     H_    0.430247 0.987704 0.975795 0.125289
H31   H     H_    0.911521 0.673596 0.077864 0.134819
H32   H     H_    0.928130 0.489990 0.976366 0.130713
O1    O     O_R   0.783230 0.287800 0.346510 -0.528576
O2    O     O_R   0.216770 0.287800 0.653490 -0.528927
O3    O     O_R   0.283230 0.787800 0.346510 -0.528471
O4    O     O_R   0.716770 0.787800 0.653490 -0.529212
O5    O     O_R   0.554500 0.081650 0.170370 -0.491473
O6    O     O_R   0.445500 0.081650 0.829630 -0.504678
O7    O     O_R   0.054500 0.581650 0.170370 -0.491607
O8    O     O_R   0.945500 0.581650 0.829630 -0.494868
O9    O     O_R   0.545430 0.285140 0.163100 -0.509849
O10   O     O_R   0.454570 0.285140 0.836900 -0.502491
O11   O     O_R   0.045430 0.785140 0.163100 -0.509474
O12   O     O_R   0.954570 0.785140 0.836900 -0.505521
O13   O     O_R   0.677850 0.374730 0.185500 -0.499963
O14   O     O_R   0.322150 0.374730 0.814500 -0.508760
O15   O     O_R   0.177850 0.874730 0.185500 -0.501156
O16   O     O_R   0.822150 0.874730 0.814500 -0.509674
O17   O     O_3   0.664630 0.164620 0.255130 -0.313505
O18   O     O_3   0.335370 0.164620 0.744870 -0.306171
O19   O     O_3   0.164630 0.664620 0.255130 -0.309993
O20   O     O_3   0.835370 0.664620 0.744870 -0.291580
O21   O     O_R   0.760130 0.037060 0.338610 -0.496778
O22   O     O_R   0.239870 0.037060 0.661390 -0.497159
O23   O     O_R   0.260130 0.537060 0.338610 -0.496887
O24   O     O_R   0.739870 0.537060 0.661390 -0.504281
O25   O     O_R   0.666620 0.921370 0.332440 -0.512043
O26   O     O_R   0.333380 0.921370 0.667560 -0.509718
O27   O     O_R   0.166620 0.421370 0.332440 -0.512363
O28   O     O_R   0.833380 0.421370 0.667560 -0.516396
O29   O     O_R   0.557170 0.082420 0.312350 -0.509510
O30   O     O_R   0.442830 0.082420 0.687650 -0.507310
O31   O     O_R   0.057170 0.582420 0.312350 -0.509716
O32   O     O_R   0.942830 0.582420 0.687650 -0.507620
O33   O     O_R   0.548310 0.285980 0.316250 -0.497469
O34   O     O_R   0.451690 0.285980 0.683750 -0.502114
O35   O     O_R   0.048310 0.785980 0.316250 -0.497542
O36   O     O_R   0.951690 0.785980 0.683750 -0.502228
O37   O     O_R   0.680520 0.375500 0.327470 -0.497675
O38   O     O_R   0.319480 0.375500 0.672530 -0.500396
O39   O     O_R   0.180520 0.875500 0.327470 -0.497664
O40   O     O_R   0.819480 0.875500 0.672530 -0.502570
O41   O     O_R   0.780350 0.286970 0.193350 -0.494379
O42   O     O_R   0.219650 0.286970 0.806650 -0.508718
O43   O     O_R   0.280350 0.786970 0.193350 -0.495590
O44   O     O_R   0.719650 0.786970 0.806650 -0.502512
O45   O     O_R   0.757460 0.036290 0.196640 -0.504934
O46   O     O_R   0.242540 0.036290 0.803360 -0.477791
O47   O     O_R   0.257460 0.536290 0.196640 -0.502739
O48   O     O_R   0.742540 0.536290 0.803360 -0.487836
O49   O     O_R   0.663740 0.920540 0.179290 -0.508410
O50   O     O_R   0.336260 0.920540 0.820710 -0.501099
O51   O     O_R   0.163740 0.420540 0.179290 -0.508908
O52   O     O_R   0.836260 0.420540 0.820710 -0.512098
C97   C     C_3   0.893820 0.420926 0.442708 -0.382777
H33   H     H_    0.936108 0.439514 0.485158 0.133176
H34   H     H_    0.900043 0.325615 0.423842 0.152384
H35   H     H_    0.896425 0.486720 0.399596 0.145070
C98   C     C_3   0.130935 0.275110 0.524614 -0.376142
H36   H     H_    0.099550 0.258067 0.473707 0.122780
H37   H     H_    0.153195 0.187051 0.545506 0.157490
H38   H     H_    0.097288 0.313822 0.560972 0.146060
C99   C     C_3   0.393821 0.920941 0.442700 -0.382836
H39   H     H_    0.436111 0.939528 0.485149 0.133219
H40   H     H_    0.400044 0.825631 0.423833 0.152320
H41   H     H_    0.396424 0.986737 0.399589 0.144938
C100  C     C_3   0.630934 0.775113 0.524615 -0.376266
H42   H     H_    0.599548 0.758071 0.473709 0.122773
H43   H     H_    0.653193 0.687052 0.545506 0.157694
H44   H     H_    0.597288 0.813825 0.560974 0.145746

loop_
_geom_bond_atom_site_label_1
_geom_bond_atom_site_label_2
_ccdc_geom_bond_type
C58   C62   S    
Cr9   O13   S    
C67   C83   S    
Cr10  O10   S    
C49   H29   S    
C98   H38   S    
C17   C29   S    
C99   H39   S    
C14   C18   S    
C7    C27   S    
C35   C39   S    
C35   C36   S    
C8    C96   S    
C81   O41   A    
C44   C80   S    
C19   C31   S    
Cr6   O18   S    
Cr3   O47   S    
C94   H6    S    
C3    O27   A    
C38   C49   S    
C100  H42   S    
C10   C22   S    
C15   C19   S    
C97   H33   S    
Cr5   O5    S    
Cr11  O35   S    
C23   C99   S    
C37   C41   S    
C33   C42   S    
C38   H22   S    
Cr3   O3    S    
C16   C20   S    
Cr4   O48   S    
C9    C69   S    
Cr1   O45   S    
C38   C42   S    
Cr3   O19   S    
C16   H12   S    
C15   C95   S    
C73   O49   A    
C11   C71   S    
C13   H9    S    
C100  H44   S    
C83   O15   A    
C34   H26   S    
C69   O1    A    
Cr8   O52   S    
C24   C100  S    
C81   O13   A    
Cr1   O41   S    
Cr12  O40   S    
C80   O12   A    
C46   O34   A    
C26   H18   S    
C71   O39   A    
C98   H37   S    
C9    C13   S    
C25   H17   S    
C22   C98   S    
C59   C67   T    
Cr12  O12   S    
C55   C74   S    
C11   C15   S    
C17   H15   S    
Cr9   O17   S    
Cr2   O18   S    
C15   H11   S    
Cr10  O14   S    
C55   C63   T    
C4    O24   A    
Cr5   O29   S    
C18   C30   S    
C23   C27   S    
C2    O26   A    
C40   C44   S    
C20   H14   S    
C4    C29   S    
C76   O48   A    
C3    O23   A    
Cr8   O32   S    
C46   C85   S    
Cr11  O11   S    
C44   C52   S    
C39   C52   S    
C40   H24   S    
Cr5   O17   S    
Cr6   O26   S    
Cr9   O33   S    
C87   C92   T    
Cr2   O2    S    
Cr7   O31   S    
C99   H40   S    
C2    O22   A    
C98   H36   S    
C34   C41   S    
C53   C61   T    
Cr8   O20   S    
C36   H28   S    
C28   C32   S    
C41   C49   S    
C73   O45   A    
Cr2   O22   S    
C69   O37   A    
C58   C66   T    
C7    C11   S    
C74   O46   A    
C100  H43   S    
C25   C29   S    
C70   O2    A    
C16   C96   S    
C27   C31   S    
C51   C52   S    
C68   C84   S    
C12   C16   S    
C84   O44   A    
Cr10  O38   S    
C10   C14   S    
C35   H27   S    
C91   C92   S    
C29   C93   S    
C19   C23   S    
C70   O38   A    
C39   C43   S    
C54   C62   T    
C6    C94   S    
Cr10  O18   S    
C1    C32   S    
C33   C37   S    
C46   O30   A    
C82   O14   A    
C13   C93   S    
C2    C31   S    
Cr1   O17   S    
C6    H2    S    
C3    C30   S    
C75   O51   A    
C5    C9    S    
C76   O52   A    
C45   O33   A    
Cr8   O28   S    
Cr4   O20   S    
C47   O31   A    
Cr12  O16   S    
C88   C91   T    
C36   C40   S    
C8    C12   S    
C97   H35   S    
Cr11  O19   S    
C74   O50   A    
C56   C64   T    
C33   C34   S    
Cr10  O34   S    
C48   C87   S    
C83   O43   A    
Cr4   O24   S    
C78   O10   A    
C93   H5    S    
Cr7   O27   S    
Cr5   O25   S    
C35   C44   S    
Cr1   O1    S    
C42   C50   S    
C5    C25   S    
C10   C70   S    
C14   C94   S    
Cr9   O37   S    
C32   C96   S    
C42   C78   S    
Cr1   O21   S    
Cr4   O4    S    
C8    C28   S    
C99   H41   S    
Cr3   O23   S    
C59   C63   S    
C53   C76   S    
Cr7   O51   S    
C72   O40   A    
C77   O9    A    
C9    C21   S    
C77   O5    A    
C7    C95   S    
C48   O32   A    
C14   H10   S    
C20   C32   S    
C79   O11   A    
C72   O4    A    
C21   C25   S    
C19   H13   S    
C56   C73   S    
Cr11  O39   S    
C1    O25   A    
C34   C38   S    
Cr3   O43   S    
C33   H25   S    
C75   O47   A    
C24   C28   S    
C57   C65   T    
C86   C89   T    
C45   O29   A    
C6    C10   S    
C5    C93   S    
C85   C90   T    
C50   H30   S    
C57   C61   S    
Cr12  O20   S    
Cr2   O42   S    
C7    H3    S    
C40   C51   S    
Cr9   O9    S    
C82   O42   A    
Cr5   O49   S    
C13   C17   S    
C60   C64   S    
C47   C88   S    
C18   C22   S    
C45   C86   S    
C95   H7    S    
Cr8   O8    S    
Cr2   O46   S    
Cr6   O6    S    
C66   C82   S    
C41   C77   S    
C37   C50   S    
C84   O16   A    
Cr7   O19   S    
C6    C26   S    
C71   O3    A    
C39   H23   S    
Cr6   O30   S    
C43   C51   S    
C31   C95   S    
Cr12  O36   S    
C5    H1    S    
C11   C23   S    
Cr6   O50   S    
C8    H4    S    
C37   H21   S    
C79   O7    A    
C12   C72   S    
C12   C24   S    
Cr4   O44   S    
C17   C21   S    
C27   H19   S    
C78   O6    A    
C47   O35   A    
C1    O21   A    
C54   C75   S    
C52   H32   S    
C4    O28   A    
C80   O8    A    
C60   C68   T    
C30   C94   S    
C49   C50   S    
C22   C26   S    
C65   C81   S    
C96   H8    S    
C36   C43   S    
C97   H34   S    
C21   C97   S    
C89   C90   S    
C43   C79   S    
C20   C24   S    
Cr11  O15   S    
C28   H20   S    
C18   H16   S    
Cr7   O7    S    
C48   O36   A    
C26   C30   S    
C51   H31   S    
