data_mof_unit_49193.cif
_audit_creation_date              2012-12-11T15:16:42-0500
_audit_creation_method            fapswitch 2.2
_symmetry_space_group_name_H-M    P1
_symmetry_Int_Tables_number       1
_space_group_crystal_system       triclinic
_cell_length_a                    25.121626
_cell_length_b                    7.233246
_cell_length_c                    21.919886
_cell_angle_alpha                 90.000067
_cell_angle_beta                  110.222464
_cell_angle_gamma                 90.000036
_cell_volume                      3737.55535968

loop_
_atom_site_label
_atom_site_type_symbol
_atom_type_description
_atom_site_fract_x
_atom_site_fract_y
_atom_site_fract_z
_atom_type_partial_charge
O1    O     O_R   0.554350 0.505270 0.581390 -0.531392
O2    O     O_R   0.445650 0.005270 0.418610 -0.531392
O3    O     O_R   0.553380 0.177580 0.454800 -0.540716
O4    O     O_R   0.446620 0.677580 0.545200 -0.540716
C1    C     C_R   0.565870 0.344561 0.438301 0.676717
C2    C     C_R   0.434130 0.844561 0.561699 0.676717
O5    O     O_R   0.560970 0.175640 0.583140 -0.532536
O6    O     O_R   0.439030 0.675640 0.416860 -0.532536
O7    O     O_R   0.453290 0.004120 0.547860 -0.538733
O8    O     O_R   0.546710 0.504120 0.452140 -0.538734
C3    C     C_R   0.576076 0.343892 0.607560 0.676614
C4    C     C_R   0.423924 0.843892 0.392440 0.676614
O9    O     O_3   0.464660 0.338800 0.488280 -0.372920
O10   O     O_3   0.535340 0.838800 0.511720 -0.372920
V1    V     V_3+5 0.506560 0.064420 0.502170 1.413801
V2    V     V_3+5 0.493440 0.564420 0.497830 1.413801
C5    C     C_R   0.148445 0.984226 0.288789 -0.154971
C6    C     C_R   0.851555 0.484217 0.711211 -0.154971
H1    H     H_    0.063141 0.011775 0.222402 0.109295
H2    H     H_    0.936860 0.511766 0.777598 0.109295
H3    H     H_    0.234027 0.982967 0.400990 0.130344
H4    H     H_    0.765973 0.482955 0.599010 0.130344
H5    H     H_    0.136149 0.014650 0.330494 0.119425
H6    H     H_    0.863852 0.514637 0.669506 0.119425
C7    C     C_R   0.120813 0.942614 0.172408 -0.035365
C8    C     C_R   0.879187 0.442612 0.827591 -0.035365
C9    C     C_R   0.396622 0.811804 0.273865 -0.158246
C10   C     C_R   0.603378 0.311811 0.726135 -0.158246
C11   C     C_R   0.357214 0.808192 0.211102 -0.113986
C12   C     C_R   0.642786 0.308200 0.788898 -0.113986
C13   C     C_R   0.299924 0.840593 0.199897 -0.156446
C14   C     C_R   0.700075 0.340599 0.800103 -0.156445
C15   C     C_R   0.280290 0.878344 0.251814 0.076543
C16   C     C_R   0.719710 0.378346 0.748186 0.076543
C17   C     C_R   0.321290 0.883857 0.316388 0.068743
C18   C     C_R   0.678710 0.383855 0.683612 0.068742
C19   C     C_R   0.221437 0.910467 0.241799 0.073361
C20   C     C_R   0.778563 0.410466 0.758201 0.073362
C21   C     C_R   0.205416 0.949255 0.296649 0.135221
C22   C     C_R   0.794585 0.449249 0.703351 0.135221
C23   C     C_R   0.246235 0.953812 0.359125 -0.195629
C24   C     C_R   0.753765 0.453803 0.640875 -0.195629
C25   C     C_R   0.303129 0.921263 0.368946 -0.190433
C26   C     C_R   0.696871 0.421257 0.631054 -0.190432
C27   C     C_R   0.177720 0.906409 0.179495 -0.211899
C28   C     C_R   0.822280 0.406411 0.820505 -0.211900
C29   C     C_R   0.106704 0.982172 0.227271 -0.162854
C30   C     C_R   0.893296 0.482165 0.772729 -0.162854
C31   C     C_R   0.379661 0.849835 0.326940 -0.079912
C32   C     C_R   0.620338 0.349837 0.673060 -0.079912
H7    H     H_    0.186403 0.878131 0.135583 0.095415
H8    H     H_    0.813597 0.378136 0.864417 0.095415
H9    H     H_    0.440811 0.784306 0.281155 0.107917
H10   H     H_    0.559188 0.284315 0.718845 0.107917
H11   H     H_    0.272106 0.834906 0.149961 0.111142
H12   H     H_    0.727893 0.334914 0.850039 0.111142
H13   H     H_    0.371185 0.778993 0.170581 0.125854
H14   H     H_    0.628814 0.279005 0.829419 0.125854
H15   H     H_    0.332920 0.926069 0.418318 0.112775
H16   H     H_    0.667080 0.426061 0.581681 0.112774
C33   C     C_R   0.120668 0.765340 0.881528 -0.160949
C34   C     C_R   0.879334 0.265341 0.118474 -0.160948
H17   H     H_    0.105401 0.637336 0.895142 0.123746
H18   H     H_    0.894602 0.137336 0.104861 0.123746
C35   C     C_R   0.156448 0.755506 0.844794 -0.138772
C36   C     C_R   0.843554 0.255506 0.155208 -0.138772
C37   C     C_R   0.177398 0.917183 0.825430 0.020390
C38   C     C_R   0.822602 0.417183 0.174570 0.020390
C39   C     C_R   0.161731 0.089144 0.844168 -0.135392
C40   C     C_R   0.838267 0.589144 0.155830 -0.135392
H19   H     H_    0.176990 0.216743 0.830259 0.138558
H20   H     H_    0.823007 0.716742 0.169737 0.138559
C41   C     C_R   0.125928 0.099084 0.880978 -0.160036
C42   C     C_R   0.874070 0.599083 0.119020 -0.160037
C43   C     C_R   0.104726 0.937265 0.900106 -0.046933
C44   C     C_R   0.895274 0.437265 0.099894 -0.046933
N1    N     N_R   0.235253 0.061995 0.766699 -0.280440
N2    N     N_R   0.764743 0.561995 0.233297 -0.280440
N3    N     N_R   0.268889 0.051974 0.731195 -0.284123
N4    N     N_R   0.731108 0.551973 0.268801 -0.284123
C45   C     C_R   0.283943 0.885730 0.713121 0.513444
C46   C     C_R   0.716057 0.385730 0.286879 0.513444
N5    N     N_R   0.263793 0.729938 0.732236 -0.280444
N6    N     N_R   0.736210 0.229939 0.267768 -0.280444
N7    N     N_R   0.230157 0.739960 0.767737 -0.284078
N8    N     N_R   0.769846 0.239960 0.232267 -0.284078
C47   C     C_R   0.215112 0.906198 0.785822 0.513559
C48   C     C_R   0.784888 0.406198 0.214178 0.513560
C49   C     C_R   0.337604 0.702660 0.655146 -0.135275
C50   C     C_R   0.662399 0.202661 0.344857 -0.135275
H21   H     H_    0.322344 0.575090 0.669072 0.138542
H22   H     H_    0.677661 0.075091 0.330934 0.138543
C51   C     C_R   0.373629 0.692619 0.618614 -0.158760
C52   C     C_R   0.626373 0.192619 0.381389 -0.158761
H23   H     H_    0.385008 0.557574 0.605657 0.121319
H24   H     H_    0.614997 0.057575 0.394349 0.121320
C53   C     C_R   0.394883 0.854388 0.599546 -0.047867
C54   C     C_R   0.605117 0.354388 0.400453 -0.047867
C55   C     C_R   0.378699 0.026383 0.617768 -0.162068
C56   C     C_R   0.621298 0.526383 0.382229 -0.162067
H25   H     H_    0.393972 0.154301 0.604095 0.123535
H26   H     H_    0.606022 0.654300 0.395898 0.123535
C57   C     C_R   0.342696 0.036336 0.654231 -0.138716
C58   C     C_R   0.657301 0.536336 0.345766 -0.138716
H27   H     H_    0.331458 0.171347 0.667373 0.134488
H28   H     H_    0.668537 0.671346 0.332621 0.134488
C59   C     C_R   0.321759 0.874689 0.673638 0.020073
C60   C     C_R   0.678241 0.374689 0.326362 0.020073
O11   O     O_R   0.953220 0.285790 0.047790 -0.537735
O12   O     O_R   0.046780 0.785790 0.952210 -0.537735
O13   O     O_R   0.939020 0.617570 0.916840 -0.533670
O14   O     O_R   0.060980 0.117570 0.083160 -0.533670
C61   C     C_R   0.923961 0.448739 0.892457 0.682529
C62   C     C_R   0.076039 0.948740 0.107543 0.682530
O15   O     O_R   0.946600 0.615450 0.045180 -0.541040
O16   O     O_R   0.053400 0.115450 0.954820 -0.541040
O17   O     O_R   0.054370 0.786770 0.081410 -0.531311
O18   O     O_R   0.945630 0.286770 0.918590 -0.531311
C63   C     C_R   0.934271 0.446964 0.061690 0.676345
C64   C     C_R   0.065729 0.946964 0.938310 0.676346
O19   O     O_3   0.035300 0.454160 0.011680 -0.373304
O20   O     O_3   0.964700 0.954160 0.988320 -0.373304
V3    V     V_3+5 0.993450 0.728620 0.997830 1.411142
V4    V     V_3+5 0.006550 0.228620 0.002170 1.411142
H29   H     H_    0.167528 0.620538 0.831436 0.134458
H30   H     H_    0.832475 0.120538 0.168568 0.134458
H31   H     H_    0.114714 0.234118 0.894126 0.121654
H32   H     H_    0.885282 0.734118 0.105870 0.121655

loop_
_geom_bond_atom_site_label_1
_geom_bond_atom_site_label_2
_ccdc_geom_bond_type
C36   C38   A    
C45   C59   S    
C51   C53   A    
C9    C11   A    
C23   C25   A    
C55   C57   A    
O1    C3    A    
O2    C4    A    
C2    O7    A    
C58   H28   S    
C4    C31   S    
O3    V1    S    
C21   C23   A    
C33   C43   A    
O5    C3    A    
C5    H5    S    
C42   C44   A    
C6    H6    S    
C20   C22   A    
N6    N8    A    
O14   V4    S    
N2    N4    A    
C52   C54   A    
C28   H8    S    
C56   C58   A    
C33   H17   S    
C5    C21   A    
C39   H19   S    
C6    C22   A    
O19   V4    S    
C34   H18   S    
C45   N5    A    
C10   C32   A    
C42   H32   S    
O13   C61   A    
C35   C37   A    
C40   C42   A    
C13   C15   A    
C39   C41   A    
C46   C60   S    
C49   H21   S    
C17   C25   A    
O16   C64   A    
C7    C29   A    
C16   C18   A    
C8    C30   A    
N1    N3    A    
O6    V2    S    
C11   C13   A    
C41   C43   A    
C34   C44   A    
C24   C26   A    
O14   C62   A    
C53   C55   A    
C50   C52   A    
N7    C47   A    
C44   C63   S    
O15   V3    S    
C34   C36   A    
O13   V3    S    
C2    C53   S    
N4    C46   A    
O12   C64   A    
N3    C45   A    
C10   H10   S    
O5    V1    S    
C41   H31   S    
C15   C19   A    
C36   H30   S    
C37   C39   A    
C35   H29   S    
O4    V2    S    
C17   C31   A    
O12   V3    S    
C50   H22   S    
O6    C4    A    
C49   C59   A    
C56   H26   S    
H1    C29   S    
C57   H27   S    
O1    V2    S    
O18   V4    S    
C52   H24   S    
O2    V1    S    
H2    C30   S    
H3    C23   S    
O4    C2    A    
N5    N7    A    
C11   H13   S    
O15   C63   A    
C38   C48   S    
C18   C26   A    
C19   C27   A    
C7    C27   A    
C58   C60   A    
C18   C32   A    
O11   C63   A    
N2    C48   A    
O16   V4    S    
C55   H25   S    
C16   C20   A    
C37   C47   S    
C43   C64   S    
C5    C29   A    
O3    C1    A    
C6    C30   A    
C57   C59   A    
C9    H9    S    
O11   V4    S    
C25   H15   S    
C46   N6    A    
C10   C12   A    
O17   V3    S    
C8    C61   S    
C50   C60   A    
C1    O8    A    
C19   C21   A    
C3    C32   S    
O8    V2    S    
C7    C62   S    
C12   C14   A    
H4    C24   S    
C26   H16   S    
C12   H14   S    
C22   C24   A    
C15   C17   A    
N8    C48   A    
C49   C51   A    
C54   C56   A    
C20   C28   A    
C62   O17   A    
C8    C28   A    
C61   O18   A    
C33   C35   A    
C1    C54   S    
N1    C47   A    
C51   H23   S    
O9    V2    S    
C38   C40   A    
C27   H7    S    
O10   V1    S    
C40   H20   S    
C13   H11   S    
O20   V3    S    
C14   H12   S    
C9    C31   A    
O7    V1    S    
C14   C16   A    
