data_mof_unit_7861.cif
_audit_creation_date              2013-03-05T16:47:41-0500
_audit_creation_method            fapswitch 2.2
_symmetry_space_group_name_H-M    P1
_symmetry_Int_Tables_number       1
_space_group_crystal_system       triclinic
_cell_length_a                    8.926241
_cell_length_b                    8.141417
_cell_length_c                    10.578152
_cell_angle_alpha                 88.766264
_cell_angle_beta                  90.077107
_cell_angle_gamma                 89.981582
_cell_volume                      768.559156368

loop_
_atom_site_label
_atom_site_type_symbol
_atom_site_description
_atom_site_fract_x
_atom_site_fract_y
_atom_site_fract_z
_atom_type_partial_charge
O1    O     O_R   0.285350 0.636850 0.500000 -0.615174
O2    O     O_R   0.714650 0.363150 0.500000 -0.615175
O3    O     O_R   0.714650 0.636850 0.500000 -0.600462
O4    O     O_R   0.285350 0.363150 0.500000 -0.600461
C1    C     C_R   0.218148 0.500013 0.500121 0.924686
C2    C     C_R   0.781852 0.499987 0.499879 0.924686
O5    O     O_R   0.499970 0.636850 0.313950 -0.590172
O6    O     O_R   0.500030 0.363150 0.686050 -0.590172
O7    O     O_R   0.500030 0.636850 0.686050 -0.584036
O8    O     O_R   0.499970 0.363150 0.313950 -0.584036
C3    C     C_R   0.489011 0.502098 0.257594 0.972947
C4    C     C_R   0.510989 0.497902 0.742406 0.972947
Zn1   Zn    Zn3+2 0.500000 0.682780 0.500000 1.115881
Zn2   Zn    Zn3+2 0.500000 0.317220 0.500000 1.115881
C5    C     C_3   0.456640 0.649879 0.030861 0.273022
C6    C     C_3   0.543360 0.350121 0.969138 0.273022
C7    C     C_3   0.600646 0.609353 0.960812 0.247103
C8    C     C_3   0.399354 0.390647 0.039188 0.247103
C9    C     C_3   0.365872 0.534447 0.946028 -0.362900
C10   C     C_3   0.634128 0.465553 0.053972 -0.362901
H1    H     H_    0.255899 0.562151 0.901123 0.220011
H2    H     H_    0.744101 0.437848 0.098877 0.220012
C11   C     C_3   0.513040 0.493389 0.876366 -0.264421
C12   C     C_3   0.486960 0.506611 0.123634 -0.264421
C13   C     C_1   0.065239 0.500021 0.500039 -0.104568
C14   C     C_1   0.934761 0.499979 0.499961 -0.104568
N1    N     N_1   0.500000 0.073640 0.500000 0.033120
N2    N     N_1   0.500000 0.926360 0.500000 0.033120
N3    N     N_R   0.403362 0.815515 0.053934 0.269649
O9    O     O_R   0.370953 0.910677 0.957533 -0.275670
O10   O     O_R   0.366480 0.860399 0.166849 -0.303840
N4    N     N_R   0.596638 0.184485 0.946066 0.269649
O11   O     O_R   0.629048 0.089323 0.042467 -0.275671
O12   O     O_R   0.633516 0.139598 0.833150 -0.303839
N5    N     N_R   0.715959 0.727332 0.923019 0.262385
O13   O     O_R   0.793621 0.799910 0.009579 -0.276359
O14   O     O_R   0.756025 0.743680 0.805327 -0.341202
N6    N     N_R   0.284041 0.272668 0.076981 0.262385
O15   O     O_R   0.206379 0.200089 0.990421 -0.276359
O16   O     O_R   0.243975 0.256320 0.194673 -0.341202

loop_
_geom_bond_atom_site_label_1
_geom_bond_atom_site_label_2
_geom_bond_distance
_ccdc_geom_bond_type
C9    C11   1.547059 S    
Zn1   N2    1.983086 S    
N3    O9    1.299561 A    
C8    C12   1.528313 S    
Zn2   N1    1.983086 S    
C6    N4    1.455435 S    
N5    O13   1.299986 A    
O3    Zn1   1.952048 S    
C6    C10   1.542657 S    
O6    C4    1.263562 A    
O3    C2    1.265320 A    
N4    O11   1.299561 A    
C8    N6    1.458460 S    
N3    O10   1.299373 A    
O2    C2    1.265428 A    
O5    C3    1.263562 A    
C4    C11   1.416828 S    
C2    C14   1.364903 S    
C7    C11   1.528313 S    
O1    C1    1.265428 A    
C5    C12   1.531865 S    
N6    O16   1.299863 A    
C10   H2    1.110911 S    
C5    N3    1.455435 S    
C6    C11   1.531865 S    
O4    Zn2   1.952048 S    
N6    O15   1.299987 A    
O2    Zn2   1.952284 S    
O7    C4    1.270973 A    
C1    C13   1.364903 S    
O1    Zn1   1.952284 S    
O8    C3    1.270974 A    
C3    C12   1.416828 S    
O5    Zn1   2.011168 S    
C7    C10   1.542850 S    
C6    C8    1.524166 S    
C8    C9    1.542850 S    
O8    Zn2   1.995349 S    
N1    N2    1.199067 T    
C5    C7    1.524166 S    
O7    Zn1   1.995349 S    
O6    Zn2   2.011168 S    
C7    N5    1.458460 S    
N5    O14   1.299863 A    
C13   C14   1.164677 T    
C5    C9    1.542657 S    
C10   C12   1.547059 S    
O4    C1    1.265320 A    
C9    H1    1.110911 S    
N4    O12   1.299375 A    
