data_mof_unit_64494.cif
_audit_creation_date              2013-03-05T16:27:58-0500
_audit_creation_method            fapswitch 2.2
_symmetry_space_group_name_H-M    P1
_symmetry_Int_Tables_number       1
_space_group_crystal_system       triclinic
_cell_length_a                    28.226032
_cell_length_b                    18.256192
_cell_length_c                    21.537982
_cell_angle_alpha                 89.939837
_cell_angle_beta                  139.685563
_cell_angle_gamma                 89.982358
_cell_volume                      7180.52681885

loop_
_atom_site_label
_atom_site_type_symbol
_atom_site_description
_atom_site_fract_x
_atom_site_fract_y
_atom_site_fract_z
_atom_type_partial_charge
O1    O     O_R   0.892660 0.939370 0.892650 -0.610789
O2    O     O_R   0.107340 0.060630 0.107350 -0.608010
O3    O     O_R   0.107340 0.939370 0.107350 -0.604248
O4    O     O_R   0.892660 0.060630 0.892650 -0.597975
O5    O     O_R   0.392660 0.439370 0.892650 -0.610788
O6    O     O_R   0.607340 0.560630 0.107350 -0.608010
O7    O     O_R   0.607340 0.439370 0.107350 -0.604247
O8    O     O_R   0.392660 0.560630 0.892650 -0.597976
C1    C     C_R   0.858719 0.000038 0.858976 0.963406
C2    C     C_R   0.141280 0.999957 0.141083 0.970152
C3    C     C_R   0.358720 0.500038 0.858975 0.963398
C4    C     C_R   0.641279 0.499957 0.141083 0.970154
O9    O     O_R   0.999980 0.939370 0.907380 -0.613112
O10   O     O_R   0.000020 0.060630 0.092620 -0.623570
O11   O     O_R   0.000020 0.939370 0.092620 -0.621053
O12   O     O_R   0.999980 0.060630 0.907380 -0.618474
O13   O     O_R   0.499980 0.439370 0.907380 -0.613116
O14   O     O_R   0.500020 0.560630 0.092620 -0.623569
O15   O     O_R   0.500020 0.439370 0.092620 -0.621053
O16   O     O_R   0.499980 0.560630 0.907380 -0.618472
C5    C     C_R   0.994231 0.000049 0.872948 0.956530
C6    C     C_R   0.004964 0.999937 0.126280 0.965735
C7    C     C_R   0.494230 0.500049 0.872947 0.956528
C8    C     C_R   0.504964 0.499937 0.126280 0.965737
Zn1   Zn    Zn3+2 0.000000 0.919050 0.000000 1.063826
Zn2   Zn    Zn3+2 0.000000 0.080950 0.000000 1.051694
Zn3   Zn    Zn3+2 0.500000 0.419050 0.000000 1.063821
Zn4   Zn    Zn3+2 0.500000 0.580950 0.000000 1.051700
C9    C     C_3   0.964698 0.924937 0.748905 0.090540
C10   C     C_3   0.045288 0.070657 0.260790 0.070361
C11   C     C_3   0.042958 0.927035 0.258809 0.100576
C12   C     C_3   0.946143 0.067380 0.730756 0.080433
C13   C     C_3   0.464684 0.424943 0.748892 0.090552
C14   C     C_3   0.545288 0.570657 0.260789 0.070362
C15   C     C_3   0.542959 0.427036 0.258810 0.100575
C16   C     C_3   0.446154 0.567388 0.730767 0.080411
H1    H     H_    0.007060 0.883535 0.804096 0.154766
H2    H     H_    0.013859 0.118638 0.211516 0.159207
H3    H     H_    0.005056 0.881248 0.209446 0.140252
H4    H     H_    0.973420 0.118355 0.774351 0.151312
H5    H     H_    0.507041 0.383534 0.804073 0.154765
H6    H     H_    0.513858 0.618638 0.211515 0.159207
H7    H     H_    0.505057 0.381248 0.209447 0.140252
H8    H     H_    0.473437 0.618359 0.774371 0.151318
C17   C     C_3   0.961201 0.928669 0.673624 0.136987
C18   C     C_3   0.040115 0.071509 0.327744 0.137250
C19   C     C_3   0.047817 0.933424 0.335250 0.155967
C20   C     C_3   0.949884 0.066400 0.662018 0.152120
C21   C     C_3   0.461180 0.428678 0.673604 0.136993
C22   C     C_3   0.540115 0.571509 0.327744 0.137251
C23   C     C_3   0.547817 0.433424 0.335250 0.155969
C24   C     C_3   0.449902 0.566413 0.662036 0.152109
H9    H     H_    0.902947 0.930070 0.600427 0.201488
H10   H     H_    0.096073 0.072688 0.403897 0.200923
H11   H     H_    0.105982 0.943764 0.406162 0.201415
H12   H     H_    0.894601 0.057653 0.586911 0.209419
H13   H     H_    0.402924 0.430099 0.600410 0.201498
H14   H     H_    0.596073 0.572689 0.403897 0.200923
H15   H     H_    0.605982 0.443764 0.406162 0.201414
H16   H     H_    0.394619 0.557687 0.586923 0.209415
H17   H     H_    0.108157 0.967422 0.916671 0.197556
H18   H     H_    0.898953 0.052026 0.094622 0.202239
H19   H     H_    0.895415 0.954245 0.086691 0.201639
H20   H     H_    0.094065 0.064307 0.898993 0.205963
H21   H     H_    0.608151 0.467404 0.916670 0.197562
H22   H     H_    0.398952 0.552025 0.094621 0.202240
H23   H     H_    0.395416 0.454244 0.086691 0.201639
H24   H     H_    0.594074 0.564290 0.898999 0.205955
H25   H     H_    0.111537 0.960798 0.814850 0.199079
H26   H     H_    0.887656 0.041303 0.188216 0.210172
H27   H     H_    0.895183 0.944659 0.191697 0.192652
H28   H     H_    0.104749 0.057487 0.804587 0.202303
H29   H     H_    0.611524 0.460762 0.814841 0.199060
H30   H     H_    0.387655 0.541303 0.188216 0.210172
H31   H     H_    0.395183 0.444659 0.191697 0.192652
H32   H     H_    0.604767 0.557453 0.804604 0.202323
C25   C     C_3   0.072173 0.010796 0.860735 -0.564339
C26   C     C_3   0.926547 0.000874 0.138092 -0.574613
C27   C     C_3   0.572175 0.510781 0.860737 -0.564339
C28   C     C_3   0.426547 0.500873 0.138092 -0.574612
C29   C     C_3   0.991723 0.000504 0.802324 -0.165089
C30   C     C_3   0.007577 0.999556 0.196952 -0.153269
C31   C     C_3   0.491722 0.500504 0.802324 -0.165085
C32   C     C_3   0.507577 0.499556 0.196952 -0.153270
C33   C     C_3   0.998287 0.000939 0.687791 -0.121360
C34   C     C_3   0.001438 0.000213 0.311933 -0.119022
C35   C     C_3   0.498286 0.500938 0.687791 -0.121359
C36   C     C_3   0.501438 0.500213 0.311933 -0.119022
C37   C     C_3   0.076569 0.007734 0.794090 -0.409520
C38   C     C_3   0.922819 0.996295 0.205415 -0.407892
C39   C     C_3   0.576571 0.507710 0.794093 -0.409515
C40   C     C_3   0.422819 0.496294 0.205415 -0.407892
C41   C     C_1   0.782205 0.000115 0.782279 -0.116394
C42   C     C_1   0.217794 0.999879 0.217756 -0.114684
C43   C     C_1   0.282205 0.500115 0.782278 -0.116395
C44   C     C_1   0.717794 0.499879 0.217756 -0.114685
C45   C     C_1   0.717388 0.000098 0.717346 -0.137470
C46   C     C_1   0.282610 0.999900 0.282666 -0.137569
C47   C     C_1   0.217388 0.500098 0.717345 -0.137469
C48   C     C_1   0.782610 0.499900 0.282666 -0.137568
O17   O     O_R   0.939350 0.892680 0.439340 -0.618730
O18   O     O_R   0.060650 0.107320 0.560660 -0.620322
O19   O     O_R   0.060650 0.892680 0.560660 -0.610246
O20   O     O_R   0.939350 0.107320 0.439340 -0.611267
O21   O     O_R   0.439350 0.392680 0.439340 -0.618719
O22   O     O_R   0.560650 0.607320 0.560660 -0.620315
O23   O     O_R   0.560650 0.392680 0.560660 -0.610256
O24   O     O_R   0.439350 0.607320 0.439340 -0.611277
C49   C     C_R   0.000053 0.858750 0.500034 0.979826
C50   C     C_R   0.999947 0.141251 0.499965 0.974743
C51   C     C_R   0.500053 0.358750 0.500034 0.979820
C52   C     C_R   0.499947 0.641251 0.499965 0.974751
O25   O     O_R   0.939380 0.000000 0.531980 -0.628889
O26   O     O_R   0.060620 0.000000 0.468020 -0.627020
O27   O     O_R   0.439380 0.500000 0.531980 -0.628890
O28   O     O_R   0.560620 0.500000 0.468020 -0.627020
O29   O     O_R   0.060570 0.000000 0.653170 -0.636096
O30   O     O_R   0.939430 1.000000 0.346830 -0.636370
O31   O     O_R   0.560570 0.500000 0.653170 -0.636099
O32   O     O_R   0.439430 0.500000 0.346830 -0.636370
C53   C     C_R   0.999924 0.000763 0.621431 1.004508
C54   C     C_R   0.000044 0.000124 0.378527 1.002609
C55   C     C_R   0.499924 0.500761 0.621431 1.004505
C56   C     C_R   0.500044 0.500124 0.378527 1.002609
Zn5   Zn    Zn3+2 0.919050 0.000000 0.419040 1.026164
Zn6   Zn    Zn3+2 0.080950 0.000000 0.580960 1.025476
Zn7   Zn    Zn3+2 0.419050 0.500000 0.419040 1.026164
Zn8   Zn    Zn3+2 0.580950 0.500000 0.580960 1.025474
O33   O     O_R   0.499910 0.107290 0.447610 -0.608688
O34   O     O_R   0.500090 0.892710 0.552390 -0.609856
O35   O     O_R   0.500090 0.107290 0.552390 -0.607211
O36   O     O_R   0.499910 0.892710 0.447610 -0.607869
O37   O     O_R   0.999910 0.607290 0.447610 -0.608689
O38   O     O_R   0.000090 0.392710 0.552390 -0.609861
O39   O     O_R   0.000090 0.607290 0.552390 -0.607208
O40   O     O_R   0.999910 0.392710 0.447610 -0.607868
C57   C     C_R   0.500035 0.140853 0.500008 0.912440
C58   C     C_R   0.499965 0.859147 0.499992 0.911747
C59   C     C_R   0.000035 0.640853 0.500008 0.912440
C60   C     C_R   0.999965 0.359147 0.499992 0.911747
O41   O     O_R   0.607280 0.000000 0.555010 -0.582971
O42   O     O_R   0.392720 0.000000 0.444990 -0.583473
O43   O     O_R   0.107280 0.500000 0.555010 -0.582971
O44   O     O_R   0.892720 0.500000 0.444990 -0.583473
O45   O     O_R   0.607300 0.000000 0.659580 -0.632140
O46   O     O_R   0.392700 0.000000 0.340420 -0.632173
O47   O     O_R   0.107300 0.500000 0.659580 -0.632140
O48   O     O_R   0.892700 0.500000 0.340420 -0.632173
C61   C     C_R   0.640860 0.000031 0.640839 0.911437
C62   C     C_R   0.359139 0.999971 0.359162 0.911302
C63   C     C_R   0.140860 0.500031 0.640839 0.911437
C64   C     C_R   0.859139 0.499971 0.359162 0.911301
Zn9   Zn    Zn3+2 0.499950 0.000000 0.430140 1.044655
Zn10  Zn    Zn3+2 0.500050 0.000000 0.569860 1.043063
Zn11  Zn    Zn3+2 0.999950 0.500000 0.430140 1.044655
Zn12  Zn    Zn3+2 0.000050 0.500000 0.569860 1.043062
C65   C     C_1   0.000143 0.782223 0.500081 -0.128278
C66   C     C_1   0.999857 0.217777 0.499918 -0.127248
C67   C     C_1   0.500143 0.282224 0.500081 -0.128283
C68   C     C_1   0.499857 0.717777 0.499918 -0.127242
C69   C     C_1   0.500118 0.217392 0.500043 -0.141978
C70   C     C_1   0.499882 0.782608 0.499956 -0.142848
C71   C     C_1   0.000118 0.717392 0.500043 -0.141976
C72   C     C_1   0.999882 0.282608 0.499956 -0.142851
N1    N     N_R   0.895065 0.899860 0.706354 0.225886
O49   O     O_R   0.894684 0.842566 0.741967 -0.337930
O50   O     O_R   0.832718 0.927962 0.627064 -0.327648
N2    N     N_R   0.121210 0.079352 0.315059 0.232286
O51   O     O_R   0.135667 0.126475 0.285848 -0.336014
O52   O     O_R   0.175483 0.047206 0.397604 -0.348009
N3    N     N_R   0.114754 0.906346 0.304483 0.235836
O53   O     O_R   0.146820 0.847392 0.357049 -0.305039
O54   O     O_R   0.142367 0.938725 0.283634 -0.347222
N4    N     N_R   0.870360 0.070869 0.679088 0.239435
O55   O     O_R   0.859315 0.079605 0.727196 -0.362999
O56   O     O_R   0.814500 0.079335 0.586360 -0.316914
N5    N     N_R   0.395050 0.399873 0.706345 0.225888
O57   O     O_R   0.394666 0.342578 0.741954 -0.337935
O58   O     O_R   0.332705 0.427984 0.627062 -0.327632
N6    N     N_R   0.621209 0.579353 0.315059 0.232286
O59   O     O_R   0.635666 0.626476 0.285847 -0.336016
O60   O     O_R   0.675483 0.547207 0.397603 -0.348009
N7    N     N_R   0.614755 0.406347 0.304484 0.235836
O61   O     O_R   0.646822 0.347394 0.357052 -0.305039
O62   O     O_R   0.642367 0.438726 0.283634 -0.347223
N8    N     N_R   0.370370 0.570886 0.679093 0.239431
O63   O     O_R   0.359321 0.579622 0.727196 -0.362979
O64   O     O_R   0.314513 0.579355 0.586365 -0.316933
O65   O     O_3   0.991747 0.865593 0.676550 -0.743150
H33   H     H_    0.043100 0.860436 0.742044 0.337890
O66   O     O_3   0.005030 0.135232 0.314879 -0.749642
H34   H     H_    0.957702 0.141174 0.245622 0.342710
O67   O     O_3   0.028067 0.867306 0.344960 -0.729510
H35   H     H_    0.977325 0.854813 0.281989 0.333183
O68   O     O_3   0.974035 0.134025 0.662009 -0.743794
H36   H     H_    0.021068 0.146958 0.729116 0.338844
O69   O     O_3   0.491702 0.365593 0.676501 -0.743138
H37   H     H_    0.543056 0.360421 0.741989 0.337880
O70   O     O_3   0.505030 0.635232 0.314879 -0.749642
H38   H     H_    0.457701 0.641174 0.245622 0.342710
O71   O     O_3   0.528067 0.367306 0.344960 -0.729511
H39   H     H_    0.477326 0.354813 0.281989 0.333183
O72   O     O_3   0.474080 0.634032 0.662058 -0.743808
H40   H     H_    0.521113 0.646949 0.729172 0.338851

loop_
_geom_bond_atom_site_label_1
_geom_bond_atom_site_label_2
_geom_bond_distance
_ccdc_geom_bond_type
O33   Zn9   1.995070 S    
O72   H40   0.990919 S    
O4    C1    1.268918 A    
O44   Zn12  1.996422 S    
N1    O49   1.301304 A    
H21   C27   1.114218 S    
C35   C39   1.557387 S    
H20   C25   1.113873 S    
C21   C35   1.563419 S    
C14   N6    1.471198 S    
C14   H6    1.114617 S    
C18   O66   1.411033 S    
C36   C56   1.464543 S    
C49   C65   1.397076 S    
O32   Zn7   2.028321 S    
C21   H13   1.111952 S    
C21   O69   1.410587 S    
C26   C38   1.533934 S    
O39   C59   1.282251 A    
C12   C29   1.578802 S    
N3    O54   1.300765 A    
C25   C37   1.533194 S    
O12   C5    1.271922 A    
C11   C30   1.578482 S    
C7    C31   1.467846 S    
O14   C8    1.271502 A    
C6    C30   1.466673 S    
O23   Zn8   1.994644 S    
O5    C3    1.268296 A    
N7    O62   1.300765 A    
O38   C60   1.282355 A    
O26   Zn6   2.029199 S    
C43   C47   1.183667 T    
O11   Zn1   2.029007 S    
O25   Zn5   2.029199 S    
O41   Zn9   1.996419 S    
C2    C42   1.397286 S    
C16   C31   1.578808 S    
O17   C49   1.268938 A    
O22   Zn8   1.993393 S    
O7    Zn3   1.995632 S    
C10   H2    1.114615 S    
O30   C54   1.269637 A    
C9    N1    1.472100 S    
O19   Zn6   1.994644 S    
O29   C53   1.270114 A    
N4    O55   1.299673 A    
C51   C67   1.397076 S    
C24   H16   1.108357 S    
O5    Zn3   1.994384 S    
O11   C6    1.270892 A    
O38   Zn12  1.995072 S    
O20   Zn5   1.994642 S    
C36   C40   1.558648 S    
H17   C25   1.114218 S    
N5    O58   1.300386 A    
C34   C54   1.464543 S    
O17   Zn5   1.993395 S    
C67   C69   1.183570 T    
C33   C53   1.464811 S    
O30   Zn5   2.028321 S    
C15   H7    1.114214 S    
O29   Zn6   2.028323 S    
C65   C71   1.183570 T    
C27   C39   1.533196 S    
C16   C24   1.562610 S    
O40   C60   1.282249 A    
O31   Zn8   2.028323 S    
C11   N3    1.475030 S    
H24   C27   1.113872 S    
O43   C63   1.282039 A    
O21   C51   1.268938 A    
O27   Zn7   2.029199 S    
C17   H9    1.111946 S    
O70   H38   0.991021 S    
N1    O50   1.300385 A    
C11   C19   1.548892 S    
O1    Zn1   1.994384 S    
C12   C20   1.562603 S    
O9    Zn1   2.028243 S    
H26   C38   1.111616 S    
C14   C32   1.575135 S    
H25   C37   1.110836 S    
O6    C4    1.268360 A    
C19   O67   1.410391 S    
O35   Zn10  1.994295 S    
O12   Zn2   2.029009 S    
O7    C4    1.268828 A    
O6    Zn4   1.994382 S    
C14   C22   1.556360 S    
O27   C55   1.269443 A    
O21   Zn7   1.993395 S    
C13   N5    1.472100 S    
O66   H34   0.991021 S    
O13   Zn3   2.028243 S    
C19   C34   1.564542 S    
O3    Zn1   1.995632 S    
O14   Zn4   2.028241 S    
H29   C39   1.110840 S    
C58   C70   1.397313 S    
C34   C38   1.558649 S    
C28   C32   1.554663 S    
O40   Zn11  1.994297 S    
C33   C37   1.557380 S    
O22   C52   1.268943 A    
O16   Zn4   2.029009 S    
C1    C41   1.397297 S    
C12   N4    1.479065 S    
C48   C64   1.397553 S    
O39   Zn12  1.994295 S    
O24   C52   1.269118 A    
C9    C17   1.548877 S    
C22   H14   1.111196 S    
C28   C40   1.533936 S    
C35   C55   1.464813 S    
C17   C33   1.563407 S    
N7    O61   1.301351 A    
C9    C29   1.573005 S    
H30   C40   1.111615 S    
O35   C57   1.282251 A    
C26   C30   1.554662 S    
O43   Zn11  1.996419 S    
O16   C7    1.271921 A    
C25   C29   1.555201 S    
C22   O70   1.411034 S    
C18   H10   1.111194 S    
O36   Zn9   1.994297 S    
O1    C1    1.268296 A    
O2    Zn2   1.994382 S    
O13   C7    1.272043 A    
O10   Zn2   2.028241 S    
O47   Zn12  1.994317 S    
C13   C31   1.573003 S    
N3    O53   1.301350 A    
H31   C40   1.110841 S    
N5    O57   1.301299 A    
O45   Zn10  1.994317 S    
C17   O65   1.410581 S    
N2    O51   1.301178 A    
O48   Zn11  1.994317 S    
C5    C29   1.467847 S    
O37   C59   1.282358 A    
O31   C55   1.270114 A    
C20   O68   1.410540 S    
C15   C23   1.548891 S    
O8    Zn4   1.995633 S    
O18   C50   1.268943 A    
C23   H15   1.113805 S    
N8    O64   1.302161 A    
O34   C58   1.282355 A    
C41   C45   1.183667 T    
O15   Zn3   2.029007 S    
N6    O59   1.301177 A    
C19   H11   1.113805 S    
C46   C62   1.397553 S    
O36   C58   1.282249 A    
C3    C43   1.397297 S    
O65   H33   0.990559 S    
C20   H12   1.108355 S    
C45   C61   1.397542 S    
C10   C30   1.575135 S    
C52   C68   1.397080 S    
O37   Zn11  1.995070 S    
O23   C51   1.269110 A    
H18   C26   1.113974 S    
C24   C35   1.563309 S    
H23   C28   1.114139 S    
O48   C64   1.281956 A    
O18   Zn6   1.993393 S    
C50   C66   1.397080 S    
C23   C36   1.564543 S    
C15   N7    1.475032 S    
O4    Zn2   1.995633 S    
C15   C32   1.578481 S    
O46   C62   1.281956 A    
C66   C72   1.183568 T    
C60   C72   1.397313 S    
O25   C53   1.269443 A    
H22   C28   1.113973 S    
O41   C61   1.282039 A    
O71   H39   0.990606 S    
C10   C18   1.556365 S    
O19   C49   1.269110 A    
C24   O72   1.410546 S    
C13   H5    1.115358 S    
O42   C62   1.282014 A    
C59   C71   1.397322 S    
O15   C8    1.270892 A    
C8    C32   1.466673 S    
C10   N2    1.471196 S    
O44   C64   1.282014 A    
O3    C2    1.268828 A    
O9    C5    1.272041 A    
N6    O60   1.302216 A    
O20   C50   1.269118 A    
H28   C37   1.111488 S    
O10   C6    1.271502 A    
O46   Zn9   1.994317 S    
C47   C63   1.397542 S    
O8    C3    1.268918 A    
O47   C63   1.281925 A    
C44   C48   1.183673 T    
O26   C54   1.269956 A    
N2    O52   1.302215 A    
H27   C38   1.110840 S    
C16   N8    1.479065 S    
C12   H4    1.113671 S    
O24   Zn7   1.994642 S    
O69   H37   0.990562 S    
N4    O56   1.302162 A    
C16   H8    1.113672 S    
H32   C39   1.111491 S    
O68   H36   0.990915 S    
C27   C31   1.555200 S    
O32   C56   1.269637 A    
O33   C57   1.282358 A    
O67   H35   0.990605 S    
O28   Zn8   2.029199 S    
C9    H1    1.115358 S    
C11   H3    1.114213 S    
C42   C46   1.183673 T    
C20   C33   1.563308 S    
C4    C44   1.397286 S    
C22   C36   1.561008 S    
O42   Zn10  1.996422 S    
N8    O63   1.299672 A    
O28   C56   1.269956 A    
C13   C21   1.548877 S    
O34   Zn10  1.995072 S    
O45   C61   1.281925 A    
C23   O71   1.410390 S    
C57   C69   1.397322 S    
C68   C70   1.183568 T    
C18   C34   1.561006 S    
H19   C26   1.114138 S    
O2    C2    1.268360 A    
