data_mof_unit_56939.cif
_audit_creation_date              2012-12-11T15:59:36-0500
_audit_creation_method            fapswitch 2.2
_symmetry_space_group_name_H-M    P1
_symmetry_Int_Tables_number       1
_space_group_crystal_system       triclinic
_cell_length_a                    10.816322
_cell_length_b                    10.817075
_cell_length_c                    16.983334
_cell_angle_alpha                 100.038278
_cell_angle_beta                  99.497992
_cell_angle_gamma                 60.823416
_cell_volume                      1700.97176114

loop_
_atom_site_label
_atom_site_type_symbol
_atom_type_description
_atom_site_fract_x
_atom_site_fract_y
_atom_site_fract_z
_atom_type_partial_charge
Br1   Br    Br    0.051926 0.462254 0.228688 -0.489173
Br2   Br    Br    0.923103 0.805555 0.216366 -0.569308
C1    C     C_R   0.355887 0.775969 0.401343 0.564683
C2    C     C_R   0.859665 0.308686 0.336096 0.015482
C3    C     C_R   0.312597 0.863856 0.167828 0.020352
C4    C     C_R   0.408805 0.374665 0.356949 0.563506
C5    C     C_R   0.448021 0.799304 0.206895 -0.004164
C6    C     C_R   0.462898 0.810137 0.291240 0.048077
C7    C     C_R   0.207674 0.906069 0.290317 -0.119141
C8    C     C_R   0.192362 0.921659 0.210579 -0.109727
C9    C     C_R   0.568015 0.727737 0.163822 -0.116876
C10   C     C_R   0.701197 0.681994 0.204022 -0.093145
C11   C     C_R   0.717358 0.712654 0.287110 -0.111313
C12   C     C_R   0.810260 0.244405 0.195417 -0.055029
C13   C     C_R   0.598386 0.783943 0.330496 0.062819
C14   C     C_R   0.341499 0.844751 0.331111 0.031225
C15   C     C_R   0.284236 0.259777 0.793529 0.000587
C16   C     C_R   0.780235 0.371782 0.405844 0.572660
C17   C     C_R   0.385150 0.144663 0.744469 0.023548
C18   C     C_R   0.386493 0.165478 0.665029 0.024133
C19   C     C_R   0.204556 0.412032 0.686582 -0.151719
C20   C     C_R   0.188822 0.388290 0.761127 -0.148509
C21   C     C_R   0.487893 0.010369 0.770969 -0.107744
C22   C     C_R   0.587485 0.904998 0.721320 -0.117974
C23   C     C_R   0.828698 0.216048 0.275910 -0.010965
C24   C     C_R   0.579100 0.923787 0.641837 -0.065760
C25   C     C_R   0.472126 0.048330 0.612966 -0.067300
C26   C     C_R   0.309894 0.304426 0.640565 0.000100
C27   C     C_1   0.817653 0.342407 0.708907 -0.033301
C28   C     C_R   0.380907 0.714969 0.631001 0.562437
C29   C     C_1   0.845090 0.313309 0.776595 -0.034723
C30   C     C_1   0.358455 0.763619 0.713602 -0.039184
C31   C     C_1   0.325924 0.810570 0.780877 -0.046718
C32   C     C_R   0.905673 0.305912 0.092991 0.552951
C33   C     C_R   0.324296 0.304290 0.117933 0.585076
C34   C     C_R   0.927504 0.377171 0.317592 -0.111763
C35   C     C_R   0.289281 0.897696 0.086815 0.545334
C36   C     C_R   0.886714 0.296985 0.859119 0.539528
C37   C     C_R   0.277495 0.248823 0.877716 0.551251
C38   C     C_R   0.280901 0.880849 0.858049 0.540680
C39   C     C_R   0.364706 0.343426 0.580158 0.545851
C40   C     C_R   0.772691 0.381262 0.629661 0.558840
C41   C     C_1   0.384287 0.363204 0.271284 0.014088
C42   C     C_1   0.358921 0.345582 0.199728 0.032047
C43   C     C_R   0.873049 0.320949 0.175668 0.001096
C44   C     C_2   0.613444 0.864132 0.407288 0.243048
C45   C     C_R   0.940971 0.377376 0.238895 0.115576
C46   C     C_2   0.873892 0.028706 0.368640 0.282444
C47   C     C_R   0.744899 0.181306 0.136124 -0.128544
C48   C     C_R   0.745102 0.058888 0.149788 -0.061817
C49   C     C_R   0.804819 0.004843 0.223066 0.109027
C50   C     C_R   0.827644 0.090148 0.290195 0.033642
Cr1   Cr    Cr6+3 0.608100 0.610860 0.522250 0.983839
Cr2   Cr    Cr6+3 0.288890 0.599990 0.488420 1.056827
Cr3   Cr    Cr6+3 0.603040 0.289190 0.489390 1.069961
Cr4   Cr    Cr6+3 0.053960 0.052250 0.967380 1.032996
Cr5   Cr    Cr6+3 0.059890 0.373160 0.992710 1.068766
Cr6   Cr    Cr6+3 0.373370 0.061690 0.991710 1.000399
H1    H     H_    0.963368 0.437529 0.364667 0.162523
H2    H     H_    0.711128 0.214374 0.076255 0.136316
H3    H     H_    0.721089 0.994760 0.099549 0.155102
H4    H     H_    0.115654 0.933965 0.318979 0.200494
H5    H     H_    0.559840 0.707300 0.098951 0.128263
H6    H     H_    0.085333 0.975851 0.181910 0.179032
H7    H     H_    0.708039 0.818270 0.448763 0.072421
H8    H     H_    0.842309 0.952202 0.378991 0.125424
H9    H     H_    0.789813 0.633058 0.168408 0.224762
H10   H     H_    0.821155 0.690801 0.317070 0.166956
H11   H     H_    0.141203 0.517918 0.667770 0.141579
H12   H     H_    0.498165 0.980935 0.829352 0.175033
H13   H     H_    0.108565 0.475675 0.796025 0.150761
H14   H     H_    0.667000 0.805539 0.743623 0.123082
H15   H     H_    0.651022 0.839158 0.601641 0.128193
H16   H     H_    0.457633 0.055148 0.549862 0.198417
O1    O     O_R   0.749810 0.499790 0.438040 -0.543687
O2    O     O_R   0.411730 0.181020 0.091530 -0.524445
O3    O     O_R   0.365010 0.944360 0.063320 -0.495859
O4    O     O_R   0.477660 0.726260 0.439290 -0.513195
O5    O     O_R   0.159380 0.906670 0.876210 -0.495492
O6    O     O_R   0.930820 0.177420 0.886730 -0.492172
O7    O     O_R   0.910360 0.395420 0.895720 -0.526751
O8    O     O_R   0.186010 0.361730 0.919870 -0.500872
O9    O     O_R   0.400000 0.173010 0.914630 -0.537209
O10   O     O_R   0.354140 0.936940 0.899340 -0.541283
O11   O     O_3   0.162410 0.162370 0.983930 -0.281103
O12   O     O_R   0.298970 0.468800 0.557390 -0.517451
O13   O     O_R   0.260150 0.743000 0.412270 -0.481331
O14   O     O_R   0.297740 0.466550 0.394720 -0.458157
O15   O     O_R   0.488080 0.253500 0.386430 -0.462310
O16   O     O_R   0.722670 0.303800 0.421940 -0.488854
O17   O     O_R   0.751130 0.502220 0.613520 -0.528714
O18   O     O_R   0.478890 0.728510 0.601960 -0.499704
O19   O     O_R   0.261470 0.745430 0.587750 -0.489434
O20   O     O_2   0.523680 0.987415 0.421427 -0.511100
O21   O     O_2   0.950775 0.057830 0.420892 -0.510333
O22   O     O_R   0.489400 0.255930 0.561910 -0.503002
O23   O     O_R   0.723890 0.306050 0.584610 -0.478712
O24   O     O_3   0.500010 0.500010 0.500020 -0.314754
O25   O     O_R   0.171100 0.914680 0.053100 -0.511510
O26   O     O_R   0.941680 0.184840 0.050710 -0.507722
O27   O     O_R   0.922080 0.403420 0.072610 -0.483114
O28   O     O_R   0.196880 0.369150 0.083850 -0.429073

loop_
_geom_bond_atom_site_label_1
_geom_bond_atom_site_label_2
_ccdc_geom_bond_type
Cr2   O14   S    
C2    C34   A    
C16   O1    A    
C46   O21   D    
C3    C35   S    
C27   C40   S    
C38   O10   A    
C17   C18   A    
C34   H1    S    
C2    C23   A    
Cr6   O2    S    
C5    C6    A    
C5    C9    A    
C39   O12   A    
C24   C25   A    
Cr4   O5    S    
C7    C14   A    
C22   C24   A    
Cr3   O16   S    
C9    H5    S    
Cr2   O13   S    
C39   O22   A    
C26   C39   S    
C24   H15   S    
C4    O14   A    
C34   C45   A    
C40   O17   A    
C15   C37   S    
Cr2   O19   S    
Cr6   O3    S    
Cr1   O17   S    
C32   O26   A    
C21   C22   A    
C13   C44   S    
C25   H16   S    
C7    C8    A    
C2    C16   S    
C33   O28   A    
C6    C14   A    
C19   C20   A    
C21   H12   S    
Cr1   O1    S    
C12   C43   A    
C43   C45   A    
C10   H9    S    
C33   O2    A    
C31   C38   S    
C1    O13   A    
C7    H4    S    
C32   O27   A    
C44   H7    S    
C28   O18   A    
C40   O23   A    
C3    C5    A    
Br1   C45   S    
C18   C26   A    
C35   O3    A    
C49   C50   A    
C19   H11   S    
C16   O16   A    
C17   C21   A    
C41   C42   T    
Cr5   O28   S    
Cr6   O10   S    
C44   O20   D    
Cr3   O23   S    
Cr1   O18   S    
C48   C49   A    
C38   O5    A    
C32   C43   S    
C33   C42   S    
C47   H2    S    
C19   C26   A    
C6    C13   A    
C4    C41   S    
C11   C13   A    
C36   O7    A    
Cr5   O7    S    
Cr4   O26   S    
Cr6   O11   S    
C20   H13   S    
C35   O25   A    
C22   H14   S    
Cr2   O12   S    
C8    H6    S    
C37   O8    A    
Cr3   O22   S    
C9    C10   A    
C18   C25   A    
Cr1   O24   S    
C28   O19   A    
C4    O15   A    
Cr5   O27   S    
C15   C20   A    
Cr4   O6    S    
C29   C36   S    
C30   C31   T    
Cr1   O4    S    
C23   C50   A    
C37   O9    A    
C3    C8    A    
C27   C29   T    
Cr6   O9    S    
C28   C30   S    
Cr4   O11   S    
C36   O6    A    
Cr3   O24   S    
C15   C17   A    
Cr5   O11   S    
C12   C23   A    
Br2   C49   S    
C12   C47   A    
C46   C50   S    
C10   C11   A    
Cr3   O15   S    
C47   C48   A    
C48   H3    S    
Cr5   O8    S    
Cr2   O24   S    
Cr4   O25   S    
C46   H8    S    
C1    O4    A    
C1    C14   S    
C11   H10   S    
