data_mof_unit_34049.cif
_audit_creation_date              2012-12-10T20:35:51-0500
_audit_creation_method            fapswitch 2.2
_symmetry_space_group_name_H-M    P1
_symmetry_Int_Tables_number       1
_space_group_crystal_system       triclinic
_cell_length_a                    15.734068
_cell_length_b                    10.718424
_cell_length_c                    9.884205
_cell_angle_alpha                 88.843696
_cell_angle_beta                  89.993145
_cell_angle_gamma                 90.29516
_cell_volume                      1666.55434178

loop_
_atom_site_label
_atom_site_type_symbol
_atom_type_description
_atom_site_fract_x
_atom_site_fract_y
_atom_site_fract_z
_atom_type_partial_charge
C1    C     C_R   0.504371 0.260028 0.501180 0.912988
C2    C     C_R   0.519834 0.128810 0.501533 -0.157830
C3    C     C_R   0.527078 0.067560 0.377236 -0.126653
C4    C     C_R   0.338440 0.499918 0.500105 0.919570
C5    C     C_R   0.523913 0.938235 0.374629 -0.187992
C6    C     C_R   0.514066 0.870989 0.496657 -0.083625
C7    C     C_R   0.523062 0.932732 0.617534 0.014017
C8    C     C_3   0.485565 0.917456 0.755665 -0.235393
C9    C     C_3   0.498021 0.059942 0.764990 0.413218
C10   C     C_R   0.427043 0.521185 0.069674 0.067326
C11   C     C_R   0.574090 0.493377 0.072081 -0.030541
C12   C     C_3   0.948867 0.504566 0.644741 -0.504755
C13   C     C_R   0.574131 0.494723 0.928238 -0.006133
C14   C     C_R   0.427716 0.525432 0.928062 0.097032
C15   C     C_3   0.343329 0.463734 0.917402 -0.432322
C16   C     C_R   0.501551 0.739871 0.498703 0.894112
C17   C     C_3   0.342283 0.454784 0.071864 0.285269
C18   C     C_R   0.661615 0.499722 0.499906 0.894315
C19   C     C_3   0.047402 0.502655 0.649619 0.224339
C20   C     C_3   0.048441 0.375313 0.434816 -0.109126
C21   C     C_3   0.949855 0.378772 0.432157 -0.406385
C22   C     C_1   0.750399 0.499592 0.499414 -0.086605
C23   C     C_3   0.917126 0.500761 0.496133 0.064678
C24   C     C_3   0.082964 0.496421 0.501296 0.107555
C25   C     C_3   0.952564 0.619218 0.420099 0.296662
C26   C     C_3   0.051498 0.613089 0.417067 -0.239399
C27   C     C_1   0.825673 0.500100 0.497680 0.051415
C28   C     C_1   0.174535 0.496453 0.501177 0.081759
C29   C     C_1   0.249758 0.498052 0.500365 -0.096248
C30   C     C_R   0.529988 0.059061 0.621143 0.063936
H1    H     H_    0.920825 0.424864 0.703549 0.262972
H2    H     H_    0.347321 0.373332 0.864560 0.270477
H3    H     H_    0.290979 0.511153 0.117485 0.079240
H4    H     H_    0.068291 0.293873 0.498283 0.234611
H5    H     H_    0.924942 0.296832 0.491125 0.202441
H6    H     H_    0.924701 0.368392 0.328179 0.240083
H7    H     H_    0.073328 0.602507 0.310984 0.224871
H8    H     H_    0.932630 0.701451 0.479148 0.105695
H9    H     H_    0.785042 0.686594 0.168524 0.386028
H10   H     H_    0.362055 0.920527 0.677855 0.198690
H11   H     H_    0.369452 0.887721 0.846324 0.201729
H12   H     H_    0.069667 0.590886 0.695085 0.095212
H13   H     H_    0.389895 0.102320 0.871502 0.222269
H14   H     H_    0.379709 0.125989 0.702690 0.165022
H15   H     H_    0.673638 0.955549 0.834127 0.349306
H16   H     H_    0.102721 0.495103 0.941331 0.349421
H17   H     H_    0.426419 0.139191 0.109335 0.377513
H18   H     H_    0.071394 0.264653 0.271578 0.241969
H19   H     H_    0.055285 0.414118 0.227657 0.259397
H20   H     H_    0.062528 0.756204 0.555825 0.188706
H21   H     H_    0.077039 0.800687 0.393856 0.245353
H22   H     H_    0.925765 0.590641 0.693873 0.171366
H23   H     H_    0.529971 0.118692 0.282088 0.232431
H24   H     H_    0.524056 0.892468 0.277909 0.196020
H25   H     H_    0.525963 0.859579 0.824325 0.198610
H26   H     H_    0.633683 0.484914 0.125747 0.159688
H27   H     H_    0.633785 0.486891 0.874941 0.160221
H28   H     H_    0.294554 0.528621 0.875815 0.178192
N1    N     N_R   0.499430 0.499140 0.142800 -0.084961
N2    N     N_R   0.499430 0.499180 0.857150 -0.082978
N3    N     N_3   0.397254 0.872889 0.752039 -0.437523
N4    N     N_3   0.421263 0.134698 0.784495 -0.390006
N5    N     N_3   0.084609 0.356317 0.299625 -0.404369
N6    N     N_3   0.090071 0.729574 0.464734 -0.466954
O1    O     O_R   0.500010 0.316790 0.614690 -0.582734
O2    O     O_2   0.923665 0.540375 0.161576 -0.305616
O3    O     O_3   0.804473 0.676666 0.263433 -0.554401
O4    O     O_2   0.586388 0.236185 0.895989 -0.225389
O5    O     O_2   0.564553 0.037343 0.016675 -0.349110
O6    O     O_3   0.675446 0.047473 0.821986 -0.509483
O7    O     O_2   0.037357 0.260398 0.741748 -0.251760
O8    O     O_2   0.177469 0.359081 0.752630 -0.316170
O9    O     O_3   0.062938 0.425108 0.924824 -0.478131
O10   O     O_2   0.324660 0.285363 0.278665 -0.288257
O11   O     O_2   0.273867 0.225483 0.055888 -0.273009
O12   O     O_R   0.500000 0.316760 0.385350 -0.562735
O13   O     O_3   0.436699 0.229896 0.096874 -0.513965
O14   O     O_R   0.377150 0.500020 0.614720 -0.617322
O15   O     O_R   0.377140 0.499990 0.385380 -0.593602
O16   O     O_R   0.500000 0.683240 0.614650 -0.605646
O17   O     O_R   0.499990 0.683210 0.385310 -0.640806
O18   O     O_R   0.622860 0.500010 0.614620 -0.631300
O19   O     O_R   0.622850 0.499980 0.385280 -0.615635
O20   O     O_2   0.952180 0.762400 0.192286 -0.277692
S1    S     S_3+6 0.909310 0.648695 0.252718 0.006078
S2    S     S_3+6 0.581537 0.097758 0.880780 0.053748
S3    S     S_3+6 0.083634 0.380950 0.765938 0.033012
S4    S     S_3+6 0.342409 0.294865 0.129629 0.049972
Zn1   Zn    Zn3+2 0.500010 0.500020 0.653130 1.007677
Zn2   Zn    Zn3+2 0.499990 0.499980 0.346870 1.026349

loop_
_geom_bond_atom_site_label_1
_geom_bond_atom_site_label_2
_ccdc_geom_bond_type
H19   N5    S    
C17   S4    S    
O4    S2    D    
H11   N3    S    
O2    S1    D    
C7    C8    S    
C21   H6    S    
N2    Zn1   S    
O1    Zn1   S    
C12   C23   S    
O18   Zn1   S    
C19   C24   S    
C28   C29   T    
C24   C26   S    
C19   S3    S    
C5    C6    A    
C25   H8    S    
C13   H27   S    
C10   C17   S    
C11   C13   A    
H20   N6    S    
C1    C2    S    
O16   Zn1   S    
C26   N6    S    
O9    S3    S    
O15   Zn2   S    
C20   C24   S    
O13   S4    S    
C8    C9    S    
C1    O1    A    
C23   C27   S    
C4    C29   S    
C19   H12   S    
C8    N3    S    
C20   H4    S    
C7    C30   A    
C17   H3    S    
C11   N1    A    
C8    H25   S    
C12   H22   S    
O14   Zn1   S    
O3    S1    S    
C9    N4    S    
C5    H24   S    
C15   H2    S    
O20   S1    D    
C4    O15   A    
C10   C14   A    
C13   N2    A    
H18   N5    S    
H14   N4    S    
C25   C26   S    
H10   N3    S    
C16   O16   A    
N1    Zn2   S    
C4    O14   A    
C9    S2    S    
C25   S1    S    
C18   O19   A    
C9    C30   S    
O7    S3    D    
O17   Zn2   S    
C22   C27   T    
C21   C23   S    
C12   H1    S    
C15   H28   S    
H17   O13   S    
O6    S2    S    
O8    S3    D    
C15   C17   S    
O19   Zn2   S    
H15   O6    S    
C18   C22   S    
C1    O12   A    
H9    O3    S    
H21   N6    S    
C24   C28   S    
C3    C5    A    
C26   H7    S    
C6    C7    A    
C21   H5    S    
C14   N2    A    
C2    C30   A    
C20   N5    S    
C2    C3    A    
C3    H23   S    
C12   C19   S    
C16   O17   A    
C18   O18   A    
C10   N1    A    
C23   C25   S    
O5    S2    D    
C6    C16   S    
O11   S4    D    
C20   C21   S    
C14   C15   S    
O10   S4    D    
H16   O9    S    
C11   H26   S    
H13   N4    S    
O12   Zn2   S    
