data_mof_unit_50617.cif
_audit_creation_date              2012-10-26T19:05:05-0400
_audit_creation_method            fapswitch 2.2
_symmetry_space_group_name_H-M    P1
_symmetry_Int_Tables_number       1
_space_group_crystal_system       triclinic
_cell_length_a                    15.863113
_cell_length_b                    10.782852
_cell_length_c                    9.653521
_cell_angle_alpha                 91.09346
_cell_angle_beta                  89.122874
_cell_angle_gamma                 91.958432
_cell_volume                      1649.78838753

loop_
_atom_site_label
_atom_site_type_symbol
_atom_type_description
_atom_site_fract_x
_atom_site_fract_y
_atom_site_fract_z
_atom_type_partial_charge
C1    C     C_R   0.499137 0.263166 0.498929 0.528485
C2    C     C_R   0.276790 0.062957 0.634347 -0.183214
C3    C     C_R   0.276173 0.934490 0.639825 -0.080546
C4    C     C_R   0.340418 0.497417 0.500815 0.601414
C5    C     C_R   0.347133 0.869624 0.598260 0.374619
C6    C     C_R   0.421611 0.933311 0.549971 0.020002
C7    C     C_R   0.421648 0.064481 0.545765 -0.027578
C8    C     C_R   0.494241 0.129633 0.497202 0.005172
C9    C     C_R   0.565349 0.068203 0.452052 -0.124260
C10   C     C_R   0.567766 0.940067 0.457295 -0.058323
C11   C     C_R   0.495530 0.871635 0.504347 0.021019
C12   C     C_3   0.949173 0.382298 0.433470 -0.225739
C13   C     C_R   0.630739 0.625182 0.143594 -0.055803
C14   C     C_R   0.707942 0.645015 0.076806 0.326684
C15   C     C_R   0.712188 0.632768 0.933982 -0.107653
C16   C     C_R   0.497646 0.737154 0.501264 0.603917
C17   C     C_R   0.635910 0.627025 0.862483 -0.002418
C18   C     C_R   0.564936 0.563173 0.926199 0.143539
C19   C     C_R   0.563973 0.562490 0.074882 0.082898
C20   C     C_R   0.438914 0.439607 0.073799 0.011737
C21   C     C_R   0.438837 0.439790 0.926331 0.013748
C22   C     C_R   0.659540 0.500522 0.499086 0.526080
C23   C     C_3   0.917113 0.504625 0.498617 0.005879
C24   C     C_3   0.046763 0.382503 0.434081 -0.215493
C25   C     C_3   0.052707 0.615201 0.414252 -0.153447
C26   C     C_3   0.954401 0.615113 0.414702 -0.207716
C27   C     C_1   0.749270 0.502386 0.497453 -0.004336
C28   C     C_3   0.082928 0.504451 0.501689 0.089308
C29   C     C_3   0.649937 0.882004 0.415564 -0.389064
C30   C     C_3   0.625017 0.745747 0.785830 -0.344839
C31   C     C_3   0.089958 0.742975 0.460689 -0.434960
C32   C     C_3   0.948979 0.517274 0.649399 -0.164278
C33   C     C_3   0.046623 0.514268 0.651924 0.273061
C34   C     C_1   0.824892 0.503785 0.497465 -0.050958
C35   C     C_1   0.175183 0.500842 0.502845 -0.016529
C36   C     C_1   0.250717 0.498544 0.502592 0.023998
C37   C     C_R   0.348602 0.127792 0.587723 -0.126064
Cu1   Cu    Cu3+1 0.499990 0.499990 0.640660 0.986452
Cu2   Cu    Cu3+1 0.500010 0.500010 0.359340 0.950322
F1    F     F_    0.341071 0.744946 0.606645 -0.645319
F2    F     F_    0.775697 0.689833 0.148326 -0.659222
F3    F     F_    0.070737 0.414282 0.728692 -0.652928
H1    H     H_    0.926747 0.371049 0.325104 0.136172
H2    H     H_    0.071115 0.372690 0.325792 0.106708
H3    H     H_    0.624797 0.661082 0.246462 0.182972
H4    H     H_    0.769642 0.665529 0.882191 0.140552
H5    H     H_    0.388797 0.389750 0.871892 0.122147
H6    H     H_    0.074709 0.600215 0.305211 0.152166
H7    H     H_    0.931864 0.608237 0.306071 0.177014
H8    H     H_    0.930564 0.703398 0.459580 0.140340
H9    H     H_    0.072148 0.599579 0.704858 0.134074
H10   H     H_    0.920964 0.440785 0.712887 0.171282
H11   H     H_    0.661545 0.893935 0.302811 0.166722
H12   H     H_    0.067669 0.300587 0.491272 0.172030
H13   H     H_    0.702605 0.928641 0.473077 0.131822
H14   H     H_    0.651658 0.782217 0.439046 0.123013
H15   H     H_    0.641489 0.732457 0.675077 0.148770
H16   H     H_    0.561310 0.782222 0.805699 0.165213
H17   H     H_    0.668230 0.822318 0.823423 0.102435
H18   H     H_    0.159944 0.743747 0.458052 0.170209
H19   H     H_    0.069784 0.815097 0.388749 0.145949
H20   H     H_    0.067975 0.768948 0.566618 0.124910
H21   H     H_    0.923290 0.301605 0.492635 0.134443
H22   H     H_    0.928042 0.606070 0.697117 0.075418
H23   H     H_    0.620665 0.121274 0.416558 0.124721
H24   H     H_    0.345945 0.227750 0.583715 0.129701
H25   H     H_    0.221308 0.112599 0.665998 0.143583
H26   H     H_    0.220053 0.884447 0.676299 0.133080
H27   H     H_    0.388900 0.389340 0.128391 0.119798
N1    N     N_R   0.500800 0.501210 0.147910 -0.241675
N2    N     N_R   0.500820 0.501290 0.852040 -0.227550
O1    O     O_R   0.499990 0.319640 0.618810 -0.506611
O2    O     O_R   0.500000 0.319660 0.381240 -0.501515
O3    O     O_R   0.379430 0.499990 0.618840 -0.450261
O4    O     O_R   0.379440 0.500020 0.381260 -0.505673
O5    O     O_R   0.500000 0.680340 0.618760 -0.470461
O6    O     O_R   0.500010 0.680360 0.381190 -0.512601
O7    O     O_R   0.620560 0.499980 0.618740 -0.502197
O8    O     O_R   0.620570 0.500010 0.381160 -0.514346

loop_
_geom_bond_atom_site_label_1
_geom_bond_atom_site_label_2
_ccdc_geom_bond_type
C25   C31   S    
C4    C36   S    
C1    C8    S    
C31   H19   S    
C35   C36   T    
C10   C29   S    
C7    C8    A    
Cu1   O5    S    
C25   C28   S    
C12   C23   S    
C21   N2    A    
C33   F3    S    
Cu2   O6    S    
C22   O8    A    
C16   O6    A    
C12   H1    S    
C26   H8    S    
Cu1   Cu2   S    
C24   H12   S    
C30   H15   S    
C18   C19   A    
C23   C26   S    
C32   H10   S    
C4    O4    A    
C3    H26   S    
C28   C35   S    
C8    C9    A    
Cu2   O4    S    
C9    C10   A    
C4    O3    A    
C13   C14   A    
C37   H24   S    
C17   C30   S    
C31   H20   S    
C20   N1    A    
C27   C34   T    
Cu1   O1    S    
C1    O1    A    
C13   C19   A    
C32   H22   S    
C2    H25   S    
C26   H7    S    
C6    C11   A    
C12   H21   S    
C29   H13   S    
C25   C26   S    
Cu2   O8    S    
C31   H18   S    
C11   C16   S    
C23   C34   S    
C30   H17   S    
C17   C18   A    
C7    C37   A    
C25   H6    S    
C22   O7    A    
C14   F2    S    
C28   C33   S    
C22   C27   S    
C24   H2    S    
C20   H27   S    
Cu1   O3    S    
C18   N2    A    
C15   C17   A    
Cu1   N2    S    
C16   O5    A    
C24   C28   S    
C3    C5    A    
C6    C7    A    
C29   H14   S    
C33   H9    S    
Cu1   O7    S    
C12   C24   S    
C1    O2    A    
C23   C32   S    
C2    C3    A    
C32   C33   S    
C13   H3    S    
C2    C37   A    
C5    C6    A    
C29   H11   S    
C30   H16   S    
Cu2   N1    S    
Cu2   O2    S    
C9    H23   S    
C10   C11   A    
C20   C21   A    
C5    F1    S    
C14   C15   A    
C19   N1    A    
C15   H4    S    
C21   H5    S    
