data_mof_unit_42473.cif
_audit_creation_date              2012-12-10T20:38:21-0500
_audit_creation_method            fapswitch 2.2
_symmetry_space_group_name_H-M    P1
_symmetry_Int_Tables_number       1
_space_group_crystal_system       triclinic
_cell_length_a                    9.937065
_cell_length_b                    10.673374
_cell_length_c                    16.551041
_cell_angle_alpha                 90.354685
_cell_angle_beta                  82.70449
_cell_angle_gamma                 89.664353
_cell_volume                      1741.15294978

loop_
_atom_site_label
_atom_site_type_symbol
_atom_type_description
_atom_site_fract_x
_atom_site_fract_y
_atom_site_fract_z
_atom_type_partial_charge
C1    C     C_R   0.500312 0.739827 0.497347 0.873465
C2    C     C_R   0.536214 0.522576 0.259053 -0.030538
C3    C     C_R   0.382059 0.936778 0.481522 0.143017
C4    C     C_R   0.478316 0.505585 0.653391 0.867683
C5    C     C_R   0.502913 0.871145 0.483826 -0.104656
C6    C     C_R   0.627287 0.934117 0.470204 -0.226729
C7    C     C_R   0.627682 0.063642 0.470391 -0.236002
C8    C     C_R   0.503700 0.128566 0.483887 -0.106362
C9    C     C_R   0.382492 0.064632 0.481535 0.134328
C10   C     C_3   0.251693 0.073440 0.536989 -0.472577
C11   C     C_3   0.251283 0.931476 0.537033 -0.498534
C12   C     C_R   0.352448 0.501724 0.792042 -0.219300
C13   C     C_R   0.913845 0.516389 0.570785 0.207253
C14   C     C_R   0.947206 0.471379 0.430568 0.103426
C15   C     C_R   0.089369 0.469471 0.432486 -0.163676
C16   C     C_R   0.500892 0.260151 0.497307 0.871927
C17   C     C_R   0.055728 0.516783 0.570644 0.200666
C18   C     C_3   0.049297 0.627190 0.626382 -0.504520
C19   C     C_3   0.896314 0.627166 0.626569 -0.510420
C20   C     C_R   0.521225 0.502096 0.346331 0.855005
C21   C     C_R   0.458892 0.547858 0.737365 -0.067194
C22   C     C_R   0.536492 0.648523 0.759544 -0.227370
C23   C     C_R   0.436710 0.512971 0.133828 -0.150202
C24   C     C_R   0.514810 0.698246 0.838148 0.242054
C25   C     C_R   0.416926 0.641835 0.895766 0.186434
C26   C     C_R   0.332235 0.548019 0.871306 -0.214927
C27   C     C_3   0.906994 0.447602 0.346700 -0.355842
C28   C     C_3   0.855801 0.313786 0.336483 -0.314129
C29   C     C_3   0.836390 0.285689 0.248178 -0.907703
C30   C     C_3   0.596860 0.810197 0.857746 -0.962610
C31   C     C_R   0.437043 0.476591 0.213982 -0.214065
C32   C     C_R   0.637818 0.602174 0.222506 -0.216975
C33   C     C_R   0.638490 0.637371 0.141706 -0.170183
C34   C     C_R   0.535339 0.596287 0.098163 0.196771
C35   C     C_2   0.418955 0.656902 0.983310 -0.242070
C36   C     C_2   0.535240 0.634891 0.013883 -0.238250
H1    H     H_    0.611622 0.690739 0.714861 0.153185
H2    H     H_    0.081143 0.603176 0.686435 0.206092
H3    H     H_    0.357958 0.415055 0.241439 0.137882
H4    H     H_    0.099239 0.710767 0.596812 0.210887
H5    H     H_    0.840722 0.603042 0.686931 0.205015
H6    H     H_    0.857127 0.711059 0.597310 0.210214
H7    H     H_    0.712008 0.642551 0.257254 0.136574
H8    H     H_    0.631564 0.631975 0.974612 0.170289
H9    H     H_    0.256170 0.504947 0.914999 0.136397
H10   H     H_    0.359403 0.476036 0.099816 0.126824
H11   H     H_    0.288184 0.427539 0.774110 0.146305
H12   H     H_    0.716105 0.700260 0.114150 0.129440
H13   H     H_    0.322845 0.656092 0.022849 0.149899
H14   H     H_    0.762685 0.352427 0.226916 0.276571
H15   H     H_    0.934618 0.292458 0.208157 0.257882
H16   H     H_    0.796837 0.189186 0.243450 0.251254
H17   H     H_    0.930404 0.245582 0.355688 0.198500
H18   H     H_    0.758383 0.299280 0.374690 0.261417
H19   H     H_    0.841442 0.522846 0.329229 0.214346
H20   H     H_    0.996750 0.458486 0.299726 0.159418
H21   H     H_    0.586080 0.885557 0.812984 0.245465
H22   H     H_    0.562610 0.849429 0.919196 0.258852
H23   H     H_    0.723464 0.884568 0.465475 0.169276
H24   H     H_    0.705602 0.783292 0.854049 0.239157
H25   H     H_    0.724024 0.111632 0.466060 0.163129
H26   H     H_    0.263755 0.115235 0.597363 0.203367
H27   H     H_    0.168908 0.114886 0.506240 0.202814
H28   H     H_    0.263262 0.890804 0.597446 0.203006
H29   H     H_    0.168182 0.891044 0.506262 0.203023
H30   H     H_    0.158085 0.446223 0.378431 0.157676
N1    N     N_R   0.857140 0.500860 0.500530 -0.119234
N2    N     N_R   0.142780 0.500820 0.500530 -0.115725
O1    O     O_R   0.385310 0.683210 0.499990 -0.607723
O2    O     O_R   0.614650 0.683240 0.500000 -0.627260
O3    O     O_R   0.371780 0.500000 0.615800 -0.608070
O4    O     O_R   0.601120 0.500040 0.615800 -0.607659
O5    O     O_R   0.385350 0.316760 0.500000 -0.610620
O6    O     O_R   0.614690 0.316790 0.500010 -0.633184
O7    O     O_R   0.398880 0.499960 0.384200 -0.619583
O8    O     O_R   0.628220 0.500000 0.384200 -0.628129
Zn1   Zn    Zn3+2 0.346870 0.499980 0.499990 0.939177
Zn2   Zn    Zn3+2 0.653130 0.500020 0.500010 0.926656

loop_
_geom_bond_atom_site_label_1
_geom_bond_atom_site_label_2
_ccdc_geom_bond_type
O2    Zn2   S    
O1    Zn1   S    
C35   C36   D    
C4    O4    A    
C7    C8    A    
C1    C5    S    
C28   C29   S    
O8    Zn2   S    
C13   N1    A    
C5    C6    A    
C27   H19   S    
C30   H21   S    
C20   O8    A    
C2    C32   A    
C18   C19   S    
C18   H4    S    
C7    H25   S    
O4    Zn2   S    
C26   H9    S    
C10   H27   S    
C8    C9    A    
C30   H24   S    
C35   H13   S    
C14   N1    A    
C14   C27   S    
C9    C10   S    
C34   C36   S    
C19   H6    S    
C8    C16   S    
C23   H10   S    
C21   C22   A    
C10   H26   S    
N1    Zn2   S    
C12   H11   S    
C33   C34   A    
C29   H14   S    
C13   C19   S    
C2    C20   S    
C16   O5    A    
C24   C25   A    
C11   H28   S    
C28   H18   S    
C27   H20   S    
C25   C26   A    
C15   H30   S    
C12   C21   A    
C1    O1    A    
C20   O7    A    
C12   C26   A    
C2    C31   A    
C23   C31   A    
C3    C9    A    
C23   C34   A    
C17   C18   S    
O7    Zn1   S    
C25   C35   S    
C16   O6    A    
C36   H8    S    
O3    Zn1   S    
C29   H15   S    
N2    Zn1   S    
C17   N2    A    
C6    H23   S    
C3    C5    A    
C28   H17   S    
C6    C7    A    
C1    O2    A    
C13   C17   A    
C32   C33   A    
C18   H2    S    
C4    C21   S    
C22   H1    S    
C15   N2    A    
C30   H22   S    
C32   H7    S    
C31   H3    S    
C22   C24   A    
C24   C30   S    
C3    C11   S    
C10   C11   S    
C19   H5    S    
O6    Zn2   S    
C27   C28   S    
C33   H12   S    
O5    Zn1   S    
C14   C15   A    
C4    O3    A    
C11   H29   S    
C29   H16   S    
