data_mof_unit_46265.cif
_audit_creation_date              2012-12-11T14:46:13-0500
_audit_creation_method            fapswitch 2.2
_symmetry_space_group_name_H-M    P1
_symmetry_Int_Tables_number       1
_space_group_crystal_system       triclinic
_cell_length_a                    11.094146
_cell_length_b                    10.964076
_cell_length_c                    18.748719
_cell_angle_alpha                 89.678183
_cell_angle_beta                  90.217909
_cell_angle_gamma                 120.02614
_cell_volume                      1974.45188402

loop_
_atom_site_label
_atom_site_type_symbol
_atom_type_description
_atom_site_fract_x
_atom_site_fract_y
_atom_site_fract_z
_atom_type_partial_charge
C1    C     C_R   0.903938 0.611882 0.611922 0.629562
C2    C     C_R   0.931905 0.126861 0.706007 0.013983
C3    C     C_R   0.948241 0.141615 0.781457 -0.063429
C4    C     C_R   0.281052 0.638351 0.599967 0.567637
C5    C     C_R   0.725702 0.148320 0.712303 0.039432
C6    C     C_R   0.753283 0.188348 0.783809 0.031676
C7    C     C_R   0.597638 0.121197 0.682187 -0.090909
C8    C     C_R   0.514763 0.163607 0.716579 -0.110891
C9    C     C_R   0.556121 0.227855 0.782309 -0.111253
C10   C     C_R   0.672889 0.239786 0.816407 -0.080861
C11   C     C_R   0.830508 0.147273 0.671104 0.022831
C12   C     C_R   0.422986 0.596831 0.769486 0.044184
C13   C     C_R   0.783167 0.680448 0.701009 0.022517
C14   C     C_R   0.757268 0.696071 0.771741 -0.142512
C15   C     C_R   0.812432 0.654664 0.827223 -0.023260
C16   C     C_R   0.857529 0.217894 0.600075 0.555291
C17   C     C_R   0.904852 0.606877 0.814932 0.037991
C18   C     C_R   0.934482 0.589924 0.743873 0.015485
C19   C     C_R   0.870167 0.623188 0.686298 -0.033106
C20   C     C_R   0.449850 0.658577 0.307915 0.060780
C21   C     C_R   0.484592 0.670638 0.235564 -0.136583
C22   C     C_R   0.424816 0.721958 0.186621 0.011593
C23   C     C_R   0.404211 0.598207 0.696390 -0.084615
C24   C     C_R   0.335149 0.768255 0.210509 -0.126534
C25   C     C_R   0.296633 0.752386 0.281769 -0.152946
C26   C     C_R   0.348283 0.691238 0.330061 0.022457
C27   C     C_R   0.721953 0.105245 0.294547 -0.140245
C28   C     C_R   0.868289 0.637162 0.396590 0.584434
C29   C     C_R   0.705689 0.084085 0.222313 -0.149993
C30   C     C_R   0.822480 0.130574 0.178423 -0.011946
C31   C     C_R   0.954521 0.191007 0.206748 -0.136483
C32   C     C_R   0.975294 0.216719 0.279463 0.034541
C33   C     C_R   0.855425 0.177169 0.323893 0.015836
C34   C     C_R   0.364159 0.687933 0.665451 0.015641
C35   C     C_R   0.878181 0.783702 0.294396 0.028675
C36   C     C_R   0.867613 0.794466 0.221925 -0.147554
C37   C     C_R   0.808499 0.673842 0.179040 -0.003503
C38   C     C_R   0.753865 0.540230 0.208721 -0.145970
C39   C     C_R   0.766394 0.528520 0.281596 -0.106575
C40   C     C_R   0.274519 0.637209 0.397567 0.567075
C41   C     C_R   0.829682 0.650334 0.324612 0.031688
C42   C     C_R   0.808916 0.105208 0.895064 0.549451
C43   C     C_R   0.459448 0.723368 0.889053 0.567049
C44   C     C_R   0.795477 0.692924 0.897551 0.552606
C45   C     C_R   0.851148 0.164840 0.821493 0.007458
C46   C     C_R   0.801163 0.097541 0.104189 0.544017
C47   C     C_R   0.458615 0.728089 0.111093 0.548474
C48   C     C_R   0.796798 0.695426 0.104631 0.540072
C49   C     C_R   0.865488 0.232979 0.395104 0.537144
C50   C     C_R   0.378696 0.802584 0.704328 -0.072031
C51   C     C_R   0.423280 0.819697 0.775425 -0.055593
C52   C     C_R   0.435812 0.712771 0.810867 0.014707
C53   C     C_2   0.724318 0.734091 0.645279 0.573609
C54   C     C_2   0.975534 0.583974 0.877303 0.629956
C55   C     C_2   0.037712 0.544755 0.732047 0.551442
C56   C     C_R   0.058069 0.127677 0.813914 0.034423
C57   C     C_2   0.515067 0.606803 0.359551 0.586299
C58   C     C_2   0.124275 0.284418 0.301824 0.624938
C59   C     C_2   0.953949 0.913498 0.336027 0.587858
C60   C     C_2   0.408652 0.461638 0.796599 0.563770
C61   C     C_2   0.196615 0.996881 0.809416 0.591266
C62   C     C_2   0.124212 0.205380 0.881496 0.634352
C63   C     C_R   0.115133 0.056324 0.775830 0.077023
C64   C     C_R   0.090072 0.035433 0.702334 -0.122830
C65   C     C_R   0.007550 0.078778 0.667257 -0.083064
Cr1   Cr    Cr6+3 0.791660 0.390250 0.499930 1.074069
Cr2   Cr    Cr6+3 0.098520 0.708290 0.500540 1.059345
Cr3   Cr    Cr6+3 0.109770 0.401430 0.499480 1.092090
Cr4   Cr    Cr6+3 0.874790 0.925890 0.000070 1.109763
Cr5   Cr    Cr6+3 0.574120 0.948670 0.999300 1.038022
Cr6   Cr    Cr6+3 0.551420 0.625320 0.000920 1.085680
H1    H     H_    0.492902 0.260711 0.808504 0.202101
H2    H     H_    0.651732 0.865075 0.621094 0.330884
H3    H     H_    0.698460 0.747386 0.784528 0.136830
H4    H     H_    0.995396 0.446757 0.941069 0.368833
H5    H     H_    0.087828 0.418267 0.682132 0.348987
H6    H     H_    0.605198 0.629767 0.455573 0.380000
H7    H     H_    0.435129 0.909993 0.804386 0.161038
H8    H     H_    0.629817 0.071732 0.326961 0.158933
H9    H     H_    0.601081 0.030825 0.200753 0.150912
H10   H     H_    0.041321 0.217796 0.171212 0.185818
H11   H     H_    0.320806 0.378883 0.264851 0.370410
H12   H     H_    0.556525 0.638433 0.217202 0.130759
H13   H     H_    0.959247 0.020839 0.424098 0.355170
H14   H     H_    0.705693 0.446877 0.175699 0.140733
H15   H     H_    0.731108 0.424681 0.303887 0.166557
H16   H     H_    0.425230 0.359155 0.882161 0.356066
H17   H     H_    0.403379 0.515509 0.664521 0.177778
H18   H     H_    0.331309 0.006920 0.885027 0.352790
H19   H     H_    0.136490 0.986431 0.671326 0.141238
H20   H     H_    0.135023 0.384829 0.846750 0.348716
H21   H     H_    0.991649 0.060255 0.610408 0.146082
H22   H     H_    0.289406 0.810039 0.173577 0.160092
H23   H     H_    0.218578 0.778505 0.297921 0.159291
H24   H     H_    0.905691 0.898388 0.198913 0.152671
H25   H     H_    0.696543 0.285722 0.869014 0.188807
H26   H     H_    0.347295 0.872992 0.681260 0.136504
H27   H     H_    0.419546 0.147824 0.692056 0.140154
H28   H     H_    0.563202 0.070123 0.630884 0.125348
O1    O     O_R   0.766500 0.250040 0.579790 -0.514938
O2    O     O_R   0.413330 0.603360 0.920440 -0.406735
O3    O     O_R   0.676110 0.626250 0.926750 -0.480385
O4    O     O_R   0.798570 0.516780 0.574780 -0.445910
O5    O     O_R   0.895350 0.809870 0.080950 -0.494038
O6    O     O_R   0.872490 0.049760 0.073800 -0.492049
O7    O     O_R   0.691680 0.088070 0.079070 -0.521993
O8    O     O_R   0.451720 0.825250 0.074050 -0.494101
O9    O     O_R   0.413580 0.606370 0.080960 -0.459639
O10   O     O_R   0.676340 0.629040 0.075550 -0.523580
O11   O     O_3   0.666780 0.833290 0.000090 -0.335283
O12   O     O_R   0.218690 0.701900 0.425960 -0.521420
O13   O     O_R   0.984000 0.732950 0.581090 -0.505196
O14   O     O_R   0.218600 0.700890 0.574760 -0.511940
O15   O     O_R   0.249390 0.515350 0.579940 -0.508321
O16   O     O_R   0.982790 0.280900 0.573700 -0.488689
O17   O     O_R   0.766600 0.251130 0.419260 -0.526568
O18   O     O_R   0.798660 0.517790 0.425980 -0.494493
O19   O     O_R   0.984100 0.734040 0.420570 -0.485112
O20   O     O_2   0.702780 0.688341 0.584570 -0.486294
O21   O     O_R   0.690094 0.836508 0.663131 -0.745809
O22   O     O_2   0.062681 0.685034 0.911119 -0.427508
O23   O     O_R   0.249490 0.516440 0.419420 -0.452248
O24   O     O_R   0.943882 0.448203 0.896593 -0.729546
O25   O     O_2   0.134135 0.579172 0.773582 -0.501837
O26   O     O_R   0.022577 0.457267 0.676247 -0.706836
O27   O     O_2   0.521058 0.500968 0.346668 -0.528850
O28   O     O_R   0.564868 0.676393 0.424451 -0.658554
O29   O     O_2   0.158893 0.256395 0.358714 -0.428600
O30   O     O_R   0.227063 0.367377 0.252224 -0.708337
O31   O     O_2   0.074470 0.997304 0.320346 -0.490826
O32   O     O_R   0.892567 0.933582 0.396445 -0.663076
O33   O     O_2   0.336091 0.353219 0.763472 -0.581833
O34   O     O_R   0.982880 0.281910 0.424890 -0.483172
O35   O     O_R   0.475968 0.454072 0.857402 -0.658333
O36   O     O_2   0.186597 0.889185 0.784966 -0.534349
O37   O     O_R   0.285105 0.061107 0.867296 -0.677127
O38   O     O_2   0.145135 0.146355 0.931355 -0.407355
O39   O     O_R   0.152778 0.343452 0.891147 -0.641466
O40   O     O_3   0.999980 0.499990 0.499980 -0.284413
O41   O     O_R   0.895110 0.806860 0.920430 -0.461331
O42   O     O_R   0.872260 0.046970 0.925000 -0.480326
O43   O     O_R   0.691430 0.085060 0.918550 -0.535231
O44   O     O_R   0.451490 0.822460 0.925250 -0.485361

loop_
_geom_bond_atom_site_label_1
_geom_bond_atom_site_label_2
_ccdc_geom_bond_type
C65   H21   S    
C54   O24   S    
C46   O6    A    
C59   O31   D    
C58   O29   D    
C54   O22   D    
C6    C45   A    
C27   C29   A    
C43   O44   A    
C35   C36   A    
C9    H1    S    
C64   H19   S    
C2    C65   A    
C60   O33   D    
C53   O21   S    
C7    C8    A    
C39   C41   A    
C27   C33   A    
C12   C23   A    
C59   O32   S    
Cr5   O44   S    
C29   C30   A    
C7    H28   S    
H4    O24   S    
C14   H3    S    
C4    O15   A    
Cr3   O34   S    
C15   C44   S    
C5    C11   A    
C27   H8    S    
Cr5   O8    S    
C1    O13   A    
C38   C39   A    
C43   C52   S    
C58   O30   S    
Cr4   O42   S    
C48   O5    A    
Cr6   O11   S    
C46   O7    A    
C28   C41   S    
C35   C59   S    
C18   C19   A    
C3    C56   A    
Cr1   O1    S    
C61   C63   S    
C8    H27   S    
Cr5   O11   S    
Cr1   O40   S    
C21   H12   S    
C8    C9    A    
Cr1   O18   S    
C42   O43   A    
Cr6   O9    S    
C32   C58   S    
Cr2   O40   S    
C9    C10   A    
C1    O4    A    
H6    O28   S    
Cr4   O41   S    
C22   C47   S    
Cr6   O2    S    
C25   H23   S    
C44   O41   A    
H2    O21   S    
C13   C14   A    
H5    O26   S    
H16   O35   S    
C2    C11   A    
C12   C52   A    
C50   C51   A    
C40   O12   A    
C13   C53   S    
C4    C34   S    
C1    C19   S    
Cr5   O43   S    
C13   C19   A    
C38   H14   S    
C51   C52   A    
C55   O26   S    
C4    O14   A    
C24   C25   A    
Cr5   O7    S    
Cr3   O23   S    
C57   O27   D    
C5    C7    A    
Cr4   O6    S    
C16   O1    A    
C25   C26   A    
C3    C45   A    
H11   O30   S    
C42   C45   S    
C43   O2    A    
C6    C10   A    
C37   C38   A    
H20   O39   S    
C11   C16   S    
C31   C32   A    
C10   H25   S    
C30   C31   A    
C23   C34   A    
C42   O42   A    
C17   C18   A    
C56   C63   A    
C62   O39   S    
C37   C48   S    
Cr1   O17   S    
C18   C55   S    
Cr2   O12   S    
Cr6   O3    S    
C47   O8    A    
C23   H17   S    
C56   C62   S    
C16   O16   A    
C60   O35   S    
C61   O36   D    
Cr4   O5    S    
C15   C17   A    
C49   O34   A    
C55   O25   D    
C36   C37   A    
C50   H26   S    
C44   O3    A    
Cr1   O4    S    
C30   C46   S    
C57   O28   S    
C34   C50   A    
C53   O20   D    
C40   O23   A    
Cr4   O11   S    
H13   O32   S    
C31   H10   S    
C28   O18   A    
C64   C65   A    
C2    C3    A    
Cr2   O14   S    
C51   H7    S    
C28   O19   A    
C24   H22   S    
C32   C33   A    
C36   H24   S    
C26   C40   S    
C5    C6    A    
C29   H9    S    
C20   C26   A    
Cr6   O10   S    
C48   O10   A    
C22   C24   A    
C62   O38   D    
C35   C41   A    
Cr2   O19   S    
Cr3   O16   S    
C63   C64   A    
C12   C60   S    
Cr2   O13   S    
C49   O17   A    
C20   C21   A    
C47   O9    A    
H18   O37   S    
C14   C15   A    
Cr3   O40   S    
C39   H15   S    
C20   C57   S    
C21   C22   A    
C33   C49   S    
C17   C54   S    
C61   O37   S    
Cr3   O15   S    
