data_mof_unit_49979.cif
_audit_creation_date              2012-12-10T16:52:07-0500
_audit_creation_method            fapswitch 2.2
_symmetry_space_group_name_H-M    P1
_symmetry_Int_Tables_number       1
_space_group_crystal_system       triclinic
_cell_length_a                    7.727871
_cell_length_b                    8.626259
_cell_length_c                    14.959385
_cell_angle_alpha                 90.891645
_cell_angle_beta                  86.383244
_cell_angle_gamma                 93.728006
_cell_volume                      993.073847229

loop_
_atom_site_label
_atom_site_type_symbol
_atom_type_description
_atom_site_fract_x
_atom_site_fract_y
_atom_site_fract_z
_atom_type_partial_charge
C1    C     C_R   0.546034 0.794163 0.499692 0.938220
C2    C     C_R   0.454895 0.205438 0.502889 0.912581
C3    C     C_R   0.733630 0.706753 0.951247 -0.299934
C4    C     C_R   0.243891 0.313553 0.049964 -0.294364
C5    C     C_2   0.569608 0.955833 0.489853 -0.034778
C6    C     C_2   0.436711 0.044293 0.518266 -0.030671
C7    C     C_R   0.503258 0.501173 0.672954 0.917908
C8    C     C_R   0.496489 0.499209 0.327094 0.914496
C9    C     C_R   0.358116 0.412077 0.189781 0.177714
C10   C     C_R   0.627996 0.601164 0.811190 0.158862
C11   C     C_R   0.488751 0.500782 0.231950 -0.111934
C12   C     C_R   0.508655 0.501169 0.768275 -0.118520
C13   C     C_R   0.612786 0.595468 0.184222 -0.309825
C14   C     C_R   0.383916 0.406337 0.815749 -0.308645
C15   C     C_R   0.610863 0.604692 0.092104 0.092232
C16   C     C_R   0.374084 0.408234 0.908503 0.091990
C17   C     C_R   0.487981 0.508455 0.047213 -0.014565
C18   C     C_R   0.493645 0.507763 0.953584 -0.013309
C19   C     C_R   0.361132 0.411474 0.095954 0.034898
C20   C     C_R   0.619580 0.606031 0.905052 0.046311
C21   C     C_R   0.731164 0.706312 0.044054 0.222985
C22   C     C_R   0.248504 0.311625 0.956912 0.220794
H1    H     H_    0.709532 0.663700 0.219922 0.189147
H2    H     H_    0.294511 0.330939 0.779271 0.190618
H3    H     H_    0.826009 0.787701 0.916459 0.159239
H4    H     H_    0.148563 0.235707 0.085196 0.156294
H5    H     H_    0.013282 0.378074 0.435886 0.207117
H6    H     H_    0.986947 0.624977 0.561470 0.200399
N1    N     N_2   0.950330 0.457950 0.475660 -0.172870
N2    N     N_2   0.049670 0.542050 0.524340 -0.180028
O1    O     O_R   0.389250 0.738570 0.505970 -0.594356
O2    O     O_R   0.610750 0.261430 0.494030 -0.592158
O3    O     O_R   0.678390 0.711620 0.490370 -0.639336
O4    O     O_R   0.321610 0.288380 0.509630 -0.638123
O5    O     O_R   0.355420 0.513510 0.639950 -0.631729
O6    O     O_R   0.644580 0.486490 0.360050 -0.625897
O7    O     O_R   0.644560 0.486560 0.624350 -0.610621
O8    O     O_R   0.355440 0.513440 0.375650 -0.600646
Zn1   Zn    Zn3+2 0.306940 0.517990 0.510420 0.947960
Zn2   Zn    Zn3+2 0.693060 0.482010 0.489580 0.950859
N3    N     N_2   0.225966 0.325474 0.242519 -0.297562
H7    H     H_    0.101610 0.329066 0.221779 0.222819
C23   C     C_3   0.270443 0.172522 0.267503 -0.809622
H8    H     H_    0.290080 0.097728 0.207048 0.236561
H9    H     H_    0.164168 0.118103 0.312143 0.237177
H10   H     H_    0.390247 0.181289 0.304694 0.235533
N4    N     N_2   0.746408 0.702670 0.759197 -0.313438
H11   H     H_    0.740584 0.818585 0.776251 0.212164
C24   C     C_3   0.922057 0.653472 0.747553 -0.764447
H12   H     H_    0.984383 0.653304 0.812299 0.225323
H13   H     H_    0.000375 0.735536 0.702610 0.230545
H14   H     H_    0.922590 0.535020 0.717462 0.261265
N5    N     N_2   0.850376 0.808982 0.088514 -0.312450
H15   H     H_    0.973128 0.817301 0.056836 0.224599
C25   C     C_3   0.786457 0.960388 0.108463 -0.826282
H16   H     H_    0.767027 0.021865 0.045441 0.245268
H17   H     H_    0.882640 0.030908 0.146631 0.239831
H18   H     H_    0.661559 0.948934 0.149599 0.257431
N6    N     N_2   0.128482 0.209371 0.912616 -0.324006
H19   H     H_    0.106329 0.102536 0.942803 0.224485
C26   C     C_3   0.967780 0.277438 0.895536 -0.805078
H20   H     H_    0.895913 0.306746 0.959687 0.246325
H21   H     H_    0.885061 0.193418 0.857352 0.238170
H22   H     H_    0.994482 0.383964 0.855165 0.257566
N7    N     N_2   0.725926 0.015885 0.442423 -0.284001
H23   H     H_    0.837369 0.987034 0.471032 0.233209
C27   C     C_3   0.733920 0.987873 0.346801 -0.779591
H24   H     H_    0.845857 0.058097 0.315038 0.239134
H25   H     H_    0.613835 0.022044 0.317760 0.231484
H26   H     H_    0.751176 0.863215 0.331892 0.242693
N8    N     N_2   0.292405 0.986707 0.575902 -0.291343
H27   H     H_    0.176223 0.035644 0.567652 0.233064
C28   C     C_3   0.328929 0.967549 0.668961 -0.789415
H28   H     H_    0.292954 0.845909 0.688932 0.254456
H29   H     H_    0.251869 0.046613 0.712540 0.234286
H30   H     H_    0.468894 0.992850 0.680437 0.225533

loop_
_geom_bond_atom_site_label_1
_geom_bond_atom_site_label_2
_ccdc_geom_bond_type
C26   H22   S    
O5    Zn1   S    
C23   H8    S    
C15   C17   A    
N1    N2    D    
C10   C20   A    
H5    N1    S    
C4    C22   A    
N3    H7    S    
N3    C23   S    
C9    N3    S    
N4    H11   S    
C13   C15   A    
C1    O1    A    
C25   H16   S    
C27   H26   S    
C24   H14   S    
H6    N2    S    
C17   C18   A    
C7    O7    A    
C1    O3    A    
N6    H19   S    
N4    C24   S    
C25   H17   S    
C3    C20   A    
N5    H15   S    
C21   N5    S    
C23   H9    S    
C9    C11   A    
C2    O4    A    
C2    C6    S    
C8    O8    A    
C26   H21   S    
C8    C11   S    
C1    C5    S    
C10   C12   A    
N1    Zn2   S    
C2    O2    A    
C17   C19   A    
C12   C14   A    
N2    Zn1   S    
C24   H12   S    
O7    Zn2   S    
C18   C20   A    
O2    Zn2   S    
N5    C25   S    
C28   H28   S    
C5    C6    D    
C23   H10   S    
C14   C16   A    
C7    C12   S    
N6    C26   S    
C11   C13   A    
C3    C21   A    
C26   H20   S    
C28   H29   S    
C27   H25   S    
C4    H4    S    
C27   H24   S    
O3    Zn2   S    
C15   C21   A    
C3    H3    S    
N8    H27   S    
C28   H30   S    
C13   H1    S    
C5    N7    S    
N7    H23   S    
C8    O6    A    
C25   H18   S    
C14   H2    S    
C22   N6    S    
N8    C28   S    
O6    Zn2   S    
C16   C22   A    
C24   H13   S    
C4    C19   A    
C7    O5    A    
C9    C19   A    
C16   C18   A    
O4    Zn1   S    
C10   N4    S    
O1    Zn1   S    
C6    N8    S    
N7    C27   S    
O8    Zn1   S    
