data_mof_unit_59759.cif
_audit_creation_date              2012-12-10T18:58:45-0500
_audit_creation_method            fapswitch 2.2
_symmetry_space_group_name_H-M    P1
_symmetry_Int_Tables_number       1
_space_group_crystal_system       triclinic
_cell_length_a                    13.020207
_cell_length_b                    10.853284
_cell_length_c                    9.567279
_cell_angle_alpha                 89.309788
_cell_angle_beta                  96.175273
_cell_angle_gamma                 91.352404
_cell_volume                      1343.690635

loop_
_atom_site_label
_atom_site_type_symbol
_atom_type_description
_atom_site_fract_x
_atom_site_fract_y
_atom_site_fract_z
_atom_type_partial_charge
C1    C     C_R   0.499463 0.262392 0.500408 0.837509
C2    C     C_R   0.027483 0.485462 0.565958 0.175194
C3    C     C_R   0.972380 0.522817 0.438438 0.117171
C4    C     C_R   0.865679 0.531972 0.429114 -0.234063
C5    C     C_R   0.867099 0.459089 0.669744 -0.222526
C6    C     C_R   0.974551 0.455450 0.682057 -0.202630
C7    C     C_R   0.467106 0.061204 0.614424 0.103508
C8    C     C_R   0.489451 0.129243 0.497150 -0.149564
C9    C     C_R   0.488714 0.067921 0.369081 -0.238170
C10   C     C_R   0.483587 0.939771 0.364221 0.288103
C11   C     C_R   0.476250 0.870533 0.490441 -0.208882
C12   C     C_R   0.300305 0.499692 0.473279 0.847056
C13   C     C_R   0.452843 0.935118 0.609544 -0.064396
C14   C     C_3   0.490425 0.921655 0.763636 0.299454
C15   C     C_3   0.518176 0.058611 0.761479 -0.396130
C16   C     C_R   0.557235 0.585394 0.080578 0.290931
C17   C     C_R   0.436464 0.423242 0.067351 -0.089168
C18   C     C_R   0.435621 0.423077 0.919165 0.297193
C19   C     C_R   0.556171 0.587117 0.933257 0.183499
C20   C     C_3   0.670248 0.609659 0.943083 0.253887
C21   C     C_3   0.671346 0.602353 0.101765 -0.544923
C22   C     C_R   0.493549 0.737616 0.497737 0.807725
C23   C     C_R   0.699432 0.499732 0.526602 0.788965
C24   C     C_R   0.812228 0.497673 0.542958 -0.053908
C25   C     C_R   0.186970 0.502543 0.456679 -0.153923
C26   C     C_R   0.023976 0.547400 0.320497 -0.318721
C27   C     C_R   0.130566 0.529741 0.325429 0.470062
C28   C     C_R   0.134444 0.478787 0.575172 -0.338008
Cu1   Cu    Cu3+1 0.499990 0.499980 0.640670 0.969659
Cu2   Cu    Cu3+1 0.500010 0.500020 0.359330 0.992168
H1    H     H_    0.824384 0.564436 0.332343 0.140887
H2    H     H_    0.557936 0.862248 0.787449 0.176565
H3    H     H_    0.478157 0.113494 0.835145 0.263140
H4    H     H_    0.602845 0.077449 0.766553 0.140578
H5    H     H_    0.387277 0.359174 0.117946 0.167506
H6    H     H_    0.711615 0.533610 0.897727 0.086612
H7    H     H_    0.695430 0.689581 0.156999 0.233389
H8    H     H_    0.709853 0.518115 0.145901 0.157607
H9    H     H_    0.827136 0.431334 0.758893 0.142200
H10   H     H_    0.980782 0.577834 0.224251 0.137536
H11   H     H_    0.015941 0.427209 0.780978 0.135531
H12   H     H_    0.176541 0.454934 0.675177 0.208933
H13   H     H_    0.497850 0.118844 0.272919 0.199189
N1    N     N_R   0.500660 0.500930 0.148010 -0.209985
N2    N     N_R   0.500660 0.500890 0.852110 -0.251903
O1    O     O_R   0.500000 0.319640 0.618810 -0.537989
O2    O     O_R   0.500010 0.319680 0.381230 -0.602564
O3    O     O_R   0.348990 0.499960 0.599490 -0.564669
O4    O     O_R   0.349000 0.500000 0.361910 -0.536544
O5    O     O_R   0.499990 0.680320 0.618770 -0.608372
O6    O     O_R   0.500000 0.680360 0.381190 -0.522196
O7    O     O_R   0.651000 0.500000 0.638090 -0.598427
O8    O     O_R   0.651010 0.500040 0.400510 -0.581927
Br1   Br    Br    0.340750 0.309063 0.820763 -0.596742
O9    O     O_3   0.692865 0.730985 0.898019 -0.597581
C29   C     C_3   0.793335 0.741032 0.855428 0.080966
H14   H     H_    0.799924 0.831666 0.801546 0.159102
H15   H     H_    0.805758 0.670330 0.776586 0.144698
C30   C     C_3   0.876796 0.736403 0.981373 -0.380383
H16   H     H_    0.862846 0.808796 0.057872 0.237397
H17   H     H_    0.873395 0.645065 0.033945 0.197515
C31   C     C_3   0.984480 0.755400 0.935280 -0.919809
H18   H     H_    0.999952 0.681229 0.862071 0.258694
H19   H     H_    0.043100 0.751659 0.028464 0.274745
H20   H     H_    0.991290 0.846496 0.882526 0.264167
O10   O     O_3   0.181433 0.543373 0.205296 -0.590270
C32   C     C_3   0.136461 0.467263 0.094041 0.047681
H21   H     H_    0.182242 0.482729 0.003605 0.178816
H22   H     H_    0.056764 0.495121 0.055838 0.129860
C33   C     C_3   0.139193 0.328741 0.132034 -0.361545
H23   H     H_    0.220191 0.301353 0.161920 0.230922
H24   H     H_    0.094791 0.308935 0.222884 0.212746
C34   C     C_3   0.091906 0.250189 0.009316 -0.875870
H25   H     H_    0.008844 0.271190 0.984056 0.241031
H26   H     H_    0.098436 0.151052 0.038148 0.265202
H27   H     H_    0.132663 0.267919 0.914851 0.284327
Br2   Br    Br    0.495435 0.872741 0.181768 -0.487172
O11   O     O_3   0.412490 0.902701 0.855788 -0.546074
C35   C     C_3   0.338202 0.810262 0.811432 0.137844
H28   H     H_    0.325136 0.751323 0.903922 0.170706
H29   H     H_    0.362652 0.747674 0.731910 0.158617
C36   C     C_3   0.236190 0.870332 0.756836 -0.347225
H30   H     H_    0.199999 0.907938 0.846895 0.232887
H31   H     H_    0.250663 0.947991 0.684268 0.245435
C37   C     C_3   0.161925 0.777863 0.678395 -0.919434
H32   H     H_    0.192843 0.749416 0.580254 0.263067
H33   H     H_    0.085757 0.820554 0.650075 0.264114
H34   H     H_    0.151535 0.695334 0.745427 0.259398

loop_
_geom_bond_atom_site_label_1
_geom_bond_atom_site_label_2
_ccdc_geom_bond_type
O9    C29   S    
C16   C21   S    
C1    C8    S    
C34   H25   S    
C19   C20   S    
C12   O3    A    
C12   O4    A    
C7    C8    A    
C37   H32   S    
C25   C28   A    
C26   C27   A    
Cu1   Cu2   S    
Cu2   O6    S    
C5    C6    A    
C4    C24   A    
C1    O1    A    
C29   H14   S    
C31   H19   S    
C21   H8    S    
C8    C9    A    
C6    H11   S    
C23   C24   S    
C33   H23   S    
C9    C10   A    
C16   N1    A    
C15   H4    S    
C22   O5    A    
C7    C15   S    
O10   C32   S    
C30   H16   S    
C13   C14   S    
C34   H26   S    
Cu2   N1    S    
C2    C6    A    
C20   O9    S    
C10   Br2   S    
C23   O8    A    
Cu1   O5    S    
C37   H33   S    
Cu2   O8    S    
C9    H13   S    
C30   H17   S    
Cu1   O3    S    
C32   H21   S    
Cu2   O2    S    
C35   H29   S    
O11   C35   S    
C1    O2    A    
Cu1   N2    S    
C32   H22   S    
C31   H18   S    
C33   C34   S    
C17   C18   A    
Cu2   O4    S    
C36   H31   S    
C5    H9    S    
C34   H27   S    
C3    C4    A    
C18   N2    A    
C37   H34   S    
C30   C31   S    
C31   H20   S    
C3    C26   A    
C14   H2    S    
C35   C36   S    
C33   H24   S    
C19   N2    A    
C25   C27   A    
C36   C37   S    
C12   C25   S    
C11   C22   S    
C29   C30   S    
Cu1   O1    S    
C32   C33   S    
C2    C3    A    
C17   N1    A    
C27   O10   S    
C11   C13   A    
C26   H10   S    
C23   O7    A    
C5    C24   A    
C16   C19   A    
C28   H12   S    
C29   H15   S    
C14   O11   S    
C4    H1    S    
C10   C11   A    
C18   Br1   S    
C35   H28   S    
C20   H6    S    
C7    C13   A    
C21   H7    S    
C20   C21   S    
C36   H30   S    
C14   C15   S    
C2    C28   A    
C17   H5    S    
C15   H3    S    
C22   O6    A    
Cu1   O7    S    
