data_mof_unit_30025.cif
_audit_creation_date              2013-03-05T16:44:17-0500
_audit_creation_method            fapswitch 2.2
_symmetry_space_group_name_H-M    P1
_symmetry_Int_Tables_number       1
_space_group_crystal_system       triclinic
_cell_length_a                    23.415067
_cell_length_b                    10.673562
_cell_length_c                    9.847166
_cell_angle_alpha                 90.11276
_cell_angle_beta                  90.155046
_cell_angle_gamma                 89.979926
_cell_volume                      2461.01116555

loop_
_atom_site_label
_atom_site_type_symbol
_atom_site_description
_atom_site_fract_x
_atom_site_fract_y
_atom_site_fract_z
_atom_type_partial_charge
O1    O     O_R   0.500010 0.316790 0.614690 -0.605587
O2    O     O_R   0.500000 0.316760 0.385350 -0.629905
C1    C     C_R   0.498110 0.259986 0.499944 0.910010
O3    O     O_R   0.416160 0.499980 0.614700 -0.619414
O4    O     O_R   0.416150 0.499940 0.385360 -0.627886
C2    C     C_R   0.389587 0.497455 0.499963 0.837261
Zn1   Zn    Zn3+2 0.500000 0.500020 0.653130 0.980660
Zn2   Zn    Zn3+2 0.500000 0.499980 0.346870 0.959931
O5    O     O_R   0.500000 0.683240 0.614650 -0.624789
O6    O     O_R   0.499990 0.683210 0.385310 -0.628582
O7    O     O_R   0.583850 0.500060 0.614640 -0.598056
O8    O     O_R   0.583840 0.500020 0.385300 -0.617711
C3    C     C_R   0.498124 0.740102 0.500120 0.885338
C4    C     C_R   0.610729 0.500228 0.500198 0.913580
C5    C     C_R   0.880993 0.605426 0.451040 0.508696
N1    N     N_R   0.852641 0.505313 0.505063 -0.360353
C6    C     C_R   0.880852 0.405544 0.560683 0.511894
C7    C     C_R   0.940460 0.403875 0.563820 -0.020092
C8    C     C_R   0.970476 0.505714 0.507811 -0.018995
C9    C     C_R   0.940637 0.607534 0.450750 -0.016885
C10   C     C_R   0.970560 0.303033 0.620823 -0.150311
C11   C     C_R   0.029994 0.303068 0.621952 -0.149478
C12   C     C_R   0.060292 0.403733 0.565647 -0.016896
C13   C     C_R   0.030480 0.505517 0.508463 -0.019946
C14   C     C_R   0.060525 0.606870 0.451495 -0.019383
C15   C     C_R   0.030409 0.708073 0.395248 -0.151107
C16   C     C_R   0.970951 0.708490 0.395063 -0.150152
C17   C     C_R   0.119903 0.405315 0.564473 0.512935
N2    N     N_R   0.148319 0.503763 0.507121 -0.356473
C18   C     C_R   0.120163 0.603604 0.451494 0.516734
O9    O     O_2   0.851429 0.702677 0.398681 -0.541429
O10   O     O_2   0.851168 0.308052 0.611677 -0.530298
H1    H     H_    0.948345 0.223853 0.664563 0.197821
H2    H     H_    0.052054 0.223878 0.666461 0.197122
O11   O     O_2   0.149403 0.309700 0.620491 -0.543387
O12   O     O_2   0.149897 0.698503 0.395257 -0.542052
H3    H     H_    0.052632 0.787039 0.351083 0.197449
H4    H     H_    0.948883 0.787792 0.350811 0.197554
C19   C     C_R   0.240139 0.586384 0.582594 -0.080762
H5    H     H_    0.218323 0.654856 0.645037 0.155917
C20   C     C_R   0.299264 0.583007 0.580834 -0.205478
H6    H     H_    0.322966 0.650391 0.641159 0.159493
C21   C     C_R   0.327715 0.494523 0.500465 -0.120913
C22   C     C_R   0.296695 0.405871 0.422943 -0.052817
C23   C     C_R   0.237060 0.411886 0.424314 -0.060023
H7    H     H_    0.211841 0.345723 0.365979 0.186184
C24   C     C_R   0.209103 0.501365 0.503925 0.252058
C25   C     C_R   0.761900 0.514007 0.625724 -0.085865
H8    H     H_    0.784649 0.522558 0.721198 0.148597
C26   C     C_R   0.702661 0.512095 0.624724 -0.164671
H9    H     H_    0.680206 0.519329 0.720440 0.174128
C27   C     C_R   0.673003 0.501510 0.501114 -0.045700
C28   C     C_R   0.703327 0.492728 0.378682 -0.195432
H10   H     H_    0.681358 0.484309 0.282164 0.171952
C29   C     C_R   0.762613 0.494176 0.380097 -0.084377
H11   H     H_    0.785934 0.486580 0.285611 0.149738
C30   C     C_R   0.791845 0.504848 0.503550 0.302901
C31   C     C_R   0.489411 0.064169 0.623226 0.000233
C32   C     C_R   0.488916 0.128773 0.500531 -0.065100
C33   C     C_R   0.477423 0.064662 0.379064 -0.194059
H12   H     H_    0.472563 0.113452 0.283380 0.160861
C34   C     C_R   0.477417 0.935057 0.379207 -0.189911
H13   H     H_    0.472635 0.885847 0.283520 0.167145
C35   C     C_R   0.488694 0.871395 0.500935 -0.056993
C36   C     C_R   0.488827 0.936416 0.623620 0.079352
C37   C     C_3   0.528020 0.927654 0.743663 -0.533293
C38   C     C_3   0.528944 0.070168 0.743299 0.156567
H14   H     H_    0.506010 0.888393 0.833929 0.175307
H15   H     H_    0.569506 0.882321 0.718928 0.231941
H16   H     H_    0.508888 0.113400 0.834381 0.099430
C39   C     C_R   0.478106 0.400522 0.070806 0.207157
N3    N     N_R   0.499610 0.499140 0.142800 -0.108855
C40   C     C_R   0.526591 0.592190 0.072413 -0.120204
H17   H     H_    0.547146 0.667782 0.127107 0.153405
C41   C     C_R   0.526679 0.592068 0.928308 -0.117954
H18   H     H_    0.547471 0.667268 0.874192 0.146324
N4    N     N_R   0.499610 0.499180 0.857150 -0.104527
C42   C     C_R   0.478123 0.400573 0.928163 0.238792
C43   C     C_3   0.418322 0.353478 0.921231 -0.494316
C44   C     C_3   0.418172 0.353674 0.075421 -0.485158
H19   H     H_    0.388309 0.422787 0.876268 0.229203
H20   H     H_    0.415914 0.257891 0.876571 0.200060
H21   H     H_    0.388132 0.423297 0.119571 0.228899
H22   H     H_    0.415481 0.258093 0.119446 0.206512
N5    N     N_R   0.585173 0.122268 0.710897 0.240534
O13   O     O_R   0.613949 0.082719 0.606240 -0.372167
O14   O     O_R   0.606360 0.211007 0.786393 -0.375783
C45   C     C_2   0.325445 0.303171 0.347275 0.395627
H23   H     H_    0.370646 0.285148 0.361119 0.059157
O15   O     O_2   0.298728 0.235979 0.269244 -0.550932

loop_
_geom_bond_atom_site_label_1
_geom_bond_atom_site_label_2
_geom_bond_distance
_ccdc_geom_bond_type
C37   H14   1.111489 S    
C29   H11   1.082985 S    
C7    C10   1.403587 A    
C40   C41   1.419028 A    
C20   H6    1.083962 S    
C8    C9    1.408805 A    
C44   H22   1.111135 S    
C25   C30   1.397367 A    
C19   C20   1.385039 A    
N4    C42   1.361986 A    
C22   C23   1.397894 A    
Zn1   O7    2.000610 S    
C15   C16   1.392222 A    
C34   H13   1.083417 S    
N2    C24   1.423924 S    
C17   N2    1.367722 A    
C44   H21   1.111768 S    
O4    C2    1.290356 A    
O7    C4    1.292256 A    
C37   H15   1.112444 S    
C10   H1    1.083181 S    
C16   H4    1.083170 S    
C5    N1    1.367544 A    
C33   C34   1.383352 A    
C7    C8    1.408791 A    
C40   H17   1.081589 S    
C23   C24   1.398082 A    
O5    C3    1.282423 A    
C34   C35   1.403434 A    
C4    C27   1.458229 S    
C17   O11   1.350034 S    
N1    C6    1.367534 A    
C26   C27   1.404117 A    
C12   C13   1.408669 A    
Zn1   N4    2.009102 S    
C25   C26   1.387241 A    
C37   C38   1.521302 S    
C32   C33   1.402325 A    
C10   C11   1.391656 A    
C20   C21   1.400544 A    
O3    Zn1   1.998255 S    
C39   C44   1.490796 S    
C26   H9    1.083122 S    
C28   C29   1.388323 A    
C5    C9    1.396757 A    
C11   H2    1.083182 S    
C38   N5    1.465597 S    
Zn2   N3    2.009510 S    
N5    O14   1.300562 A    
C13   C14   1.408875 A    
O3    C2    1.288592 A    
C19   H5    1.082971 S    
C43   H19   1.111923 S    
C42   C43   1.489257 S    
C14   C15   1.403770 A    
N5    O13   1.302359 A    
C33   H12   1.083150 S    
O1    C1    1.281935 A    
C41   H18   1.081009 S    
N2    C18   1.367540 A    
C43   H20   1.111600 S    
C31   C36   1.363658 A    
Zn2   O8    1.998253 S    
C6    C7    1.396103 A    
C12   C17   1.395988 A    
C5    O9    1.349887 S    
C41   N4    1.367848 A    
C25   H8    1.083020 S    
C45   O15   1.221320 D    
C2    C21   1.449117 S    
C29   C30   1.397969 A    
C21   C22   1.414325 A    
C27   C28   1.403756 A    
C19   C24   1.395117 A    
C14   C18   1.396844 A    
Zn1   O5    1.992714 S    
O1    Zn1   1.991280 S    
O2    Zn2   1.992712 S    
O8    C4    1.293317 A    
N3    C40   1.368017 A    
O6    C3    1.283105 A    
O4    Zn2   2.000610 S    
C15   H3    1.083172 S    
C28   H10   1.083073 S    
C9    C16   1.403791 A    
C18   O12   1.349879 S    
C38   H16   1.112825 S    
C35   C36   1.392066 A    
O2    C1    1.282765 A    
C31   C32   1.392331 A    
C39   N3    1.363667 A    
C3    C35   1.418578 S    
C8    C13   1.404996 A    
N1    C30   1.423579 S    
C43   C44   1.518340 S    
C23   H7    1.083625 S    
C31   C38   1.500925 S    
C45   H23   1.083973 S    
Zn2   O6    1.991281 S    
C36   C37   1.497589 S    
C6    O10   1.350009 S    
C11   C12   1.403621 A    
C22   C45   1.486250 S    
C39   C42   1.404639 A    
C1    C32   1.417062 S    
