data_mof_unit_35389.cif
_audit_creation_date              2012-12-10T17:46:14-0500
_audit_creation_method            fapswitch 2.2
_symmetry_space_group_name_H-M    P1
_symmetry_Int_Tables_number       1
_space_group_crystal_system       triclinic
_cell_length_a                    14.15194
_cell_length_b                    10.645579
_cell_length_c                    9.897532
_cell_angle_alpha                 87.149176
_cell_angle_beta                  90.051699
_cell_angle_gamma                 91.853907
_cell_volume                      1488.49327466

loop_
_atom_site_label
_atom_site_type_symbol
_atom_type_description
_atom_site_fract_x
_atom_site_fract_y
_atom_site_fract_z
_atom_type_partial_charge
C1    C     C_R   0.510628 0.260426 0.504120 0.933476
C2    C     C_R   0.559651 0.067860 0.400045 0.433412
C3    C     C_R   0.538866 0.941272 0.389373 -0.203994
C4    C     C_R   0.329213 0.499587 0.500005 0.855663
C5    C     C_R   0.487726 0.874539 0.491526 -0.123704
C6    C     C_R   0.369213 0.344097 0.146999 -0.280243
C7    C     C_R   0.301577 0.270185 0.082081 0.311270
C8    C     C_R   0.303561 0.267633 0.939727 0.354657
C9    C     C_R   0.371258 0.341884 0.867731 -0.218985
C10   C     C_R   0.436163 0.422425 0.931575 0.130757
C11   C     C_R   0.435727 0.422967 0.075741 0.158942
C12   C     C_1   0.772284 0.500267 0.500078 -0.119719
C13   C     C_R   0.560955 0.574715 0.067638 -0.018083
C14   C     C_R   0.560842 0.574812 0.924405 -0.035311
C15   C     C_R   0.493241 0.740036 0.496824 0.885542
C16   C     C_R   0.670812 0.500662 0.499993 0.918354
C17   C     C_1   0.227772 0.499413 0.499929 -0.102238
C18   C     C_1   0.142531 0.499234 0.499858 0.087552
C19   C     C_1   0.042653 0.499181 0.499824 0.079500
C20   C     C_1   0.957406 0.499362 0.499876 0.066009
C21   C     C_1   0.857526 0.499808 0.499999 0.047167
C22   C     C_R   0.501138 0.089314 0.765676 0.305366
C23   C     C_R   0.449482 0.019232 0.869667 0.270099
C24   C     C_R   0.396058 0.911644 0.837121 0.454869
C25   C     C_R   0.398626 0.870851 0.705798 -0.305386
C26   C     C_R   0.456519 0.933718 0.606715 -0.062190
C27   C     C_R   0.492976 0.053639 0.629390 -0.035832
C28   C     C_R   0.527925 0.126845 0.515200 -0.181407
H1    H     H_    0.372719 0.330784 0.761434 0.234235
H2    H     H_    0.468680 0.143008 0.004997 0.348594
H3    H     H_    0.345852 0.767970 0.174016 0.381529
H4    H     H_    0.272855 0.176836 0.387825 0.350907
H5    H     H_    0.610372 0.636042 0.867319 0.140634
H6    H     H_    0.358981 0.785885 0.682602 0.212919
H7    H     H_    0.567318 0.893073 0.305296 0.224343
H8    H     H_    0.610568 0.635813 0.118337 0.143660
H9    H     H_    0.368295 0.336263 0.253921 0.235181
H10   H     H_    0.744263 0.083633 0.141146 0.397772
H11   H     H_    0.208712 0.131227 0.926687 0.412895
H12   H     H_    0.595073 0.157865 0.888208 0.363582
N1    N     N_R   0.499190 0.498800 0.142780 -0.085047
N2    N     N_R   0.499160 0.498720 0.857170 -0.083407
O1    O     O_R   0.500000 0.316780 0.614690 -0.580919
O2    O     O_2   0.705526 0.231505 0.354375 -0.293994
O3    O     O_3   0.704505 0.035086 0.208932 -0.545866
O4    O     O_3   0.243665 0.192406 0.865775 -0.722126
O5    O     O_3   0.570206 0.178163 0.796448 -0.721519
O6    O     O_3   0.449890 0.053102 0.002357 -0.669242
O7    O     O_2   0.233182 0.870691 0.969041 -0.223942
O8    O     O_2   0.323553 0.685662 0.922562 -0.336647
O9    O     O_3   0.383466 0.827123 0.113395 -0.478914
O10   O     O_2   0.119621 0.203693 0.128985 -0.221831
O11   O     O_2   0.236993 0.044621 0.180342 -0.223220
O12   O     O_R   0.499990 0.316750 0.385360 -0.591672
O13   O     O_3   0.221151 0.225168 0.344976 -0.545018
O14   O     O_R   0.373720 0.500010 0.614690 -0.612999
O15   O     O_R   0.373710 0.499990 0.385360 -0.617941
O16   O     O_R   0.500010 0.683250 0.614640 -0.610740
O17   O     O_R   0.500000 0.683220 0.385310 -0.615332
O18   O     O_R   0.626290 0.500010 0.614640 -0.594879
O19   O     O_R   0.626280 0.499990 0.385310 -0.570372
O20   O     O_2   0.587421 0.216054 0.174547 -0.317724
S1    S     S_3+6 0.640219 0.143119 0.282285 0.049078
S2    S     S_3+6 0.330871 0.820416 0.961253 0.084273
S3    S     S_3+6 0.217226 0.182244 0.183577 0.071772
Zn1   Zn    Zn3+2 0.500010 0.500020 0.653130 0.996282
Zn2   Zn    Zn3+2 0.499990 0.499980 0.346870 1.010154

loop_
_geom_bond_atom_site_label_1
_geom_bond_atom_site_label_2
_ccdc_geom_bond_type
C4    O15   A    
H12   O5    S    
C1    O12   A    
C24   C25   A    
C6    C7    A    
O12   Zn2   S    
C9    H1    S    
C10   N2    A    
O8    S2    D    
C9    C10   A    
O19   Zn2   S    
H4    O13   S    
C19   C20   T    
C17   C18   T    
C3    H7    S    
C25   H6    S    
C14   N2    A    
C14   H5    S    
C13   N1    A    
C22   O5    S    
C6    H9    S    
O18   Zn1   S    
C7    C8    A    
N1    Zn2   S    
O7    S2    D    
C13   C14   A    
C2    S1    S    
C26   C27   A    
O20   S1    D    
O3    S1    S    
O15   Zn2   S    
O1    Zn1   S    
O14   Zn1   S    
C4    C17   S    
H2    O6    S    
O13   S3    S    
C1    O1    A    
C11   N1    A    
C2    C3    A    
C22   C27   A    
H11   O4    S    
O2    S1    D    
C16   O18   A    
C15   O16   A    
C8    O4    S    
C5    C15   S    
C7    S3    S    
C10   C11   A    
O9    S2    S    
C23   C24   A    
C5    C26   A    
C27   C28   A    
O11   S3    D    
C20   C21   S    
C13   H8    S    
C24   S2    S    
C18   C19   S    
C16   O19   A    
C6    C11   A    
N2    Zn1   S    
C22   C23   A    
H10   O3    S    
C2    C28   A    
C23   O6    S    
O17   Zn2   S    
C25   C26   A    
C15   O17   A    
C12   C21   T    
O16   Zn1   S    
C4    O14   A    
O10   S3    D    
C12   C16   S    
H3    O9    S    
C8    C9    A    
C3    C5    A    
C1    C28   S    
