data_mof_unit_21179.cif
_audit_creation_date              2012-12-10T21:26:05-0500
_audit_creation_method            fapswitch 2.2
_symmetry_space_group_name_H-M    P1
_symmetry_Int_Tables_number       1
_space_group_crystal_system       triclinic
_cell_length_a                    8.555813
_cell_length_b                    16.444572
_cell_length_c                    16.743407
_cell_angle_alpha                 84.595504
_cell_angle_beta                  94.016658
_cell_angle_gamma                 101.013084
_cell_volume                      2298.80982737

loop_
_atom_site_label
_atom_site_type_symbol
_atom_type_description
_atom_site_fract_x
_atom_site_fract_y
_atom_site_fract_z
_atom_type_partial_charge
C1    C     C_R   0.495060 0.486918 0.652253 0.856885
C2    C     C_R   0.502307 0.512899 0.348019 0.866485
C3    C     C_R   0.477224 0.764932 0.440490 0.187625
C4    C     C_R   0.564494 0.239090 0.549300 0.182272
C5    C     C_R   0.511561 0.854035 0.436043 0.049950
C6    C     C_R   0.589862 0.157047 0.540536 0.024437
C7    C     C_R   0.539733 0.894133 0.507511 0.157974
C8    C     C_R   0.484481 0.106927 0.488442 0.167979
C9    C     C_R   0.552288 0.845382 0.580220 0.022619
C10   C     C_R   0.386066 0.146458 0.432502 0.015748
C11   C     C_R   0.571014 0.760735 0.578174 0.209418
C12   C     C_R   0.396948 0.235680 0.429078 0.184425
C13   C     C_R   0.800044 0.521833 0.500256 0.945339
C14   C     C_R   0.199813 0.478529 0.497436 0.952785
C15   C     C_2   0.966539 0.533545 0.499389 -0.392864
C16   C     C_2   0.033002 0.467549 0.494022 -0.399455
C17   C     C_R   0.486012 0.475705 0.738287 -0.043210
C18   C     C_R   0.496107 0.523585 0.262269 -0.033406
C19   C     C_R   0.365139 0.502892 0.776208 0.131659
C20   C     C_R   0.634276 0.529860 0.219342 0.130455
C21   C     C_R   0.374248 0.500833 0.859526 -0.199944
C22   C     C_R   0.617340 0.533560 0.135824 -0.198405
C23   C     C_R   0.503398 0.474345 0.904609 0.287162
C24   C     C_R   0.465554 0.530273 0.096703 0.292169
C25   C     C_R   0.617004 0.443950 0.866482 -0.190175
C26   C     C_R   0.331670 0.527478 0.140119 -0.185381
C27   C     C_R   0.608857 0.444895 0.783561 -0.285076
C28   C     C_R   0.346235 0.522348 0.223000 -0.307664
H1    H     H_    0.034020 0.596146 0.504652 0.180209
H2    H     H_    0.965496 0.405076 0.488245 0.181890
H3    H     H_    0.721150 0.537514 0.101080 0.142895
H4    H     H_    0.281568 0.521208 0.889097 0.147121
H5    H     H_    0.715865 0.422945 0.900957 0.143297
H6    H     H_    0.215124 0.525343 0.109709 0.142376
H7    H     H_    0.703518 0.425940 0.754830 0.155029
H8    H     H_    0.240564 0.516945 0.256767 0.142996
N1    N     N_2   0.525407 0.479988 0.988128 -0.198919
N2    N     N_2   0.443013 0.525664 0.013593 -0.206839
N3    N     N_R   0.519180 0.718290 0.509780 -0.141519
N4    N     N_R   0.480820 0.281710 0.490220 -0.126198
N5    N     N_2   0.576857 0.983336 0.505487 -0.172150
N6    N     N_2   0.456553 0.016872 0.496876 -0.183856
O1    O     O_R   0.493140 0.422050 0.612640 -0.623069
O2    O     O_R   0.506860 0.577950 0.387360 -0.616195
O3    O     O_R   0.505450 0.562230 0.618920 -0.623559
O4    O     O_R   0.494550 0.437770 0.381080 -0.625082
O5    O     O_R   0.723530 0.446300 0.497600 -0.601810
O6    O     O_R   0.276470 0.553700 0.502400 -0.629533
O7    O     O_R   0.735850 0.586490 0.503880 -0.620742
O8    O     O_R   0.264150 0.413510 0.496120 -0.619296
Zn1   Zn    Zn3+2 0.491780 0.406400 0.495810 0.927709
Zn2   Zn    Zn3+2 0.508220 0.593600 0.504190 0.914058
C29   C     C_3   0.797606 0.529399 0.260679 -0.436214
C30   C     C_3   0.872225 0.614540 0.288757 -0.877491
H9    H     H_    0.799955 0.632202 0.334466 0.270689
H10   H     H_    0.993716 0.612670 0.316114 0.245471
H11   H     H_    0.881794 0.662429 0.237027 0.260151
H12   H     H_    0.789662 0.481735 0.312604 0.212913
H13   H     H_    0.879175 0.512131 0.218962 0.201718
C31   C     C_3   0.224874 0.533213 0.730626 -0.432166
C32   C     C_3   0.098790 0.460317 0.705426 -0.872059
H14   H     H_    0.148551 0.422562 0.665534 0.264360
H15   H     H_    0.053906 0.420233 0.759247 0.256547
H16   H     H_    0.997536 0.484446 0.672817 0.245310
H17   H     H_    0.168368 0.569931 0.768909 0.199255
H18   H     H_    0.262494 0.575889 0.677389 0.233348
C33   C     C_3   0.601869 0.268139 0.632890 -0.313584
C34   C     C_3   0.767359 0.322311 0.643416 -0.830017
H19   H     H_    0.852500 0.306938 0.602677 0.251372
H20   H     H_    0.762244 0.388754 0.632167 0.275270
H21   H     H_    0.815144 0.312171 0.706199 0.219514
H22   H     H_    0.503432 0.292938 0.654005 0.221520
H23   H     H_    0.596168 0.213383 0.677608 0.145818
C35   C     C_3   0.367253 0.724010 0.374559 -0.346854
C36   C     C_3   0.445188 0.722424 0.295025 -0.808628
H24   H     H_    0.567441 0.708898 0.304956 0.272860
H25   H     H_    0.370244 0.674552 0.259854 0.248623
H26   H     H_    0.450227 0.780855 0.256206 0.241040
H27   H     H_    0.311331 0.660496 0.395809 0.242125
H28   H     H_    0.264573 0.756643 0.362441 0.157642
C37   C     C_3   0.730518 0.125108 0.585995 -0.367162
C38   C     C_3   0.864456 0.127512 0.529820 -0.861159
H29   H     H_    0.821274 0.093025 0.476367 0.279028
H30   H     H_    0.913956 0.192947 0.509091 0.245958
H31   H     H_    0.961355 0.099500 0.562439 0.246697
H32   H     H_    0.785519 0.162428 0.635549 0.210899
H33   H     H_    0.693900 0.062352 0.616005 0.205403
C39   C     C_3   0.521112 0.906788 0.356129 -0.358957
C40   C     C_3   0.680657 0.909556 0.319276 -0.875899
H34   H     H_    0.778470 0.943835 0.357148 0.258173
H35   H     H_    0.705475 0.846493 0.315022 0.266395
H36   H     H_    0.680257 0.942366 0.258222 0.242418
H37   H     H_    0.417996 0.886250 0.314582 0.192374
H38   H     H_    0.514382 0.972166 0.362638 0.212920
C41   C     C_3   0.540778 0.883998 0.658624 -0.394175
C42   C     C_3   0.404934 0.834476 0.707941 -0.898367
H39   H     H_    0.290688 0.827797 0.671130 0.263673
H40   H     H_    0.427559 0.771859 0.729783 0.249452
H41   H     H_    0.392765 0.867944 0.761103 0.250549
H42   H     H_    0.655637 0.892103 0.694648 0.191065
H43   H     H_    0.512608 0.947116 0.646885 0.226218
C43   C     C_3   0.277048 0.091749 0.373664 -0.372036
C44   C     C_3   0.101118 0.083708 0.388794 -0.883630
H44   H     H_    0.076598 0.049819 0.448431 0.267153
H45   H     H_    0.065435 0.144980 0.386698 0.277170
H46   H     H_    0.027861 0.047630 0.342139 0.242774
H47   H     H_    0.301918 0.112293 0.310200 0.177679
H48   H     H_    0.298351 0.027300 0.378059 0.212387
C45   C     C_3   0.658797 0.723069 0.650976 -0.321105
C46   C     C_3   0.813044 0.696725 0.631141 -0.780456
H49   H     H_    0.801475 0.628295 0.640814 0.260589
H50   H     H_    0.846577 0.719195 0.568906 0.259240
H51   H     H_    0.913726 0.723374 0.672210 0.207429
H52   H     H_    0.698423 0.768712 0.695838 0.178595
H53   H     H_    0.579229 0.674666 0.686570 0.208367
C47   C     C_3   0.321186 0.277490 0.354401 -0.296920
C48   C     C_3   0.171439 0.311040 0.368726 -0.785389
H54   H     H_    0.128442 0.290009 0.429609 0.254967
H55   H     H_    0.193714 0.379691 0.358504 0.256395
H56   H     H_    0.073116 0.288094 0.324779 0.207137
H57   H     H_    0.410941 0.322435 0.321449 0.206986
H58   H     H_    0.284248 0.235459 0.306575 0.170010

loop_
_geom_bond_atom_site_label_1
_geom_bond_atom_site_label_2
_ccdc_geom_bond_type
C11   C45   S    
N5    N6    D    
C41   C42   S    
O1    Zn1   S    
C37   C38   S    
C29   H13   S    
C29   C30   S    
C2    O4    A    
C47   H58   S    
C6    C8    A    
C22   C24   A    
C19   C21   A    
C24   C26   A    
C48   H55   S    
C2    C18   S    
C16   H2    S    
C15   C16   D    
C42   H41   S    
C47   C48   S    
C33   H22   S    
C32   H15   S    
C3    C35   S    
C46   H49   S    
C30   H9    S    
C5    C39   S    
C26   H6    S    
C4    N4    A    
C2    O2    A    
C34   H19   S    
C42   H40   S    
C24   N2    S    
C43   H48   S    
C33   H23   S    
C40   H35   S    
C9    C41   S    
C37   H32   S    
O2    Zn2   S    
C7    N5    S    
N3    Zn2   S    
C3    N3    A    
C6    C37   S    
C35   H28   S    
C43   C44   S    
C1    O1    A    
C15   H1    S    
C39   H38   S    
C21   H4    S    
C30   H10   S    
C35   C36   S    
C33   C34   S    
C17   C27   A    
C10   C43   S    
C18   C28   A    
C4    C6    A    
C22   H3    S    
C48   H56   S    
C5    C7    A    
C41   H42   S    
C14   O6    A    
O3    Zn2   S    
C27   H7    S    
C23   N1    S    
O4    Zn1   S    
C31   C32   S    
C12   N4    A    
C32   H16   S    
C36   H24   S    
N1    N2    D    
C9    C11   A    
O7    Zn2   S    
C42   H39   S    
O8    Zn1   S    
C43   H47   S    
C44   H45   S    
C40   H36   S    
C11   N3    A    
C36   H25   S    
C46   H51   S    
C37   H33   S    
C10   C12   A    
C45   H52   S    
C13   O7    A    
C34   H20   S    
C20   C22   A    
C31   H17   S    
C38   H30   S    
C35   H27   S    
C13   C15   S    
C14   C16   S    
N4    Zn1   S    
C13   O5    A    
C7    C9    A    
C39   H37   S    
C26   C28   A    
C8    N6    S    
C20   C29   S    
C3    C5    A    
C4    C33   S    
O5    Zn1   S    
C29   H12   S    
C19   C31   S    
C25   C27   A    
C38   H31   S    
C1    C17   S    
C21   C23   A    
C48   H54   S    
C1    O3    A    
C14   O8    A    
C34   H21   S    
C17   C19   A    
C44   H46   S    
C18   C20   A    
C23   C25   A    
C32   H14   S    
C36   H26   S    
C46   H50   S    
C45   H53   S    
C31   H18   S    
O6    Zn2   S    
C39   C40   S    
C28   H8    S    
C8    C10   A    
C38   H29   S    
C44   H44   S    
C47   H57   S    
C40   H34   S    
C45   C46   S    
C41   H43   S    
C25   H5    S    
C12   C47   S    
C30   H11   S    
