data_mof_unit_58968.cif
_audit_creation_date              2012-12-10T18:13:28-0500
_audit_creation_method            fapswitch 2.2
_symmetry_space_group_name_H-M    P1
_symmetry_Int_Tables_number       1
_space_group_crystal_system       triclinic
_cell_length_a                    12.584386
_cell_length_b                    13.186327
_cell_length_c                    16.700754
_cell_angle_alpha                 90.612826
_cell_angle_beta                  97.587691
_cell_angle_gamma                 96.429954
_cell_volume                      2728.89328341

loop_
_atom_site_label
_atom_site_type_symbol
_atom_type_description
_atom_site_fract_x
_atom_site_fract_y
_atom_site_fract_z
_atom_type_partial_charge
C1    C     C_R   0.559731 0.690856 0.503782 0.862124
C2    C     C_R   0.603311 0.445787 0.233271 -0.213745
C3    C     C_R   0.543845 0.431029 0.867601 -0.214998
C4    C     C_R   0.559195 0.460472 0.790226 -0.209901
C5    C     C_R   0.367650 0.473889 0.758404 -0.293607
C6    C     C_R   0.351128 0.441735 0.835378 0.488198
C7    C     C_R   0.439757 0.420261 0.890590 0.075119
C8    C     C_2   0.492907 0.351894 0.024800 -0.274056
C9    C     C_2   0.424126 0.399627 0.974434 -0.192131
C10   C     C_R   0.471236 0.481439 0.734973 -0.105883
C11   C     C_R   0.290484 0.057136 0.398187 -0.321948
C12   C     C_R   0.511752 0.491693 0.349102 0.829527
C13   C     C_R   0.413694 0.202055 0.456091 -0.287905
C14   C     C_R   0.695504 0.836969 0.546223 -0.181450
C15   C     C_R   0.722567 0.941141 0.558817 -0.201953
C16   C     C_R   0.651211 0.008131 0.527146 -0.147096
C17   C     C_R   0.555902 0.972468 0.474879 0.123026
C18   C     C_R   0.532056 0.866935 0.457883 0.079657
C19   C     C_R   0.477912 0.037178 0.445720 -0.049337
C20   C     C_R   0.374683 0.995548 0.408985 0.047525
C21   C     C_R   0.359023 0.894018 0.382156 -0.185940
C22   C     C_R   0.440372 0.831994 0.402217 -0.205583
C23   C     C_R   0.441968 0.309053 0.483971 0.908292
C24   C     C_R   0.499397 0.142736 0.451863 0.329801
C25   C     C_R   0.306949 0.158365 0.428897 0.420805
C26   C     C_R   0.597694 0.799178 0.499755 -0.121968
C27   C     C_R   0.903937 0.356802 0.619776 0.393796
C28   C     C_R   0.206690 0.621940 0.400193 0.024934
C29   C     C_R   0.103453 0.649012 0.379505 -0.262117
C30   C     C_R   0.019956 0.604446 0.418779 -0.191576
C31   C     C_R   0.039618 0.531457 0.478813 0.041132
C32   C     C_R   0.146785 0.507637 0.498294 0.248888
C33   C     C_R   0.957459 0.480315 0.519189 -0.074015
C34   C     C_R   0.485431 0.499951 0.650914 0.882820
C35   C     C_R   0.984373 0.408968 0.579870 0.074474
C36   C     C_R   0.090806 0.388248 0.598097 -0.260809
C37   C     C_R   0.169924 0.435071 0.556579 -0.220744
C38   C     C_R   0.848810 0.496363 0.501287 -0.101189
C39   C     C_R   0.797930 0.378094 0.599510 -0.069006
C40   C     C_R   0.507833 0.456287 0.265862 -0.033392
C41   C     C_R   0.407823 0.418433 0.222577 -0.202946
C42   C     C_R   0.402926 0.374636 0.146287 -0.168023
C43   C     C_R   0.497832 0.370546 0.111536 0.203524
C44   C     C_R   0.598216 0.402943 0.156203 -0.171935
H1    H     H_    0.284187 0.862553 0.346394 0.135981
H2    H     H_    0.795884 0.969589 0.597600 0.137813
H3    H     H_    0.734213 0.342344 0.630716 0.151059
H4    H     H_    0.640019 0.466418 0.773690 0.171178
H5    H     H_    0.820516 0.548626 0.456485 0.142252
H6    H     H_    0.941475 0.628317 0.400496 0.135873
H7    H     H_    0.088066 0.703888 0.332838 0.145065
H8    H     H_    0.248055 0.410417 0.569750 0.209050
H9    H     H_    0.298595 0.490188 0.716677 0.183977
H10   H     H_    0.672034 0.400247 0.129790 0.127965
H11   H     H_    0.614361 0.419725 0.909609 0.151917
H12   H     H_    0.558174 0.316895 0.003167 0.153344
H13   H     H_    0.324806 0.347666 0.113103 0.136071
N1    N     N_R   0.774070 0.445420 0.541180 -0.124095
N2    N     N_R   0.226730 0.554050 0.459240 -0.124346
O1    O     O_R   0.631480 0.627510 0.519670 -0.614294
O2    O     O_R   0.455770 0.662400 0.493360 -0.609242
O3    O     O_R   0.598240 0.480510 0.398910 -0.622985
O4    O     O_R   0.422540 0.515400 0.372600 -0.630333
O5    O     O_R   0.544230 0.337600 0.506640 -0.558193
O6    O     O_R   0.368520 0.372490 0.480330 -0.596977
O7    O     O_R   0.577460 0.484600 0.627400 -0.618279
O8    O     O_R   0.401760 0.519490 0.601090 -0.635642
Zn1   Zn    Zn3+2 0.617320 0.476700 0.517570 0.948262
Zn2   Zn    Zn3+2 0.382680 0.523300 0.482430 0.945237
H14   H     H_    0.333310 0.421357 0.247985 0.172483
O9    O     O_3   0.248670 0.436835 0.857477 -0.620786
C45   C     C_3   0.198091 0.336045 0.843186 0.066154
H15   H     H_    0.242001 0.281429 0.881607 0.138432
H16   H     H_    0.193873 0.312522 0.778501 0.137418
C46   C     C_3   0.083649 0.330331 0.864113 -0.735707
H17   H     H_    0.037592 0.384083 0.826760 0.285529
H18   H     H_    0.042622 0.251595 0.852175 0.209777
H19   H     H_    0.085321 0.350676 0.929010 0.233250
O10   O     O_3   0.222625 0.218055 0.420256 -0.580574
C47   C     C_3   0.144851 0.182332 0.470388 0.118556
H20   H     H_    0.170885 0.213914 0.532685 0.135488
H21   H     H_    0.131603 0.097576 0.473643 0.118534
C48   C     C_3   0.036916 0.218106 0.437885 -0.815094
H22   H     H_    0.005480 0.179485 0.378717 0.243505
H23   H     H_    0.977875 0.199202 0.480906 0.195652
H24   H     H_    0.046232 0.301791 0.429390 0.272488
H25   H     H_    0.211300 0.025785 0.369136 0.162216
O11   O     O_3   0.603229 0.188012 0.447250 -0.606104
C49   C     C_3   0.616336 0.199777 0.365083 0.149421
H26   H     H_    0.556805 0.248163 0.334499 0.145592
H27   H     H_    0.607022 0.124159 0.332963 0.133267
C50   C     C_3   0.729141 0.251695 0.359484 -0.818768
H28   H     H_    0.790316 0.205044 0.389457 0.246172
H29   H     H_    0.740973 0.260434 0.295095 0.203113
H30   H     H_    0.740244 0.328366 0.389430 0.272103
H31   H     H_    0.748044 0.785887 0.577084 0.162962
H32   H     H_    0.669673 0.086488 0.547946 0.188559
H33   H     H_    0.429371 0.755727 0.376185 0.154176
H34   H     H_    0.112884 0.332282 0.642341 0.176671
O12   O     O_3   0.931095 0.292811 0.682716 -0.633880
C51   C     C_3   0.882459 0.191645 0.664705 0.065946
H35   H     H_    0.947482 0.140758 0.669029 0.155643
H36   H     H_    0.837103 0.179207 0.602666 0.125796
C52   C     C_3   0.807994 0.159024 0.726970 -0.854851
H37   H     H_    0.740573 0.206960 0.723434 0.246061
H38   H     H_    0.773863 0.078086 0.715562 0.212925
H39   H     H_    0.853707 0.166903 0.788716 0.259382
H40   H     H_    0.271097 0.654377 0.368519 0.122706
H41   H     H_    0.360416 0.435715 0.997512 0.192761
H42   H     H_    0.681439 0.471661 0.266913 0.151972

loop_
_geom_bond_atom_site_label_1
_geom_bond_atom_site_label_2
_ccdc_geom_bond_type
O7    Zn1   S    
C51   H35   S    
C22   H33   S    
C45   H16   S    
C41   C42   A    
C35   C36   A    
C18   C26   A    
C8    C43   S    
C46   H17   S    
C13   C25   A    
C34   O7    A    
C52   H38   S    
C38   H5    S    
C28   C29   A    
O5    Zn1   S    
C5    H9    S    
C36   C37   A    
C3    C7    A    
C47   C48   S    
C4    H4    S    
C5    C6    A    
C47   H20   S    
C16   H32   S    
C11   C25   A    
C15   C16   A    
C13   C23   S    
C50   H28   S    
C33   C35   A    
C38   N1    A    
C3    H11   S    
C2    H42   S    
O4    Zn2   S    
C11   H25   S    
C16   C17   A    
C31   C33   A    
C49   H27   S    
C30   H6    S    
C51   H36   S    
C18   C22   A    
C21   C22   A    
C8    H12   S    
C45   C46   S    
C42   H13   S    
C14   H31   S    
C52   H37   S    
C21   H1    S    
C9    H41   S    
C6    O9    S    
C11   C20   A    
C27   O12   S    
C37   H8    S    
C47   H21   S    
C1    O1    A    
C27   C39   A    
C12   O4    A    
C8    C9    D    
C27   C35   A    
C39   N1    A    
C50   H30   S    
C13   C24   A    
O8    Zn2   S    
C12   C40   S    
C43   C44   A    
C29   C30   A    
C2    C40   A    
C12   O3    A    
C48   H22   S    
C20   C21   A    
C50   H29   S    
C17   C18   A    
C10   C34   S    
C32   C37   A    
C14   C26   A    
C49   C50   S    
C46   H18   S    
N2    Zn2   S    
N1    Zn1   S    
C23   O5    A    
C48   H23   S    
C51   C52   S    
C1    C26   S    
C42   C43   A    
C4    C10   A    
C3    C4    A    
C2    C44   A    
C39   H3    S    
C29   H7    S    
C28   N2    A    
O2    Zn2   S    
C7    C9    S    
C40   C41   A    
C25   O10   S    
C24   O11   S    
C31   C32   A    
C45   H15   S    
C1    O2    A    
C34   O8    A    
C6    C7    A    
C33   C38   A    
C32   N2    A    
O3    Zn1   S    
C23   O6    A    
C19   C20   A    
C19   C24   A    
C5    C10   A    
C30   C31   A    
C28   H40   S    
O6    Zn2   S    
O12   C51   S    
C17   C19   A    
C36   H34   S    
C46   H19   S    
O10   C47   S    
C44   H10   S    
O9    C45   S    
C48   H24   S    
O11   C49   S    
O1    Zn1   S    
C14   C15   A    
C15   H2    S    
C49   H26   S    
C52   H39   S    
C41   H14   S    
