data_mof_unit_45848.cif
_audit_creation_date              2012-12-11T15:54:34-0500
_audit_creation_method            fapswitch 2.2
_symmetry_space_group_name_H-M    P1
_symmetry_Int_Tables_number       1
_space_group_crystal_system       triclinic
_cell_length_a                    6.929777
_cell_length_b                    14.533937
_cell_length_c                    16.098834
_cell_angle_alpha                 90.003891
_cell_angle_beta                  89.885323
_cell_angle_gamma                 90.076035
_cell_volume                      1621.42065688

loop_
_atom_site_label
_atom_site_type_symbol
_atom_type_description
_atom_site_fract_x
_atom_site_fract_y
_atom_site_fract_z
_atom_type_partial_charge
O1    O     O_R   0.638180 0.333920 0.163320 -0.497667
O2    O     O_R   0.361820 0.666080 0.836680 -0.497666
O3    O     O_R   0.308470 0.344960 0.336080 -0.548036
O4    O     O_R   0.691530 0.655040 0.663920 -0.548036
O5    O     O_R   0.138140 0.166110 0.336680 -0.540306
O6    O     O_R   0.861860 0.833890 0.663320 -0.540306
C1    C     C_R   0.477472 0.367102 0.365126 0.670381
C2    C     C_R   0.522528 0.632898 0.634874 0.670381
O7    O     O_R   0.308460 0.344950 0.163930 -0.538107
O8    O     O_R   0.691540 0.655050 0.836070 -0.538107
O9    O     O_R   0.138140 0.166100 0.163310 -0.544585
O10   O     O_R   0.861860 0.833900 0.836690 -0.544586
C3    C     C_R   0.477940 0.366826 0.134722 0.780656
C4    C     C_R   0.522060 0.633173 0.865278 0.780656
O11   O     O_R   0.638180 0.333930 0.336700 -0.548224
O12   O     O_R   0.361820 0.666070 0.663300 -0.548224
O13   O     O_3   0.471670 0.191340 0.250000 -0.379559
O14   O     O_3   0.528330 0.808660 0.750000 -0.379559
V1    V     V_3+5 0.196830 0.260900 0.250000 1.456298
V2    V     V_3+5 0.803170 0.739100 0.750000 1.456298
O15   O     O_R   0.808420 0.155070 0.163920 -0.542252
O16   O     O_R   0.191580 0.844930 0.836080 -0.542253
C5    C     C_R   0.977531 0.132721 0.135042 0.709204
C6    C     C_R   0.022469 0.867279 0.864958 0.709205
O17   O     O_R   0.808420 0.155080 0.336070 -0.542964
O18   O     O_R   0.191580 0.844920 0.663930 -0.542964
C7    C     C_R   0.977131 0.133030 0.364638 0.680748
C8    C     C_R   0.022869 0.866970 0.635362 0.680748
V3    V     V_3+5 0.696830 0.239130 0.250000 1.467912
V4    V     V_3+5 0.303170 0.760870 0.750000 1.467911
O19   O     O_3   0.971850 0.308690 0.250010 -0.356664
O20   O     O_3   0.028150 0.691310 0.749990 -0.356664
H1    H     H_    0.288238 0.849197 0.267535 0.119786
H2    H     H_    0.711762 0.150803 0.732465 0.119786
C9    C     C_R   0.826242 0.173648 0.528607 -0.143451
C10   C     C_R   0.173758 0.826352 0.471393 -0.143451
C11   C     C_R   0.753978 0.195838 0.606869 -0.121442
C12   C     C_R   0.246022 0.804162 0.393131 -0.121442
C13   C     C_R   0.766734 0.132930 0.671580 -0.116423
C14   C     C_R   0.233266 0.867070 0.328420 -0.116423
C15   C     C_R   0.851793 0.047320 0.658542 -0.133040
C16   C     C_R   0.148207 0.952680 0.341458 -0.133040
C17   C     C_R   0.924539 0.022224 0.579473 0.068897
C18   C     C_R   0.075461 0.977776 0.420527 0.068897
C19   C     C_R   0.911526 0.086802 0.513050 0.068795
C20   C     C_R   0.088474 0.913198 0.486950 0.068795
C21   C     C_R   0.012957 0.935330 0.566504 -0.182161
C22   C     C_R   0.987043 0.064670 0.433496 -0.182161
H3    H     H_    0.815618 0.225787 0.480929 0.107003
H4    H     H_    0.184382 0.774213 0.519071 0.107003
H5    H     H_    0.689061 0.262552 0.617472 0.121498
H6    H     H_    0.310939 0.737448 0.382528 0.121498
H7    H     H_    0.861310 0.001692 0.711434 0.102711
H8    H     H_    0.138690 0.998308 0.288566 0.102711
C23   C     C_R   0.179709 0.973411 0.968537 -0.144767
C24   C     C_R   0.820291 0.026589 0.031462 -0.144767
H9    H     H_    0.320675 0.953882 0.945448 0.114554
H10   H     H_    0.679325 0.046118 0.054552 0.114554
C25   C     C_R   0.168597 0.036851 0.033857 -0.149669
C26   C     C_R   0.831403 0.963149 0.966143 -0.149669
H11   H     H_    0.301550 0.064407 0.058903 0.116867
H12   H     H_    0.698450 0.935593 0.941097 0.116867
C27   C     C_R   0.988729 0.064347 0.066246 -0.048369
C28   C     C_R   0.011271 0.935653 0.933754 -0.048368
C29   C     C_R   0.321350 0.478299 0.464731 -0.156575
C30   C     C_R   0.678650 0.521701 0.535269 -0.156575
H13   H     H_    0.181263 0.462799 0.438496 0.117558
H14   H     H_    0.818736 0.537201 0.561504 0.117558
C31   C     C_R   0.332548 0.542096 0.529752 -0.158507
C32   C     C_R   0.667452 0.457904 0.470248 -0.158507
H15   H     H_    0.200550 0.573962 0.551420 0.115839
H16   H     H_    0.799450 0.426038 0.448580 0.115839
C33   C     C_R   0.511336 0.564625 0.566006 -0.041318
C34   C     C_R   0.488664 0.435375 0.433994 -0.041318
C35   C     C_R   0.326524 0.485623 0.042455 -0.284898
C36   C     C_R   0.673476 0.514377 0.957545 -0.284898
H17   H     H_    0.190777 0.476245 0.074807 0.220943
H18   H     H_    0.809223 0.523755 0.925193 0.220943
C37   C     C_R   0.335455 0.549873 0.977828 0.634627
C38   C     C_R   0.664545 0.450127 0.022172 0.634627
C39   C     C_R   0.509783 0.565043 0.934241 -0.272264
C40   C     C_R   0.490217 0.434957 0.065759 -0.272264
F1    F     F_    0.173286 0.597889 0.959262 -0.683029
F2    F     F_    0.826714 0.402111 0.040738 -0.683029

loop_
_geom_bond_atom_site_label_1
_geom_bond_atom_site_label_2
_ccdc_geom_bond_type
C7    C22   S    
C30   H14   S    
C8    C21   S    
C23   C25   A    
O13   V3    S    
O4    C2    A    
V1    O19   S    
C13   C15   A    
O9    V1    S    
C9    C11   A    
C36   H18   S    
O3    C1    A    
C11   H5    S    
C12   H6    S    
O12   V4    S    
C26   H12   S    
C31   H15   S    
O7    C3    A    
O5    C7    A    
O7    V1    S    
O6    C8    A    
O8    V2    S    
C29   H13   S    
C9    H3    S    
C31   C33   A    
O14   V4    S    
V4    O20   S    
C38   F2    S    
C5    C27   S    
C2    O12   A    
C15   C17   A    
C16   C18   A    
C18   C20   A    
O11   V3    S    
C1    C34   S    
O17   V3    S    
C11   C13   A    
C25   H11   S    
H1    C14   S    
H2    C13   S    
C38   C40   A    
O8    C4    A    
C37   C39   A    
C1    O11   A    
C30   C33   A    
O15   V3    S    
C3    C40   S    
C29   C34   A    
C24   C26   A    
O4    V2    S    
C32   C34   A    
C35   H17   S    
C23   C28   A    
O10   V2    S    
O1    V3    S    
C24   C27   A    
O3    V1    S    
C17   C19   A    
C15   H7    S    
O18   V4    S    
C23   H9    S    
O16   C6    A    
O1    C3    A    
C10   C12   A    
C9    C19   A    
C10   H4    S    
V2    O20   S    
C19   C22   A    
C20   C21   A    
O16   V4    S    
C25   C27   A    
C36   C38   A    
C14   C16   A    
C36   C39   A    
C35   C40   A    
O5    V1    S    
O17   C7    A    
O6    V2    S    
O10   C6    A    
O18   C8    A    
O2    V4    S    
C26   C28   A    
O15   C5    A    
V3    O19   S    
C16   H8    S    
C12   C14   A    
C10   C20   A    
C30   C32   A    
C17   C21   A    
C29   C31   A    
O9    C5    A    
C2    C33   S    
O13   V1    S    
C24   H10   S    
O14   V2    S    
O2    C4    A    
C37   F1    S    
C6    C28   S    
C32   H16   S    
C4    C39   S    
C35   C37   A    
C18   C22   A    
