data_mof_unit_46839.cif
_audit_creation_date              2013-03-05T15:56:02-0500
_audit_creation_method            fapswitch 2.2
_symmetry_space_group_name_H-M    P1
_symmetry_Int_Tables_number       1
_space_group_crystal_system       triclinic
_cell_length_a                    12.317323
_cell_length_b                    13.144846
_cell_length_c                    17.350292
_cell_angle_alpha                 105.020005
_cell_angle_beta                  74.851776
_cell_angle_gamma                 116.53506
_cell_volume                      2392.71532178

loop_
_atom_site_label
_atom_site_type_symbol
_atom_site_description
_atom_site_fract_x
_atom_site_fract_y
_atom_site_fract_z
_atom_type_partial_charge
O1    O     O_R   0.025490 0.682370 0.523640 -0.576315
O2    O     O_R   0.194150 0.640180 0.491890 -0.609469
C1    C     C_R   0.144334 0.713778 0.506907 0.775657
O3    O     O_R   0.905900 0.523560 0.631310 -0.589972
O4    O     O_R   0.074570 0.481370 0.599560 -0.601385
C2    C     C_R   0.987056 0.502470 0.652000 0.785591
Cu1   Cu    Cu3+1 0.900140 0.524980 0.518800 0.939626
Cu2   Cu    Cu3+1 0.099860 0.475020 0.481200 0.957720
O5    O     O_R   0.805850 0.359820 0.508110 -0.593797
O6    O     O_R   0.974510 0.317630 0.476360 -0.528833
O7    O     O_R   0.925430 0.518630 0.400440 -0.588674
O8    O     O_R   0.094100 0.476440 0.368690 -0.605397
C3    C     C_R   0.855982 0.285529 0.488023 0.830191
C4    C     C_R   0.013632 0.498546 0.348088 0.786763
C5    C     C_R   0.978953 0.500356 0.737065 -0.027925
C6    C     C_R   0.061892 0.471794 0.759646 -0.202786
C7    C     C_R   0.054345 0.468645 0.840160 -0.147832
C8    C     C_R   0.964694 0.495613 0.899428 0.191555
C9    C     C_R   0.880070 0.521595 0.876865 -0.168276
C10   C     C_R   0.887380 0.524533 0.796082 -0.194517
C11   C     C_R   0.957373 0.548414 0.161775 -0.141282
C12   C     C_R   0.946120 0.539840 0.241670 -0.195227
C13   C     C_R   0.116295 0.480894 0.204422 -0.188554
C14   C     C_R   0.127285 0.489243 0.124225 -0.165332
C15   C     C_R   0.046420 0.520797 0.102341 0.189384
C16   C     C_2   0.956477 0.495948 0.985129 -0.225611
C17   C     C_2   0.055979 0.523166 0.016964 -0.225303
C18   C     C_R   0.024777 0.505137 0.263488 -0.027218
H1    H     H_    0.132271 0.451090 0.715155 0.162617
H2    H     H_    0.876319 0.561246 0.286310 0.158375
H3    H     H_    0.178960 0.455154 0.220004 0.151909
H4    H     H_    0.146234 0.543804 0.979352 0.145040
H5    H     H_    0.809561 0.541299 0.921952 0.125236
H6    H     H_    0.897023 0.577587 0.146968 0.128422
H7    H     H_    0.821724 0.545941 0.779998 0.151899
H8    H     H_    0.866297 0.475128 0.022904 0.145614
H9    H     H_    0.117676 0.443559 0.855432 0.125655
H10   H     H_    0.197235 0.468862 0.078977 0.125361
C19   C     C_R   0.730889 0.970403 0.393341 -0.245236
H11   H     H_    0.553153 0.774466 0.341649 0.144940
H12   H     H_    0.763129 0.907137 0.353836 0.170444
C20   C     C_R   0.774760 0.162216 0.471470 -0.172729
C21   C     C_R   0.178887 0.917775 0.558080 -0.166870
C22   C     C_R   0.256277 0.033742 0.572479 -0.119102
C23   C     C_R   0.381891 0.070496 0.543324 -0.185475
C24   C     C_R   0.432388 0.991523 0.495771 0.095134
C25   C     C_R   0.350553 0.875895 0.472778 0.081951
C26   C     C_R   0.561206 0.023076 0.470278 0.079976
C27   C     C_R   0.604527 0.942560 0.416403 0.095891
C28   C     C_R   0.521307 0.834771 0.385832 -0.209847
C29   C     C_R   0.396097 0.802459 0.412569 -0.189109
C30   C     C_R   0.648434 0.131419 0.498063 -0.301969
C31   C     C_R   0.816809 0.078803 0.421463 0.350402
C32   C     C_R   0.225154 0.837320 0.510233 -0.106445
H13   H     H_    0.620464 0.194517 0.540717 0.168864
H14   H     H_    0.082922 0.890741 0.586080 0.155464
H15   H     H_    0.436219 0.161579 0.557751 0.130939
H16   H     H_    0.219303 0.095208 0.608841 0.150219
H17   H     H_    0.335869 0.719862 0.384132 0.172109
C33   C     C_R   0.641008 0.673898 0.630072 -0.295638
H18   H     H_    0.817347 0.693666 0.644857 0.119819
H19   H     H_    0.438278 0.708189 0.656096 0.154084
H20   H     H_    0.636988 0.741602 0.680576 0.138239
N1    N     N_R   0.749710 0.562810 0.547300 -0.180736
C34   C     C_R   0.251101 0.353013 0.389136 0.141058
C35   C     C_R   0.349768 0.320581 0.365490 -0.223873
C36   C     C_R   0.448967 0.375668 0.407307 -0.210166
C37   C     C_R   0.450813 0.464637 0.473728 -0.005709
C38   C     C_R   0.346999 0.494476 0.496020 0.281451
C39   C     C_R   0.551142 0.524952 0.518828 -0.033814
C40   C     C_R   0.545129 0.613282 0.584833 0.175447
C41   C     C_R   0.443455 0.640775 0.605575 -0.282919
C42   C     C_R   0.346788 0.582698 0.562386 -0.185156
C43   C     C_R   0.658039 0.502121 0.501710 0.018020
C44   C     C_R   0.743033 0.647129 0.610197 0.073870
N2    N     N_R   0.249640 0.437820 0.453210 -0.218654
H21   H     H_    0.670497 0.436670 0.452589 0.124518
H22   H     H_    0.174819 0.309997 0.356139 0.167692
H23   H     H_    0.522771 0.347042 0.386361 0.140300
H24   H     H_    0.349391 0.252507 0.314483 0.161676
H25   H     H_    0.273525 0.610331 0.583556 0.206685
N3    N     N_R   0.945122 0.101653 0.398743 0.113019
O9    O     O_R   0.009511 0.124941 0.454630 -0.357667
O10   O     O_R   0.989466 0.072964 0.323683 -0.394010

loop_
_geom_bond_atom_site_label_1
_geom_bond_atom_site_label_2
_geom_bond_distance
_ccdc_geom_bond_type
C9    C10   1.390347 A    
C8    C16   1.462737 S    
Cu1   Cu2   2.700222 S    
C19   H12   1.084653 S    
C23   C24   1.417748 A    
H18   C44   1.081856 S    
Cu1   O7    1.980214 S    
C23   H15   1.077155 S    
C16   C17   1.339685 D    
C34   N2    1.357962 A    
C33   H20   1.083885 S    
C20   C31   1.415172 A    
O4    C2    1.300176 A    
C1    C32   1.472595 S    
C5    C6    1.402222 A    
Cu2   N2    2.023184 S    
C38   N2    1.387539 A    
C8    C9    1.398938 A    
C27   C28   1.391601 A    
O5    C3    1.306248 A    
C2    C5    1.459733 S    
C10   H7    1.083084 S    
C22   H16   1.082878 S    
C6    C7    1.385819 A    
C43   H21   1.076877 S    
C39   C43   1.419296 A    
C14   H10   1.083578 S    
C13   C14   1.390645 A    
C38   C42   1.407037 A    
C39   C40   1.417189 A    
C30   H13   1.076200 S    
C35   C36   1.394350 A    
C12   C18   1.402189 A    
C11   C12   1.385658 A    
O3    Cu1   1.976981 S    
C42   H25   1.063803 S    
C3    C20   1.473341 S    
C28   C29   1.384572 A    
C5    C10   1.403468 A    
C24   C26   1.423218 A    
C36   C37   1.409853 A    
C36   H23   1.078026 S    
C14   C15   1.398833 A    
O3    C2    1.300650 A    
C9    H5    1.083603 S    
C37   C38   1.431627 A    
C25   C29   1.411636 A    
C11   H6    1.082224 S    
C33   C40   1.401863 A    
C6    H1    1.083323 S    
C31   N3    1.433573 S    
O1    C1    1.302918 A    
C13   H3    1.083116 S    
C21   C22   1.386921 A    
C21   C32   1.403057 A    
Cu2   O8    1.976982 S    
C7    C8    1.403506 A    
H19   C41   1.084592 S    
C7    H9    1.081942 S    
C13   C18   1.403720 A    
C25   C32   1.418293 A    
C16   H8    1.085887 S    
C26   C27   1.417668 A    
C19   C27   1.399297 A    
O8    C4    1.300353 A    
C34   C35   1.392376 A    
N3    O10   1.301660 A    
C29   H17   1.080067 S    
C22   C23   1.390294 A    
Cu1   O5    1.935854 S    
C11   C15   1.403131 A    
C24   C25   1.418564 A    
C34   H22   1.081188 S    
C12   H2    1.083249 S    
C17   H4    1.085573 S    
O1    Cu1   1.948018 S    
O2    Cu2   1.935853 S    
C41   C42   1.385515 A    
O6    C3    1.299957 A    
O4    Cu2   1.980214 S    
C15   C17   1.462386 S    
C35   H24   1.082546 S    
C33   C44   1.388407 A    
O2    C1    1.302501 A    
C40   C41   1.389217 A    
C19   C31   1.396628 A    
H11   C28   1.084253 S    
O7    C4    1.300483 A    
N1    C44   1.354154 A    
Cu1   N1    2.035182 S    
C21   H14   1.083309 S    
C26   C30   1.400957 A    
Cu2   O6    1.948019 S    
N3    O9    1.301563 A    
C37   C39   1.440994 A    
N1    C43   1.368183 A    
C4    C18   1.459758 S    
C20   C30   1.398812 A    
