data_mof_unit_47585.cif
_audit_creation_date              2013-03-05T16:01:09-0500
_audit_creation_method            fapswitch 2.2
_symmetry_space_group_name_H-M    P1
_symmetry_Int_Tables_number       1
_space_group_crystal_system       triclinic
_cell_length_a                    7.213718
_cell_length_b                    36.024715
_cell_length_c                    41.888935
_cell_angle_alpha                 90.128036
_cell_angle_beta                  90.680523
_cell_angle_gamma                 90.498241
_cell_volume                      10884.5578345

loop_
_atom_site_label
_atom_site_type_symbol
_atom_site_description
_atom_site_fract_x
_atom_site_fract_y
_atom_site_fract_z
_atom_type_partial_charge
O1    O     O_R   0.564240 0.782760 0.216890 -0.568210
O2    O     O_R   0.435760 0.217240 0.783110 -0.576657
O3    O     O_R   0.435760 0.217240 0.716890 -0.599918
O4    O     O_R   0.564240 0.782760 0.283110 -0.573564
O5    O     O_R   0.064240 0.717240 0.283110 -0.580281
O6    O     O_R   0.935760 0.282760 0.716890 -0.582990
O7    O     O_R   0.935760 0.282760 0.783110 -0.584209
O8    O     O_R   0.064240 0.717240 0.216890 -0.584724
O9    O     O_R   0.234510 0.787070 0.282870 -0.610515
O10   O     O_R   0.765490 0.212930 0.717130 -0.578874
O11   O     O_R   0.765490 0.212930 0.782870 -0.567203
O12   O     O_R   0.234510 0.787070 0.217130 -0.583691
O13   O     O_R   0.734510 0.712930 0.217130 -0.564438
O14   O     O_R   0.265490 0.287070 0.782870 -0.576591
O15   O     O_R   0.265490 0.287070 0.717130 -0.552348
O16   O     O_R   0.734510 0.712930 0.282870 -0.573671
C1    C     C_R   0.404445 0.795802 0.293362 1.061137
C2    C     C_R   0.594612 0.203042 0.707415 1.059582
C3    C     C_R   0.597745 0.203870 0.793355 1.079678
C4    C     C_R   0.403351 0.797220 0.207615 1.058982
C5    C     C_R   0.900438 0.703943 0.206322 1.065341
C6    C     C_R   0.097602 0.296119 0.793404 1.054682
C7    C     C_R   0.097161 0.296162 0.706566 1.074274
C8    C     C_R   0.903356 0.705021 0.294136 1.061373
O17   O     O_3   0.397750 0.727090 0.250000 -0.263053
O18   O     O_3   0.602250 0.272910 0.750000 -0.263227
O19   O     O_3   0.897750 0.772910 0.250000 -0.281659
O20   O     O_3   0.102250 0.227090 0.750000 -0.283205
V1    V     V_3+5 0.122890 0.754250 0.250000 1.249694
V2    V     V_3+5 0.877110 0.245750 0.750000 1.279516
V3    V     V_3+5 0.622890 0.745750 0.250000 1.296063
V4    V     V_3+5 0.377110 0.254250 0.750000 1.291600
C9    C     C_R   0.847022 0.614084 0.431037 0.635200
C10   C     C_R   0.117778 0.392247 0.573664 0.606317
C11   C     C_R   0.152253 0.396991 0.925324 0.615206
C12   C     C_R   0.838259 0.620615 0.062075 0.632217
C13   C     C_R   0.451311 0.891772 0.075686 0.680850
C14   C     C_R   0.580914 0.116555 0.930694 0.671989
C15   C     C_R   0.694721 0.093533 0.584259 0.628311
C16   C     C_R   0.379221 0.888542 0.426171 0.608191
O21   O     O_2   0.729999 0.642974 0.432316 -0.436738
O22   O     O_2   0.255025 0.367180 0.574738 -0.421178
O23   O     O_2   0.309762 0.377550 0.922185 -0.450519
O24   O     O_2   0.703861 0.646211 0.059597 -0.431623
O25   O     O_2   0.455399 0.854788 0.070919 -0.428725
O26   O     O_2   0.618314 0.152943 0.935101 -0.432500
O27   O     O_2   0.826585 0.120156 0.586075 -0.467240
O28   O     O_2   0.228465 0.866580 0.422191 -0.440439
N1    N     N_R   0.952173 0.609146 0.404267 -0.170387
N2    N     N_R   0.999045 0.394372 0.598841 -0.174724
N3    N     N_R   0.018444 0.394364 0.901830 -0.171298
N4    N     N_R   0.939906 0.617932 0.089899 -0.176714
N5    N     N_R   0.444414 0.905464 0.106244 -0.168929
N6    N     N_R   0.561158 0.103057 0.900163 -0.169969
N7    N     N_R   0.571166 0.089317 0.608889 -0.165502
N8    N     N_R   0.504552 0.890962 0.402033 -0.178331
C17   C     C_R   0.055743 0.577686 0.400760 0.583563
C18   C     C_R   0.861208 0.420256 0.599356 0.622301
C19   C     C_R   0.868755 0.417608 0.902087 0.602588
C20   C     C_R   0.047094 0.587232 0.095351 0.554846
C21   C     C_R   0.475804 0.942604 0.111877 0.590109
C22   C     C_R   0.550346 0.065570 0.894701 0.582387
C23   C     C_R   0.472636 0.056342 0.610659 0.583690
C24   C     C_R   0.649512 0.915627 0.403342 0.630825
C25   C     C_R   0.872588 0.620290 0.348105 -0.178629
C26   C     C_R   0.166274 0.377387 0.648107 -0.184003
C27   C     C_R   0.053514 0.383963 0.844116 -0.203346
C28   C     C_R   0.799517 0.629597 0.141718 -0.189806
C29   C     C_R   0.556861 0.880125 0.157355 -0.103443
C30   C     C_R   0.706579 0.124231 0.850679 -0.108371
C31   C     C_R   0.523161 0.109636 0.665775 -0.160520
C32   C     C_R   0.381817 0.880242 0.347955 -0.160521
C33   C     C_R   0.871966 0.641791 0.320369 0.504258
C34   C     C_R   0.199822 0.354168 0.674540 0.550604
C35   C     C_R   0.067783 0.361242 0.817018 0.441038
C36   C     C_R   0.784753 0.648873 0.170789 0.444558
C37   C     C_R   0.549443 0.855367 0.183079 0.511232
C38   C     C_R   0.714621 0.146257 0.823165 0.528401
C39   C     C_R   0.514631 0.136949 0.689607 0.440630
C40   C     C_R   0.350694 0.857630 0.321060 0.500547
C41   C     C_R   0.978349 0.694626 0.351616 -0.359176
C42   C     C_R   0.945717 0.314485 0.655863 -0.317013
C43   C     C_R   0.077168 0.307423 0.851664 -0.336036
C44   C     C_R   0.007603 0.694011 0.150972 -0.393253
C45   C     C_R   0.271865 0.827890 0.159392 -0.283713
C46   C     C_R   0.446814 0.179989 0.842250 -0.286237
C47   C     C_R   0.604566 0.183090 0.650828 -0.318694
C48   C     C_R   0.521074 0.808320 0.347669 -0.336155
C49   C     C_R   0.996525 0.672049 0.378922 0.551269
C50   C     C_R   0.917936 0.337231 0.629194 0.538862
C51   C     C_R   0.048788 0.330071 0.878609 0.592961
C52   C     C_R   0.998998 0.677374 0.120515 0.491245
C53   C     C_R   0.271236 0.854822 0.135179 0.564454
C54   C     C_R   0.429175 0.155543 0.868089 0.570146
C55   C     C_R   0.572094 0.157267 0.626136 0.593466
C56   C     C_R   0.550535 0.830839 0.374508 0.534392
C57   C     C_R   0.936767 0.634488 0.377443 -0.050877
C58   C     C_R   0.025249 0.369700 0.625741 -0.037566
C59   C     C_R   0.042202 0.369154 0.874992 -0.045115
C60   C     C_R   0.907647 0.642748 0.116657 -0.008693
C61   C     C_R   0.422149 0.880116 0.132963 -0.065133
C62   C     C_R   0.565916 0.128221 0.873229 -0.063525
C63   C     C_R   0.554609 0.118635 0.633347 -0.073501
C64   C     C_R   0.481284 0.867264 0.374529 -0.033518
C65   C     C_R   0.945395 0.554062 0.451462 -0.066309
C66   C     C_R   0.958977 0.443732 0.547692 -0.024299
C67   C     C_R   0.981569 0.446654 0.951141 -0.025402
C68   C     C_R   0.957928 0.561581 0.043602 -0.074524
C69   C     C_R   0.508248 0.953706 0.055017 -0.073519
C70   C     C_R   0.568277 0.053676 0.951719 -0.075769
C71   C     C_R   0.594389 0.035439 0.559964 -0.077559
C72   C     C_R   0.553417 0.935575 0.456002 -0.035477
C73   C     C_R   0.853963 0.588050 0.456491 -0.225152
C74   C     C_R   0.098606 0.416299 0.547079 -0.194278
C75   C     C_R   0.129197 0.421031 0.951960 -0.189095
C76   C     C_R   0.863123 0.594760 0.036895 -0.234683
C77   C     C_R   0.462004 0.916116 0.049296 -0.229279
C78   C     C_R   0.568805 0.092395 0.957304 -0.233903
C79   C     C_R   0.689834 0.069401 0.557409 -0.211338
C80   C     C_R   0.405241 0.909474 0.454589 -0.170161
C81   C     C_R   0.769938 0.594206 0.486406 0.367945
C82   C     C_R   0.220046 0.415337 0.520789 0.390920
C83   C     C_R   0.254273 0.422077 0.978310 0.388850
C84   C     C_R   0.790920 0.600055 0.005695 0.371651
C85   C     C_R   0.430015 0.904263 0.017505 0.384990
C86   C     C_R   0.558794 0.105344 0.989146 0.377623
C87   C     C_R   0.777193 0.077936 0.528279 0.378364
C88   C     C_R   0.283433 0.906748 0.480712 0.386566
C89   C     C_R   0.045697 0.548891 0.423252 -0.119590
C90   C     C_R   0.839352 0.445488 0.573908 -0.121915
C91   C     C_R   0.852641 0.445212 0.925785 -0.099163
C92   C     C_R   0.049993 0.557768 0.073130 -0.084557
C93   C     C_R   0.520498 0.966705 0.086617 -0.091632
C94   C     C_R   0.562817 0.040341 0.920135 -0.099155
C95   C     C_R   0.493868 0.028090 0.587651 -0.094370
C96   C     C_R   0.674805 0.938817 0.430114 -0.132351
C97   C     C_R   0.914871 0.680016 0.322241 -0.349326
C98   C     C_R   0.084291 0.322266 0.678992 -0.359436
C99   C     C_R   0.087366 0.322378 0.820764 -0.336766
C100  C     C_R   0.900647 0.680712 0.176555 -0.318188
C101  C     C_R   0.411049 0.827116 0.183190 -0.375012
C102  C     C_R   0.588896 0.176221 0.819669 -0.355079
C103  C     C_R   0.577663 0.173407 0.682812 -0.359097
C104  C     C_R   0.421433 0.821126 0.320946 -0.334426
H1    H     H_    0.018629 0.723642 0.352969 0.179669
H2    H     H_    0.859239 0.289972 0.658432 0.190202
H3    H     H_    0.084631 0.277587 0.854647 0.170842
H4    H     H_    0.088796 0.719297 0.154113 0.188004
H5    H     H_    0.161851 0.807281 0.159797 0.182353
H6    H     H_    0.346531 0.202025 0.839502 0.178373
H7    H     H_    0.633298 0.211898 0.644850 0.190933
H8    H     H_    0.574139 0.780267 0.347598 0.171562
C105  C     C_R   0.813501 0.499687 0.524669 -0.115635
C106  C     C_R   0.032912 0.491579 0.469279 -0.088851
C107  C     C_R   0.055330 0.498913 0.027933 -0.076982
C108  C     C_R   0.835056 0.503507 0.971587 -0.102850
C109  C     C_R   0.567822 0.989372 0.971518 -0.087998
C110  C     C_R   0.589257 0.016041 0.035356 -0.083352
C111  C     C_R   0.713349 0.988140 0.482797 -0.133476
C112  C     C_R   0.496278 0.975364 0.537756 -0.068216
C113  C     C_R   0.057346 0.467102 0.495523 0.101863
C114  C     C_R   0.831588 0.529795 0.502583 0.057976
C115  C     C_R   0.854215 0.534972 0.992312 0.053437
C116  C     C_R   0.083258 0.473409 0.002416 0.092945
C117  C     C_R   0.580310 0.041580 0.009423 0.045771
C118  C     C_R   0.528273 0.965126 0.997398 0.044380
C119  C     C_R   0.462052 0.954195 0.509684 0.104362
C120  C     C_R   0.703188 0.015853 0.507183 0.053844
C121  C     C_R   0.941972 0.470047 0.522483 0.127994
C122  C     C_R   0.936338 0.525093 0.474475 0.102189
C123  C     C_R   0.956612 0.531836 0.021191 0.099438
C124  C     C_R   0.965609 0.474417 0.975181 0.140175
C125  C     C_R   0.572725 0.028171 0.977600 0.078143
C126  C     C_R   0.542466 0.978329 0.029222 0.081730
C127  C     C_R   0.577410 0.959163 0.482961 0.098767
C128  C     C_R   0.598971 0.008750 0.534932 0.098388
C129  C     C_R   0.677512 0.497719 0.549238 0.455340
C130  C     C_R   0.104360 0.484779 0.438254 0.397791
C131  C     C_R   0.121280 0.493446 0.059755 0.382590
C132  C     C_R   0.694316 0.499417 0.947433 0.440090
C133  C     C_R   0.596852 0.977040 0.939563 0.398832
C134  C     C_R   0.636554 0.026291 0.067392 0.406633
C135  C     C_R   0.847577 0.988030 0.457872 0.470077
C136  C     C_R   0.430503 0.965273 0.568347 0.340964
C137  C     C_R   0.697413 0.471744 0.573891 -0.156858
C138  C     C_R   0.121959 0.514149 0.416783 -0.135026
C139  C     C_R   0.128984 0.523541 0.081010 -0.166011
C140  C     C_R   0.707736 0.470819 0.924836 -0.168032
C141  C     C_R   0.580315 0.002270 0.914442 -0.153832
C142  C     C_R   0.587533 0.002700 0.092490 -0.135024
C143  C     C_R   0.822262 0.964223 0.431700 -0.145755
C144  C     C_R   0.419885 0.992378 0.592159 -0.159893
O29   O     O_2   0.746968 0.421900 0.624589 -0.498864
O30   O     O_2   0.164998 0.573815 0.375035 -0.497877
O31   O     O_2   0.143995 0.584371 0.122983 -0.497033
O32   O     O_2   0.736540 0.414373 0.879165 -0.513478
O33   O     O_2   0.529323 0.052671 0.864568 -0.494046
O34   O     O_2   0.465884 0.956237 0.141823 -0.492397
O35   O     O_2   0.768607 0.917682 0.378784 -0.486003
O36   O     O_2   0.350640 0.050336 0.634123 -0.522245
C145  C     C_R   0.763567 0.565503 0.508953 -0.138460
C146  C     C_R   0.203025 0.441536 0.496493 -0.115147
C147  C     C_R   0.232257 0.448545 0.002483 -0.123135
C148  C     C_R   0.789281 0.570360 0.983958 -0.127768
C149  C     C_R   0.457716 0.929069 0.992404 -0.156791
C150  C     C_R   0.560752 0.079964 0.014381 -0.148370
C151  C     C_R   0.778373 0.051643 0.503614 -0.145375
C152  C     C_R   0.308359 0.930107 0.507047 -0.120361
H9    H     H_    0.251989 0.401835 0.644558 0.197127
H10   H     H_    0.832812 0.591264 0.346553 0.203440
H11   H     H_    0.725687 0.603523 0.138285 0.195680
H12   H     H_    0.045166 0.413779 0.841122 0.202536
H13   H     H_    0.807385 0.102435 0.854080 0.202579
H14   H     H_    0.669808 0.900096 0.156424 0.218292
H15   H     H_    0.327145 0.908103 0.348530 0.193251
H16   H     H_    0.500137 0.081510 0.673423 0.235247
H17   H     H_    0.596750 0.471410 0.592876 0.211232
H18   H     H_    0.183068 0.508851 0.393728 0.227888
H19   H     H_    0.183957 0.519213 0.104882 0.198978
H20   H     H_    0.602347 0.468448 0.906304 0.200081
H21   H     H_    0.593579 0.992221 0.890187 0.201460
H22   H     H_    0.615578 0.011585 0.116811 0.198318
H23   H     H_    0.922283 0.965112 0.412607 0.227840
H24   H     H_    0.362651 0.984795 0.615032 0.224099
H25   H     H_    0.715427 0.572321 0.532409 0.212599
H26   H     H_    0.307731 0.441857 0.478352 0.189624
H27   H     H_    0.335462 0.449763 0.021312 0.192920
H28   H     H_    0.747595 0.575880 0.959716 0.212375
H29   H     H_    0.413457 0.920299 0.968899 0.209025
H30   H     H_    0.535903 0.090625 0.037970 0.209594
H31   H     H_    0.826740 0.060774 0.480812 0.213822
H32   H     H_    0.204912 0.929191 0.525507 0.188685
S1    S     S_3+6 0.105922 0.691157 0.413331 0.085761
O37   O     O_2   0.961905 0.707136 0.434922 -0.143090
O38   O     O_2   0.211323 0.661816 0.431188 -0.201893
O39   O     O_3   0.255169 0.725021 0.402735 -0.487035
H33   H     H_    0.181694 0.748124 0.402509 0.386167
S2    S     S_3+6 0.749442 0.324212 0.600323 0.069304
O40   O     O_2   0.585391 0.349136 0.603744 -0.163438
O41   O     O_2   0.826336 0.328517 0.567328 -0.214472
O42   O     O_3   0.679975 0.279977 0.605576 -0.479017
H34   H     H_    0.790509 0.264856 0.600906 0.364716
S3    S     S_3+6 0.010882 0.307951 0.915671 0.063807
O43   O     O_2   0.194969 0.301535 0.931832 -0.167507
O44   O     O_2   0.891926 0.331271 0.936883 -0.206480
O45   O     O_3   0.904650 0.266791 0.909266 -0.507791
H35   H     H_    0.937637 0.251414 0.928028 0.420148
S4    S     S_3+6 0.073154 0.704255 0.087768 0.071364
O46   O     O_2   0.263470 0.692118 0.077837 -0.177530
O47   O     O_2   0.940346 0.700674 0.059909 -0.150052
O48   O     O_3   0.079938 0.749281 0.098830 -0.469253
H36   H     H_    0.948225 0.755859 0.102518 0.349690
S5    S     S_3+6 0.075131 0.856626 0.109445 0.036009
O49   O     O_2   0.049768 0.895092 0.096398 -0.272471
O50   O     O_2   0.099535 0.829999 0.082230 -0.140858
O51   O     O_3   0.883756 0.844278 0.129365 -0.518522
H37   H     H_    0.884831 0.816843 0.129890 0.343705
S6    S     S_3+6 0.229557 0.159015 0.892165 0.030722
O52   O     O_2   0.175766 0.121642 0.905150 -0.271157
O53   O     O_2   0.268737 0.185040 0.919562 -0.180206
O54   O     O_3   0.050731 0.175574 0.870494 -0.509409
H38   H     H_    0.059526 0.202937 0.872427 0.355059
S7    S     S_3+6 0.517757 0.176235 0.588313 0.065023
O55   O     O_2   0.692364 0.190690 0.573375 -0.179525
O56   O     O_2   0.425105 0.148143 0.566682 -0.221137
O57   O     O_3   0.372718 0.211926 0.593547 -0.484526
H39   H     H_    0.373714 0.225495 0.573016 0.421199
S8    S     S_3+6 0.669121 0.812483 0.408028 0.067416
O58   O     O_2   0.811910 0.839886 0.420029 -0.176521
O59   O     O_2   0.532499 0.805141 0.434142 -0.181681
O60   O     O_3   0.775854 0.772693 0.398457 -0.498321
H40   H     H_    0.679205 0.753097 0.400045 0.383055
N9    N     N_R   0.702915 0.630051 0.495517 0.279091
O61   O     O_R   0.548541 0.632689 0.511091 -0.252914
O62   O     O_R   0.811981 0.658930 0.493862 -0.211413
N10   N     N_R   0.358384 0.387364 0.517482 0.279214
O63   O     O_R   0.528600 0.397057 0.511594 -0.328650
O64   O     O_R   0.306912 0.353078 0.512659 -0.213345
N11   N     N_R   0.397739 0.395140 0.982241 0.275392
O65   O     O_R   0.563583 0.405812 0.990893 -0.332639
O66   O     O_R   0.353535 0.360128 0.984214 -0.197778
N12   N     N_R   0.735175 0.636027 0.994646 0.277623
O67   O     O_R   0.601463 0.638919 0.973710 -0.257218
O68   O     O_R   0.840417 0.664843 0.000430 -0.217647
N13   N     N_R   0.353088 0.868373 0.010119 0.280302
O69   O     O_R   0.419983 0.849132 0.986667 -0.223444
O70   O     O_R   0.193672 0.858775 0.021848 -0.226248
N14   N     N_R   0.532305 0.143816 0.996596 0.277378
O71   O     O_R   0.627473 0.159161 0.019741 -0.240614
O72   O     O_R   0.388443 0.160993 0.985095 -0.228345
N15   N     N_R   0.847493 0.114373 0.521776 0.277913
O73   O     O_R   0.007847 0.118248 0.508258 -0.260510
O74   O     O_R   0.734453 0.142234 0.521887 -0.220416
N16   N     N_R   0.140971 0.878910 0.482158 0.279790
O75   O     O_R   0.974792 0.888037 0.490679 -0.325450
O76   O     O_R   0.187169 0.844060 0.482485 -0.193018
S9    S     S_3+6 0.389040 0.367687 0.699714 0.061567
O77   O     O_2   0.387672 0.409265 0.702991 -0.214197
O78   O     O_2   0.384134 0.351005 0.732462 -0.216104
O79   O     O_3   0.586684 0.355028 0.681968 -0.505642
H41   H     H_    0.682907 0.372196 0.690588 0.393456
S10   S     S_3+6 0.840568 0.617984 0.283969 0.054161
O80   O     O_2   0.637327 0.610378 0.278934 -0.171549
O81   O     O_2   0.915829 0.640247 0.256687 -0.311593
O82   O     O_3   0.953791 0.577369 0.286058 -0.460176
H42   H     H_    0.980487 0.570583 0.263655 0.412892
S11   S     S_3+6 0.627463 0.628063 0.197814 0.060889
O83   O     O_2   0.718683 0.594224 0.211531 -0.158311
O84   O     O_2   0.566878 0.652746 0.224520 -0.213805
O85   O     O_3   0.437436 0.613939 0.177304 -0.457350
H43   H     H_    0.368539 0.636914 0.172223 0.353195
S12   S     S_3+6 0.051493 0.383624 0.779584 0.037252
O86   O     O_2   0.232441 0.403045 0.773302 -0.157901
O87   O     O_2   0.007923 0.357005 0.752869 -0.327456
O88   O     O_3   0.883758 0.415695 0.781002 -0.443114
H44   H     H_    0.766674 0.401320 0.783066 0.373365
S13   S     S_3+6 0.870384 0.130795 0.793404 0.072443
O89   O     O_2   0.843650 0.089553 0.789905 -0.206597
O90   O     O_2   0.840032 0.148226 0.761293 -0.226938
O91   O     O_3   0.088829 0.139921 0.805894 -0.492179
H45   H     H_    0.164722 0.120480 0.795801 0.413168
S14   S     S_3+6 0.709632 0.864341 0.214724 0.047040
O92   O     O_2   0.708802 0.905400 0.221202 -0.193348
O93   O     O_2   0.663801 0.844472 0.245080 -0.255670
O94   O     O_3   0.921987 0.851744 0.202895 -0.525674
H46   H     H_    0.008851 0.867197 0.215761 0.405008
S15   S     S_3+6 0.221755 0.876030 0.288642 0.048374
O95   O     O_2   0.224374 0.917707 0.289827 -0.167799
O96   O     O_2   0.300437 0.863723 0.257363 -0.315450
O97   O     O_3   0.000902 0.861298 0.291394 -0.459789
H47   H     H_    0.989980 0.839815 0.276744 0.382378
S16   S     S_3+6 0.396319 0.124784 0.725006 0.046105
O98   O     O_2   0.422221 0.084357 0.732210 -0.170680
O99   O     O_2   0.462081 0.147073 0.753055 -0.319053
O100  O     O_3   0.168724 0.132345 0.719031 -0.439858
H48   H     H_    0.159120 0.159366 0.715129 0.351704
S17   S     S_3+6 0.459568 0.520424 0.547578 -0.033347
O101  O     O_2   0.467649 0.555489 0.567131 -0.243127
O102  O     O_2   0.404899 0.529506 0.513766 -0.275473
O103  O     O_3   0.297036 0.492164 0.563003 -0.572629
H49   H     H_    0.252689 0.504732 0.582488 0.379074
S18   S     S_3+6 0.124688 0.439643 0.421526 0.025828
O104  O     O_2   0.325226 0.428831 0.420335 -0.209554
O105  O     O_2   0.018373 0.411479 0.440656 -0.241717
O106  O     O_3   0.039551 0.440263 0.383907 -0.464284
H50   H     H_    0.945716 0.420047 0.382818 0.406370
S19   S     S_3+6 0.142266 0.448788 0.077282 0.047313
O107  O     O_2   0.044581 0.419631 0.057445 -0.173905
O108  O     O_2   0.343566 0.438991 0.080849 -0.237823
O109  O     O_3   0.044587 0.449288 0.113588 -0.431774
H51   H     H_    0.145441 0.456369 0.128702 0.374063
S20   S     S_3+6 0.479918 0.523537 0.947375 -0.028575
O110  O     O_2   0.429225 0.535091 0.980630 -0.271745
O111  O     O_2   0.491844 0.557299 0.926430 -0.234823
O112  O     O_3   0.310655 0.495735 0.932787 -0.561889
H52   H     H_    0.303945 0.500946 0.909602 0.367783
S21   S     S_3+6 0.699173 0.933796 0.929715 0.038043
O113  O     O_2   0.793851 0.916853 0.958253 -0.196670
O114  O     O_2   0.553200 0.907388 0.917038 -0.220422
O115  O     O_3   0.858950 0.940625 0.901306 -0.457023
H53   H     H_    0.792159 0.936912 0.880732 0.378244
S22   S     S_3+6 0.798290 0.062209 0.077236 0.028491
O116  O     O_2   0.907934 0.073785 0.048584 -0.219598
O117  O     O_2   0.698124 0.095265 0.090308 -0.221116
O118  O     O_3   0.947675 0.046654 0.105243 -0.465360
H54   H     H_    0.893029 0.053529 0.125993 0.378688
S23   S     S_3+6 0.067797 0.010714 0.459914 -0.038354
O119  O     O_2   0.059057 0.047611 0.443247 -0.234258
O120  O     O_2   0.130187 0.016102 0.493991 -0.295457
O121  O     O_3   0.224023 0.984634 0.440941 -0.571872
H55   H     H_    0.327926 0.001821 0.436216 0.384343
S24   S     S_3+6 0.407472 0.918273 0.580786 0.045303
O122  O     O_2   0.205769 0.907805 0.582431 -0.196832
O123  O     O_2   0.503715 0.892455 0.558202 -0.211867
O124  O     O_3   0.502376 0.913417 0.617395 -0.428904
H56   H     H_    0.637309 0.916668 0.614290 0.372593

loop_
_geom_bond_atom_site_label_1
_geom_bond_atom_site_label_2
_geom_bond_distance
_ccdc_geom_bond_type
S14   O93   1.499494 D    
S21   O113  1.503041 D    
C48   H8    1.083795 S    
C106  C113  1.421108 A    
N15   O73   1.300499 A    
C10   O22   1.346256 S    
C20   C92   1.410635 A    
C147  H27   1.078720 S    
S17   O101  1.504286 D    
C21   C93   1.408812 A    
O15   V4    1.984835 S    
O16   V3    1.984832 S    
C88   N16   1.431563 S    
C19   C91   1.410000 A    
N12   O67   1.300931 A    
C83   N11   1.433173 S    
C112  C136  1.418752 A    
S14   O94   1.681423 S    
C130  S18   1.777068 S    
C31   H16   1.075464 S    
S24   O122  1.502328 D    
C106  C122  1.416823 A    
C66   C90   1.406344 A    
C87   C151  1.400265 A    
O85   H43   0.991352 S    
C110  C126  1.419192 A    
C11   C75   1.423096 A    
C55   S7    1.767939 S    
C70   C78   1.413784 A    
O13   V3    1.994414 S    
S10   O81   1.501790 D    
S2    O41   1.503254 D    
C118  C126  1.416612 A    
C75   C83   1.417539 A    
O97   H47   0.988649 S    
C50   S2    1.764240 S    
C69   C93   1.404642 A    
O48   H36   0.994994 S    
O103  H49   0.990278 S    
C53   C61   1.417595 A    
C72   C80   1.418066 A    
S18   O104  1.502773 D    
C6    C99   1.487334 S    
S13   O91   1.683926 S    
C145  H25   1.074651 S    
O10   V2    1.972791 S    
O112  H52   0.990249 S    
S20   O110  1.503186 D    
O12   C4    1.334343 A    
C30   C62   1.402588 A    
O13   C5    1.327200 A    
C152  H32   1.081338 S    
O6    V2    1.972971 S    
S8    O59   1.503391 D    
S21   O115  1.683501 S    
C29   C61   1.401706 A    
C56   C64   1.408127 A    
C11   N3    1.372798 A    
C12   O24   1.347074 S    
C13   O25   1.347408 S    
C143  H23   1.083841 S    
S17   O103  1.681906 S    
O79   H41   0.990084 S    
C15   O27   1.346305 S    
C16   O28   1.347791 S    
O1    C4    1.330436 A    
O2    C3    1.334309 A    
C40   S15   1.770126 S    
C29   H14   1.083371 S    
S18   O106  1.684698 S    
C87   N15   1.430981 S    
O124  H56   0.989534 S    
C84   N12   1.436181 S    
O7    C6    1.325859 A    
C43   C51   1.409188 A    
C18   O29   1.349499 S    
S24   O124  1.682036 S    
C83   C147  1.400663 A    
C136  S24   1.779639 S    
C81   C145  1.402800 A    
N13   O70   1.300260 A    
O118  H54   0.990517 S    
C108  C132  1.431266 A    
C82   C146  1.394642 A    
C33   C97   1.410557 A    
O10   C2    1.338567 A    
C85   C149  1.396504 A    
C108  C124  1.422079 A    
S23   O121  1.679483 S    
C53   S5    1.770070 S    
N11   O66   1.301328 A    
O109  H51   0.990097 S    
C37   C101  1.419483 A    
C95   C144  1.402551 A    
N1    C57   1.453199 S    
O100  H48   0.990276 S    
C130  C138  1.396129 A    
C32   H15   1.081885 S    
C13   C77   1.415018 A    
C54   C62   1.414543 A    
C42   C98   1.409776 A    
C134  C142  1.400097 A    
O60   H40   0.990772 S    
C110  C117  1.426354 A    
O17   V3    1.752307 S    
C24   C96   1.406115 A    
O18   V4    1.752308 S    
C86   N14   1.434852 S    
O12   V1    1.989755 S    
O19   V1    1.763110 S    
C29   C37   1.401533 A    
C149  H29   1.077295 S    
C71   C95   1.399645 A    
C31   C39   1.402335 A    
O121  H55   0.990112 S    
C52   S4    1.766342 S    
C138  H18   1.083562 S    
C1    C104  1.473863 S    
O8    V1    1.961685 S    
C65   C73   1.412365 A    
C2    C103  1.485455 S    
N15   O74   1.298701 A    
C18   C90   1.410794 A    
C142  H22   1.083410 S    
S5    O49   1.502617 D    
S22   O116  1.503014 D    
C26   C34   1.409109 A    
S20   O112  1.680987 S    
O1    V3    1.970878 S    
N1    C17   1.371436 A    
O39   H33   0.990602 S    
O2    V4    1.970875 S    
C39   S16   1.773628 S    
C49   S1    1.770092 S    
N4    C20   1.372958 A    
N5    C21   1.374462 A    
C39   C103  1.416751 A    
C40   C104  1.414740 A    
C47   C55   1.405777 A    
N8    C24   1.366849 A    
C118  C149  1.405272 A    
C11   O23   1.347521 S    
S1    O37   1.503014 D    
C12   N4    1.373606 A    
C13   N5    1.372364 A    
S9    O78   1.499563 D    
O94   H46   0.988709 S    
C72   C96   1.406303 A    
O115  H53   0.990595 S    
C55   C63   1.429610 A    
O8    C5    1.341064 A    
C105  C129  1.431667 A    
N2    C58   1.448373 S    
C71   C128  1.421928 A    
C113  C146  1.403662 A    
S16   O98   1.500777 D    
O11   V2    1.989752 S    
C45   C101  1.406933 A    
S15   O96   1.501643 D    
N4    C60   1.454325 S    
C133  S21   1.779404 S    
N14   O72   1.301002 A    
C28   C60   1.396454 A    
S1    O38   1.502955 D    
S3    O45   1.682700 S    
C25   H10   1.083533 S    
C116  C124  1.414518 A    
C27   C35   1.403265 A    
C134  S22   1.779162 S    
C12   C76   1.419599 A    
C119  C127  1.413520 A    
C120  C128  1.414412 A    
C31   C63   1.417649 A    
O45   H35   0.990433 S    
C4    C101  1.488285 S    
C22   O33   1.350481 S    
C51   S3    1.769686 S    
S5    O51   1.678800 S    
C8    C97   1.485968 S    
C28   C36   1.406066 A    
C88   C152  1.394965 A    
C9    C73   1.422328 A    
S12   O88   1.681719 S    
C17   O30   1.350245 S    
S11   O85   1.683476 S    
C119  C152  1.405113 A    
O14   C6    1.336659 A    
S6    O52   1.502763 D    
C32   C40   1.403530 A    
C35   C99   1.417257 A    
S19   O109  1.683839 S    
C54   S6    1.772951 S    
C15   C79   1.419945 A    
N9    O62   1.301360 A    
S24   O123  1.504952 D    
S1    O39   1.683831 S    
C68   C92   1.404531 A    
C70   C94   1.406524 A    
C73   C81   1.416337 A    
N10   O63   1.300220 A    
C44   C52   1.408822 A    
C51   C59   1.417544 A    
C77   C85   1.413274 A    
C20   O31   1.349629 S    
C79   C87   1.413207 A    
C48   C56   1.398013 A    
C56   S8    1.768084 S    
C7    C98   1.493631 S    
S16   O100  1.682469 S    
C43   C99   1.405628 A    
C90   C137  1.399956 A    
C69   C77   1.411129 A    
S7    O55   1.502651 D    
C146  H26   1.077778 S    
C41   C97   1.407239 A    
C34   C98   1.427613 A    
S2    O42   1.682042 S    
O11   C3    1.330444 A    
C38   S13   1.779905 S    
C94   C141  1.398589 A    
N7    C23   1.381594 A    
C30   C38   1.402212 A    
C38   C102  1.422593 A    
N16   O75   1.299638 A    
S18   O105  1.504803 D    
C131  C139  1.401653 A    
C9    N1    1.373362 A    
S3    O43   1.503285 D    
C129  C137  1.402052 A    
C23   O36   1.343711 S    
S13   O90   1.500218 D    
C132  C140  1.402257 A    
S17   O102  1.503203 D    
C133  C141  1.396734 A    
C15   N7    1.379156 A    
C108  C115  1.430952 A    
N5    C61   1.455533 S    
C16   N8    1.366773 A    
S20   O111  1.503759 D    
N11   O65   1.300575 A    
C136  C144  1.397509 A    
C115  C123  1.415133 A    
C27   C59   1.403180 A    
C41   C49   1.410485 A    
C140  H20   1.082781 S    
S14   O92   1.503293 D    
O88   H44   0.991642 S    
S21   O114  1.504286 D    
O7    V2    1.961682 S    
C89   C138  1.398757 A    
C109  C133  1.427777 A    
C92   C139  1.401268 A    
C42   H2    1.083046 S    
C107  C131  1.424703 A    
C93   C142  1.400246 A    
C85   N13   1.434207 S    
C67   C124  1.424019 A    
C44   H4    1.085577 S    
C115  C148  1.405578 A    
C65   C122  1.423889 A    
C96   C143  1.398105 A    
S11   O83   1.502448 D    
N2    C18   1.369359 A    
C144  H24   1.082432 S    
C129  S17   1.779231 S    
S19   O107  1.503210 D    
C69   C126  1.422008 A    
C32   C64   1.400625 A    
C131  S19   1.776784 S    
C47   C103  1.400504 A    
N13   O69   1.300940 A    
C116  C147  1.405095 A    
C14   N6    1.372616 A    
C120  C151  1.403390 A    
C27   H12   1.083808 S    
S23   O120  1.503304 D    
N8    C64   1.439749 S    
O4    C1    1.324471 A    
C16   C80   1.417464 A    
C84   C148  1.403125 A    
C3    C102  1.488844 S    
C106  C130  1.425243 A    
S4    O46   1.507401 D    
C46   C102  1.410141 A    
C17   C89   1.404879 A    
S2    O40   1.499721 D    
C76   C84   1.415060 A    
C30   H13   1.083321 S    
N12   O68   1.301327 A    
N6    C62   1.449418 S    
O14   V4    1.994411 S    
C21   O34   1.349019 S    
C80   C88   1.414522 A    
C19   O32   1.349442 S    
N6    C22   1.370604 A    
C42   C50   1.400423 A    
C105  C114  1.433264 A    
C9    O21   1.347132 S    
C68   C76   1.409425 A    
C46   H6    1.084078 S    
S15   O95   1.502045 D    
N14   O71   1.300779 A    
C26   C58   1.400219 A    
O54   H38   0.990316 S    
S22   O117  1.503824 D    
C86   C150  1.399194 A    
S12   O87   1.500760 D    
O3    V4    1.973755 S    
C81   N9    1.435234 S    
O4    V3    1.973752 S    
C14   C78   1.418790 A    
S8    O58   1.502003 D    
O82   H42   0.990770 S    
C24   O35   1.349857 S    
C105  C121  1.423428 A    
C5    C100  1.500203 S    
C109  C125  1.420249 A    
S22   O118  1.683743 S    
S7    O57   1.680339 S    
C150  H30   1.076901 S    
S9    O77   1.503941 D    
S23   O119  1.504257 D    
C139  H19   1.083466 S    
S12   O86   1.501882 D    
S10   O82   1.683788 S    
C137  H17   1.083297 S    
C66   C74   1.417644 A    
C71   C79   1.403582 A    
S16   O99   1.492057 D    
C132  S20   1.780536 S    
C141  H21   1.083394 S    
C117  C125  1.417147 A    
N7    C63   1.476383 S    
O42   H34   0.990735 S    
C25   C33   1.397789 A    
C111  C120  1.429696 A    
O3    C2    1.323762 A    
C112  C119  1.418117 A    
C46   C54   1.403169 A    
S3    O44   1.502984 D    
C114  C122  1.417229 A    
C37   S14   1.775436 S    
C148  H28   1.075070 S    
C117  C150  1.406399 A    
S4    O48   1.686083 S    
O9    V1    1.972788 S    
C36   S11   1.774960 S    
C91   C140  1.400420 A    
O15   C7    1.331302 A    
O16   C8    1.334317 A    
C47   H7    1.086927 S    
C112  C128  1.412984 A    
C45   C53   1.405147 A    
O5    V1    1.972968 S    
C113  C121  1.415178 A    
C36   C100  1.431836 A    
N3    C59   1.456296 S    
C10   N2    1.368929 A    
C14   O26   1.347876 S    
S4    O47   1.505631 D    
C114  C145  1.406855 A    
C67   C91   1.404032 A    
S5    O50   1.501169 D    
C65   C89   1.405772 A    
S9    O79   1.681740 S    
C49   C57   1.417567 A    
S11   O84   1.499022 D    
C23   C95   1.410679 A    
S6    O53   1.502935 D    
C82   N10   1.432038 S    
S19   O108  1.503174 D    
S8    O60   1.682913 S    
O51   H37   0.988742 S    
N9    O61   1.301365 A    
C26   H9    1.083237 S    
C110  C134  1.427686 A    
C67   C75   1.415524 A    
C43   H3    1.084079 S    
C35   S12   1.767958 S    
O9    C1    1.332200 A    
N10   O64   1.301285 A    
C41   H1    1.083664 S    
C66   C121  1.425545 A    
S6    O54   1.682860 S    
N3    C19   1.372316 A    
C52   C60   1.413730 A    
C70   C125  1.422912 A    
S10   O80   1.501502 D    
C135  C143  1.399660 A    
C109  C118  1.423665 A    
S15   O97   1.680193 S    
C107  C116  1.425192 A    
C10   C74   1.418686 A    
C135  S23   1.781193 S    
O91   H45   0.989855 S    
C22   C94   1.404542 A    
O20   V2    1.763110 S    
C25   C57   1.402050 A    
S7    O56   1.503886 D    
N16   O76   1.301780 A    
C151  H31   1.072168 S    
O5    C8    1.326183 A    
O6    C7    1.333729 A    
C50   C58   1.405703 A    
S13   O89   1.503140 D    
C45   H5    1.082319 S    
O57   H39   0.990257 S    
C74   C82   1.415862 A    
C107  C123  1.415969 A    
C72   C127  1.419814 A    
C44   C100  1.410233 A    
C68   C123  1.422919 A    
C33   S10   1.759044 S    
C34   S9    1.778848 S    
C111  C127  1.426083 A    
C78   C86   1.414935 A    
C111  C135  1.432418 A    
O106  H50   0.990559 S    
C28   H11   1.084216 S    
C48   C104  1.404096 A    
