data_mof_unit_5520.cif
_audit_creation_date              2012-12-10T18:06:48-0500
_audit_creation_method            fapswitch 2.2
_symmetry_space_group_name_H-M    P1
_symmetry_Int_Tables_number       1
_space_group_crystal_system       triclinic
_cell_length_a                    12.712088
_cell_length_b                    13.157707
_cell_length_c                    15.340059
_cell_angle_alpha                 86.525409
_cell_angle_beta                  98.243535
_cell_angle_gamma                 96.700191
_cell_volume                      2519.44005963

loop_
_atom_site_label
_atom_site_type_symbol
_atom_type_description
_atom_site_fract_x
_atom_site_fract_y
_atom_site_fract_z
_atom_type_partial_charge
C1    C     C_R   0.448078 0.308980 0.517946 0.892179
C2    C     C_R   0.597023 0.358772 0.925825 0.117815
C3    C     C_R   0.517479 0.424383 0.895869 0.086171
C4    C     C_R   0.434983 0.509626 0.335852 0.913063
C5    C     C_R   0.672740 0.342410 0.871200 -0.134441
C6    C     C_R   0.667710 0.388715 0.786435 -0.217183
C7    C     C_R   0.520346 0.476485 0.814408 -0.202497
C8    C     C_R   0.714711 0.952445 0.474029 -0.134554
C9    C     C_R   0.588630 0.802306 0.489053 -0.123913
C10   C     C_R   0.317838 0.162353 0.550898 -0.176478
C11   C     C_R   0.289984 0.057926 0.561815 -0.104701
C12   C     C_R   0.395321 0.443764 0.096485 0.072646
C13   C     C_R   0.366211 0.990633 0.560800 -0.157479
C14   C     C_R   0.474716 0.027677 0.554851 0.105132
C15   C     C_R   0.505159 0.133683 0.557499 0.098507
C16   C     C_R   0.555050 0.692041 0.488275 0.886312
C17   C     C_R   0.551737 0.964883 0.537213 0.054020
C18   C     C_R   0.654781 0.008653 0.520700 0.103432
C19   C     C_R   0.690578 0.108911 0.547206 -0.046395
C20   C     C_R   0.615449 0.168821 0.569171 -0.299875
C21   C     C_R   0.526317 0.860568 0.529188 -0.262836
C22   C     C_R   0.678025 0.851335 0.452857 0.219261
C23   C     C_R   0.302421 0.492590 0.064047 0.149336
C24   C     C_R   0.424354 0.200933 0.544946 -0.115415
C25   C     C_R   0.143462 0.587145 0.659486 -0.259920
C26   C     C_R   0.761136 0.378267 0.392686 0.040577
C27   C     C_R   0.856347 0.364054 0.362249 0.056922
C28   C     C_R   0.562634 0.484501 0.664120 0.831834
C29   C     C_R   0.951358 0.410674 0.403330 -0.201550
C30   C     C_R   0.953493 0.467518 0.478179 -0.008459
C31   C     C_R   0.854870 0.487698 0.503711 0.161293
C32   C     C_R   0.050624 0.505518 0.528076 0.001877
C33   C     C_R   0.048713 0.543078 0.612615 0.116816
C34   C     C_R   0.451746 0.401128 0.037240 0.005999
C35   C     C_R   0.950924 0.543118 0.644965 -0.118075
C36   C     C_R   0.858080 0.537603 0.583990 -0.154860
C37   C     C_R   0.150480 0.506492 0.497883 -0.072316
C38   C     C_R   0.236304 0.597426 0.621810 0.272190
C39   C     C_R   0.389421 0.502933 0.242482 -0.066387
C40   C     C_R   0.589304 0.454435 0.757339 -0.055309
C41   C     C_R   0.244650 0.532440 0.124218 -0.013710
C42   C     C_R   0.290192 0.538709 0.212482 -0.279801
C43   C     C_R   0.439769 0.453598 0.184857 -0.174573
C44   C     C_2   0.803833 0.154573 0.553863 0.387035
C45   C     C_R   0.438352 0.437804 0.948762 0.048664
C46   C     C_2   0.942333 0.566648 0.737372 0.377231
C47   C     C_2   0.670918 0.299726 0.368975 0.508435
C48   C     C_2   0.800257 0.626654 0.589137 0.622016
C49   C     C_2   0.138040 0.569575 0.099257 0.417061
C50   C     C_R   0.345450 0.485071 0.916178 -0.213637
C51   C     C_R   0.276261 0.508037 0.972614 -0.153601
C52   C     C_R   0.522188 0.325295 0.062524 0.152836
C53   C     C_R   0.595718 0.306470 0.007640 -0.226698
H1    H     H_    0.208467 0.546982 0.943884 0.207412
H2    H     H_    0.146407 0.619634 0.722723 0.218586
H3    H     H_    0.160794 0.473428 0.437676 0.136953
H4    H     H_    0.022398 0.393276 0.379334 0.167286
H5    H     H_    0.721583 0.369692 0.742727 0.145458
H6    H     H_    0.649319 0.248448 0.027689 0.188490
H7    H     H_    0.247833 0.572443 0.258001 0.162483
H8    H     H_    0.517306 0.428559 0.207383 0.217873
H9    H     H_    0.323049 0.502950 0.846857 0.163198
H10   H     H_    0.822634 0.237121 0.555952 0.048004
H11   H     H_    0.890783 0.515026 0.774777 0.080383
H12   H     H_    0.732826 0.290837 0.892666 0.156602
H13   H     H_    0.684013 0.219469 0.376871 0.052263
H14   H     H_    0.745761 0.627920 0.637129 0.035566
H15   H     H_    0.113356 0.626433 0.138251 0.082720
H16   H     H_    0.785369 0.988471 0.448188 0.203170
H17   H     H_    0.456555 0.823531 0.553659 0.199662
H18   H     H_    0.255132 0.212532 0.544387 0.176497
H19   H     H_    0.336046 0.910760 0.561935 0.158139
H20   H     H_    0.207477 0.028590 0.565601 0.180678
H21   H     H_    0.643853 0.243917 0.593657 0.164971
H22   H     H_    0.466795 0.533065 0.793039 0.178947
I1    I     I_    0.750191 0.785528 0.355966 -0.226699
I2    I     I_    0.364664 0.693266 0.687342 -0.393503
I3    I     I_    0.862716 0.267239 0.257194 -0.313523
I4    I     I_    0.494361 0.210170 0.162066 -0.272334
N1    N     N_R   0.239390 0.551900 0.544730 -0.118206
N2    N     N_R   0.759950 0.448600 0.455730 -0.155359
O1    O     O_R   0.374950 0.371210 0.521360 -0.616984
O2    O     O_2   0.984505 0.646609 0.769302 -0.524021
O3    O     O_2   0.583812 0.321551 0.335398 -0.536268
O4    O     O_2   0.826694 0.706368 0.549373 -0.540029
O5    O     O_2   0.074331 0.533219 0.038912 -0.543104
O6    O     O_R   0.542050 0.338030 0.492790 -0.597594
O7    O     O_R   0.368720 0.526070 0.390200 -0.625480
O8    O     O_R   0.535820 0.492890 0.361630 -0.547176
O9    O     O_R   0.457950 0.661970 0.507210 -0.598418
O10   O     O_R   0.625050 0.628790 0.478640 -0.590862
O11   O     O_R   0.464180 0.507110 0.638370 -0.587754
O12   O     O_R   0.631280 0.473930 0.609800 -0.677611
O13   O     O_2   0.877358 0.101365 0.561067 -0.542259
Zn1   Zn    Zn3+2 0.388420 0.522150 0.519080 0.972074
Zn2   Zn    Zn3+2 0.611580 0.477850 0.480920 0.985773

loop_
_geom_bond_atom_site_label_1
_geom_bond_atom_site_label_2
_ccdc_geom_bond_type
C1    O6    A    
C16   O9    A    
C49   H15   S    
C27   C29   A    
C41   C42   A    
C6    H5    S    
C19   C20   A    
C22   I1    S    
C27   I3    S    
C53   H6    S    
O9    Zn1   S    
C19   C44   S    
C12   C23   A    
C8    H16   S    
C9    C16   S    
C12   C43   A    
C3    C7    A    
C31   C36   A    
C30   C31   A    
C9    C22   A    
C28   C40   S    
C18   C19   A    
O10   Zn2   S    
C37   H3    S    
C35   C36   A    
C8    C22   A    
C7    C40   A    
C52   I4    S    
C47   H13   S    
C10   H18   S    
O7    Zn1   S    
C13   C14   A    
C14   C17   A    
C41   C49   S    
C50   C51   A    
C39   C42   A    
C44   H10   S    
C15   C20   A    
C37   N1    A    
C5    H12   S    
C11   H20   S    
C42   H7    S    
N2    Zn2   S    
C7    H22   S    
C10   C24   A    
C1    O1    A    
C47   O3    D    
C3    C45   A    
O11   Zn1   S    
C8    C18   A    
C46   H11   S    
C28   O12   A    
C29   C30   A    
C25   C38   A    
C23   C51   A    
C4    C39   S    
O6    Zn2   S    
C17   C18   A    
C26   C27   A    
C20   H21   S    
C28   O11   A    
C34   C45   A    
C32   C37   A    
N1    Zn1   S    
C26   C47   S    
C16   O10   A    
C15   C24   A    
C38   I2    S    
C29   H4    S    
C26   N2    A    
C50   H9    S    
C6    C40   A    
C2    C5    A    
C12   C34   A    
C52   C53   A    
C43   H8    S    
C4    O8    A    
O1    Zn1   S    
C48   O4    D    
C49   O5    D    
C25   H2    S    
C2    C53   A    
C23   C41   A    
C39   C43   A    
C4    O7    A    
C13   H19   S    
O12   Zn2   S    
C34   C52   A    
C31   N2    A    
C21   H17   S    
C51   H1    S    
C32   C33   A    
O8    Zn2   S    
C2    C3    A    
C30   C32   A    
C11   C13   A    
C9    C21   A    
C5    C6    A    
C38   N1    A    
C45   C50   A    
C33   C35   A    
C36   C48   S    
C48   H14   S    
C17   C21   A    
C44   O13   D    
C10   C11   A    
C46   O2    D    
C1    C24   S    
C14   C15   A    
C35   C46   S    
C25   C33   A    
