data_mof_unit_24460.cif
_audit_creation_date              2012-12-10T17:00:44-0500
_audit_creation_method            fapswitch 2.2
_symmetry_space_group_name_H-M    P1
_symmetry_Int_Tables_number       1
_space_group_crystal_system       triclinic
_cell_length_a                    27.818487
_cell_length_b                    10.92574
_cell_length_c                    9.700589
_cell_angle_alpha                 90.258488
_cell_angle_beta                  90.442836
_cell_angle_gamma                 90.391175
_cell_volume                      2948.18582693

loop_
_atom_site_label
_atom_site_type_symbol
_atom_type_description
_atom_site_fract_x
_atom_site_fract_y
_atom_site_fract_z
_atom_type_partial_charge
C1    C     C_R   0.500646 0.265398 0.499860 0.853557
C2    C     C_R   0.278957 0.507094 0.622015 -0.102884
C3    C     C_R   0.253624 0.500357 0.496919 0.356167
C4    C     C_R   0.101888 0.499738 0.497717 -0.047571
C5    C     C_R   0.127172 0.393426 0.460855 -0.020887
C6    C     C_R   0.101686 0.287502 0.424415 -0.147900
C7    C     C_R   0.127845 0.606510 0.533299 -0.020620
C8    C     C_R   0.354515 0.500047 0.498524 -0.039479
C9    C     C_R   0.645463 0.500498 0.501504 -0.030497
C10   C     C_R   0.974209 0.387680 0.475706 -0.018907
C11   C     C_R   0.974716 0.609133 0.526419 0.059731
C12   C     C_R   0.407481 0.499981 0.499525 0.800247
C13   C     C_R   0.949140 0.497986 0.501121 0.066765
C14   C     C_R   0.947342 0.278232 0.461064 -0.305635
C15   C     C_R   0.897157 0.277231 0.459852 0.468685
C16   C     C_R   0.871898 0.386985 0.481356 -0.124154
C17   C     C_R   0.897975 0.497199 0.502121 -0.105247
C18   C     C_R   0.872795 0.607046 0.524251 0.005483
C19   C     C_R   0.822416 0.605673 0.524422 0.528629
C20   C     C_R   0.821150 0.390362 0.483264 0.556469
C21   C     C_R   0.721260 0.512770 0.626976 -0.096993
C22   C     C_R   0.671123 0.512921 0.626310 -0.223918
C23   C     C_R   0.499526 0.734633 0.500293 0.845656
C24   C     C_R   0.670889 0.488089 0.377558 -0.210556
C25   C     C_R   0.721002 0.487384 0.378636 -0.115790
C26   C     C_R   0.746301 0.499697 0.503241 0.357825
C27   C     C_R   0.025217 0.389560 0.467600 0.069628
C28   C     C_R   0.050771 0.499269 0.498998 0.069176
C29   C     C_R   0.025820 0.608494 0.531621 0.039155
C30   C     C_R   0.051779 0.285481 0.427096 -0.209359
C31   C     C_R   0.103035 0.712255 0.569887 -0.143860
C32   C     C_R   0.948076 0.717668 0.545122 -0.208344
C33   C     C_R   0.898229 0.716266 0.544603 -0.157931
C34   C     C_R   0.592512 0.500278 0.500483 0.787366
C35   C     C_R   0.053111 0.713464 0.569331 -0.210364
C36   C     C_2   0.501421 0.932526 0.387042 -0.145299
C37   C     C_2   0.497240 0.866637 0.502638 -0.310286
C38   C     C_2   0.499198 0.066473 0.386555 -0.150047
C39   C     C_2   0.503294 0.133489 0.502009 -0.308982
C40   C     C_2   0.472290 0.429363 0.922111 0.073539
C41   C     C_2   0.467143 0.445137 0.076449 -0.031699
C42   C     C_R   0.177643 0.395732 0.460667 0.535184
C43   C     C_R   0.178305 0.604832 0.532114 0.535353
C44   C     C_R   0.278718 0.493409 0.372592 -0.100143
C45   C     C_R   0.328855 0.493414 0.373219 -0.210993
C46   C     C_R   0.329074 0.506778 0.622990 -0.210398
Cu1   Cu    Cu3+1 0.500010 0.500020 0.638630 0.973687
Cu2   Cu    Cu3+1 0.499990 0.499980 0.361370 0.948595
H1    H     H_    0.347829 0.511993 0.721108 0.162599
H2    H     H_    0.259306 0.488377 0.275519 0.141503
H3    H     H_    0.122153 0.795145 0.599444 0.188686
H4    H     H_    0.964548 0.806428 0.558172 0.140639
H5    H     H_    0.652121 0.478327 0.279859 0.155032
H6    H     H_    0.879646 0.801945 0.560423 0.189612
H7    H     H_    0.740251 0.477436 0.282678 0.132387
H8    H     H_    0.037104 0.798107 0.601867 0.140087
H9    H     H_    0.505832 0.887370 0.287961 0.176725
H10   H     H_    0.490936 0.907957 0.602351 0.153693
H11   H     H_    0.494732 0.110598 0.287172 0.166757
H12   H     H_    0.259732 0.512161 0.718492 0.141673
H13   H     H_    0.509724 0.093047 0.601982 0.147271
H14   H     H_    0.452031 0.356115 0.872476 0.082711
H15   H     H_    0.435710 0.405723 0.125090 0.127853
H16   H     H_    0.532417 0.513652 0.109423 0.230587
H17   H     H_    0.120247 0.205168 0.393180 0.188873
H18   H     H_    0.652536 0.523002 0.723311 0.141185
H19   H     H_    0.740705 0.522256 0.723605 0.135599
H20   H     H_    0.964184 0.190026 0.453754 0.151127
H21   H     H_    0.035107 0.201169 0.393423 0.137954
H22   H     H_    0.347453 0.488028 0.275737 0.156943
N1    N     N_R   0.202071 0.500375 0.496282 -0.468848
N2    N     N_R   0.797821 0.498529 0.504006 -0.474886
N3    N     N_2   0.499480 0.498660 0.846910 -0.012175
N4    N     N_2   0.499460 0.498630 0.153040 -0.261883
O1    O     O_R   0.500010 0.321960 0.617040 -0.596536
O2    O     O_2   0.795089 0.286881 0.465114 -0.490889
O3    O     O_2   0.203449 0.706943 0.565549 -0.532181
O4    O     O_2   0.798088 0.710757 0.543914 -0.540229
O5    O     O_R   0.499990 0.321920 0.382900 -0.578889
O6    O     O_R   0.430270 0.500040 0.617060 -0.579270
O7    O     O_R   0.430260 0.500000 0.382910 -0.581834
O8    O     O_R   0.500010 0.678080 0.617100 -0.564246
O9    O     O_R   0.499990 0.678040 0.382960 -0.565258
O10   O     O_R   0.569740 0.500000 0.617090 -0.615867
O11   O     O_R   0.569730 0.499960 0.382940 -0.590551
O12   O     O_2   0.202143 0.293954 0.426465 -0.534268
O13   O     O_3   0.509427 0.609255 0.903871 -0.480119
C47   C     C_3   0.558713 0.634867 0.884433 0.192334
H23   H     H_    0.565364 0.668755 0.779113 0.187474
H24   H     H_    0.581406 0.552992 0.904348 0.103970
C48   C     C_3   0.574442 0.736439 0.983291 -0.884315
H25   H     H_    0.569552 0.707654 0.091887 0.251807
H26   H     H_    0.613015 0.758486 0.967136 0.213638
H27   H     H_    0.552904 0.820003 0.964255 0.258304
O14   O     O_3   0.873175 0.166200 0.448080 -0.534561
C49   C     C_3   0.873832 0.127899 0.308825 0.079570
H28   H     H_    0.911120 0.107231 0.275362 0.121177
H29   H     H_    0.858198 0.199121 0.240062 0.148271
C50   C     C_3   0.843766 0.011818 0.292991 -0.685452
H30   H     H_    0.806165 0.029397 0.324862 0.275055
H31   H     H_    0.843723 0.981279 0.183658 0.187969
H32   H     H_    0.859008 0.938019 0.357986 0.241040

loop_
_geom_bond_atom_site_label_1
_geom_bond_atom_site_label_2
_ccdc_geom_bond_type
C10   C27   A    
C21   C26   A    
C23   O8    A    
C26   N2    S    
O14   C49   S    
O13   C47   S    
C2    C46   A    
C46   H1    S    
C23   O9    A    
Cu2   O5    S    
C36   C37   D    
C15   O14   S    
C5    C6    A    
C2    H12   S    
C9    C22   A    
C15   C16   A    
C49   C50   S    
C40   H14   S    
Cu2   O7    S    
C20   O2    S    
C18   C19   A    
Cu1   O8    S    
C8    C45   A    
C32   H4    S    
C41   N4    D    
C6    H17   S    
N3    O13   S    
Cu1   Cu2   S    
C16   C17   A    
C49   H29   S    
C42   O12   S    
C7    C43   A    
C37   H10   S    
C16   C20   A    
C45   H22   S    
C21   C22   A    
C21   H19   S    
C27   C30   A    
C19   N2    A    
C34   O10   A    
Cu1   O6    S    
C4    C7    A    
C4    C28   A    
C39   H13   S    
C3    C44   A    
C7    C31   A    
C1    O1    A    
Cu2   N4    S    
C24   C25   A    
Cu1   N3    S    
C36   H9    S    
C10   C14   A    
C48   H25   S    
C24   H5    S    
C23   C37   S    
C34   O11   A    
C19   O4    S    
C3    N1    S    
C48   H26   S    
C50   H30   S    
C47   C48   S    
C8    C12   S    
C49   H28   S    
C17   C18   A    
Cu1   O10   S    
C40   C41   S    
C6    C30   A    
C47   H24   S    
C11   C32   A    
C9    C34   S    
C1    O5    A    
C31   C35   A    
C41   H15   S    
C30   H21   S    
C44   C45   A    
C5    C42   A    
C44   H2    S    
C33   H6    S    
C28   C29   A    
C43   N1    A    
C50   H31   S    
C35   H8    S    
Cu2   O11   S    
C25   H7    S    
C31   H3    S    
C4    C5    A    
C10   C13   A    
C9    C24   A    
C22   H18   S    
C43   O3    S    
C29   C35   A    
Cu2   O9    S    
C13   C17   A    
C32   C33   A    
C36   C38   S    
C2    C3    A    
C25   C26   A    
Cu1   O1    S    
C48   H27   S    
C11   C13   A    
C38   C39   D    
C12   O6    A    
C42   N1    A    
C12   O7    A    
C14   H20   S    
C18   C33   A    
C8    C46   A    
C1    C39   S    
C38   H11   S    
C50   H32   S    
C47   H23   S    
C11   C29   A    
C27   C28   A    
H16   N4    S    
C14   C15   A    
C20   N2    A    
C40   N3    D    
