data_mof_unit_64299.cif
_audit_creation_date              2013-03-05T16:29:01-0500
_audit_creation_method            fapswitch 2.2
_symmetry_space_group_name_H-M    P1
_symmetry_Int_Tables_number       1
_space_group_crystal_system       triclinic
_cell_length_a                    32.237958
_cell_length_b                    32.237976
_cell_length_c                    47.23562
_cell_angle_alpha                 90.0
_cell_angle_beta                  89.999935
_cell_angle_gamma                 90.042797
_cell_volume                      49091.3292599

loop_
_atom_site_label
_atom_site_type_symbol
_atom_site_description
_atom_site_fract_x
_atom_site_fract_y
_atom_site_fract_z
_atom_type_partial_charge
O1    O     O_R   0.059820 0.534610 0.000040 -0.534044
O2    O     O_R   0.465390 0.059820 0.000040 -0.567785
O3    O     O_R   0.940180 0.465390 0.000040 -0.534020
O4    O     O_R   0.534610 0.940180 0.000040 -0.567798
O5    O     O_R   0.059820 0.465390 0.999960 -0.600445
O6    O     O_R   0.465390 0.940180 0.999960 -0.567535
O7    O     O_R   0.940180 0.534610 0.999960 -0.600457
O8    O     O_R   0.534610 0.059820 0.999960 -0.567520
O9    O     O_R   0.559820 0.034610 0.500040 -0.567508
O10   O     O_R   0.965390 0.559820 0.500040 -0.600481
O11   O     O_R   0.440180 0.965390 0.500040 -0.567509
O12   O     O_R   0.034610 0.440180 0.500040 -0.600481
O13   O     O_R   0.559820 0.965390 0.499960 -0.567771
O14   O     O_R   0.965390 0.440180 0.499960 -0.533842
O15   O     O_R   0.440180 0.034610 0.499960 -0.567771
O16   O     O_R   0.034610 0.559820 0.499960 -0.533839
C1    C     C_R   0.079578 0.500011 0.000005 0.885883
C2    C     C_R   0.500013 0.079578 1.000000 0.889705
C3    C     C_R   0.920422 0.499989 0.000005 0.885875
C4    C     C_R   0.499987 0.920422 1.000000 0.889804
C5    C     C_R   0.579578 0.000013 0.500000 0.889720
C6    C     C_R   0.000011 0.579578 0.499994 0.885625
C7    C     C_R   0.420422 0.999986 0.500000 0.889734
C8    C     C_R   0.999989 0.420422 0.499994 0.885627
O17   O     O_R   0.999950 0.534610 0.041090 -0.559026
O18   O     O_R   0.465390 0.999950 0.041090 -0.559309
O19   O     O_R   0.000050 0.465390 0.041090 -0.558990
O20   O     O_R   0.534610 0.000050 0.041090 -0.559376
O21   O     O_R   0.999950 0.465390 0.958910 -0.559179
O22   O     O_R   0.465390 0.000050 0.958910 -0.559410
O23   O     O_R   0.000050 0.534610 0.958910 -0.559160
O24   O     O_R   0.534610 0.999950 0.958910 -0.559341
O25   O     O_R   0.499950 0.034610 0.541090 -0.559370
O26   O     O_R   0.965390 0.499950 0.541090 -0.558334
O27   O     O_R   0.500050 0.965390 0.541090 -0.559378
O28   O     O_R   0.034610 0.500050 0.541090 -0.558336
O29   O     O_R   0.499950 0.965390 0.458910 -0.559340
O30   O     O_R   0.965390 0.500050 0.458910 -0.559017
O31   O     O_R   0.500050 0.034610 0.458910 -0.559351
O32   O     O_R   0.034610 0.499950 0.458910 -0.559012
C9    C     C_R   0.000000 0.500000 0.054576 0.926300
C10   C     C_R   0.500000 1.000000 0.054576 0.926959
C11   C     C_R   1.000000 0.500000 0.945354 0.917780
C12   C     C_R   0.500000 1.000000 0.945424 0.926910
C13   C     C_R   0.500000 1.000000 0.554575 0.926856
C14   C     C_R   1.000000 0.500000 0.554646 0.917841
C15   C     C_R   0.500000 0.000000 0.445424 0.926905
C16   C     C_R   0.000000 0.500000 0.445424 0.926066
Cu1   Cu    Cu3+1 0.000000 0.540980 0.000000 1.101198
Cu2   Cu    Cu3+1 0.459020 0.000000 0.000000 1.097201
Cu3   Cu    Cu3+1 0.000000 0.459020 0.000000 1.101240
Cu4   Cu    Cu3+1 0.540980 0.000000 0.000000 1.097205
Cu5   Cu    Cu3+1 0.500000 0.040980 0.500000 1.097316
Cu6   Cu    Cu3+1 0.959020 0.500000 0.500000 1.102364
Cu7   Cu    Cu3+1 0.500000 0.959020 0.500000 1.097318
Cu8   Cu    Cu3+1 0.040980 0.500000 0.500000 1.102368
C17   C     C_R   0.026886 0.474521 0.309650 0.559349
C18   C     C_R   0.525491 0.026915 0.309650 0.559237
C19   C     C_R   0.973114 0.525479 0.309650 0.559344
C20   C     C_R   0.474509 0.973089 0.309650 0.559243
C21   C     C_R   0.034450 0.486372 0.690332 0.560819
C22   C     C_R   0.525472 0.973108 0.690349 0.559331
C23   C     C_R   0.965549 0.513627 0.690332 0.560822
C24   C     C_R   0.474529 0.026895 0.690349 0.559331
C25   C     C_R   0.526885 0.974522 0.809650 0.559334
C26   C     C_R   0.034402 0.486253 0.809631 0.561034
C27   C     C_R   0.473116 0.025484 0.809650 0.559304
C28   C     C_R   0.965596 0.513746 0.809631 0.561042
C29   C     C_R   0.526904 0.025503 0.190350 0.559213
C30   C     C_R   0.025475 0.473110 0.190349 0.559346
C31   C     C_R   0.473096 0.974503 0.190350 0.559243
C32   C     C_R   0.974525 0.526891 0.190349 0.559330
N1    N     N_R   1.000000 0.500000 0.323985 -0.447788
N2    N     N_R   0.500000 0.000002 0.323985 -0.447799
N3    N     N_R   0.999999 0.500000 0.676088 -0.450352
N4    N     N_R   0.500000 0.000001 0.676015 -0.447773
N5    N     N_R   0.500000 0.000003 0.823985 -0.447774
N6    N     N_R   0.999999 0.499999 0.823887 -0.448845
N7    N     N_R   0.500000 0.000003 0.176015 -0.447803
N8    N     N_R   1.000000 0.500000 0.176015 -0.447781
O33   O     O_R   0.499970 0.440170 0.023830 -0.575156
O34   O     O_R   0.559830 0.499970 0.023830 -0.575221
O35   O     O_R   0.500030 0.559830 0.023830 -0.575173
O36   O     O_R   0.440170 0.500030 0.023830 -0.575121
O37   O     O_R   0.499970 0.559830 0.976170 -0.575274
O38   O     O_R   0.559830 0.500030 0.976170 -0.575363
O39   O     O_R   0.500030 0.440170 0.976170 -0.575338
O40   O     O_R   0.440170 0.499970 0.976170 -0.575451
O41   O     O_R   0.999970 0.940170 0.523830 -0.575526
O42   O     O_R   0.059830 0.999970 0.523830 -0.575403
O43   O     O_R   0.000030 0.059830 0.523830 -0.575511
O44   O     O_R   0.940170 0.000030 0.523830 -0.575399
O45   O     O_R   0.999970 0.059830 0.476170 -0.575134
O46   O     O_R   0.059830 0.000030 0.476170 -0.575144
O47   O     O_R   0.000030 0.940170 0.476170 -0.575121
O48   O     O_R   0.940170 0.999970 0.476170 -0.575155
C33   C     C_R   0.973014 0.526433 0.279900 -0.025828
C34   C     C_R   0.473554 0.972989 0.279900 -0.025940
C35   C     C_R   0.026986 0.473567 0.279900 -0.025837
C36   C     C_R   0.526446 0.027015 0.279900 -0.025929
C37   C     C_R   0.964823 0.513860 0.720083 -0.027236
C38   C     C_R   0.473575 0.026995 0.720099 -0.025813
C39   C     C_R   0.035175 0.486140 0.720083 -0.027229
C40   C     C_R   0.526427 0.973009 0.720100 -0.025819
C41   C     C_R   0.473017 0.026438 0.779900 -0.025803
C42   C     C_R   0.964846 0.513910 0.779880 -0.026102
C43   C     C_R   0.526984 0.973567 0.779900 -0.025834
C44   C     C_R   0.035152 0.486088 0.779880 -0.026091
C45   C     C_R   0.472996 0.973548 0.220100 -0.025953
C46   C     C_R   0.973571 0.526990 0.220100 -0.025816
C47   C     C_R   0.527004 0.026458 0.220100 -0.025923
C48   C     C_R   0.026429 0.473010 0.220100 -0.025836
C49   C     C_R   1.000000 0.500000 0.264969 -0.012436
C50   C     C_R   0.500000 0.000002 0.264970 -0.012461
C51   C     C_R   0.999999 0.500000 0.735014 -0.012023
C52   C     C_R   0.500001 0.000002 0.735030 -0.012424
C53   C     C_R   0.500001 0.000003 0.764969 -0.012424
C54   C     C_R   0.999999 0.499999 0.764949 -0.012042
C55   C     C_R   0.500000 0.000003 0.235031 -0.012461
C56   C     C_R   1.000000 0.500000 0.235031 -0.012435
C57   C     C_R   0.946527 0.553032 0.264779 -0.144516
C58   C     C_R   0.446942 0.946476 0.264779 -0.144506
C59   C     C_R   0.053472 0.446968 0.264779 -0.144502
C60   C     C_R   0.553058 0.053528 0.264780 -0.144520
C61   C     C_R   0.929919 0.527678 0.735199 -0.144596
C62   C     C_R   0.446982 0.053488 0.735220 -0.144539
C63   C     C_R   0.070079 0.472321 0.735199 -0.144608
C64   C     C_R   0.553019 0.946516 0.735221 -0.144527
C65   C     C_R   0.446533 0.053039 0.764779 -0.144554
C66   C     C_R   0.929937 0.527718 0.764763 -0.144890
C67   C     C_R   0.553469 0.946966 0.764780 -0.144517
C68   C     C_R   0.070062 0.472281 0.764763 -0.144903
C69   C     C_R   0.446492 0.946927 0.235220 -0.144496
C70   C     C_R   0.946976 0.553481 0.235221 -0.144536
C71   C     C_R   0.553508 0.053079 0.235221 -0.144527
C72   C     C_R   0.053023 0.446519 0.235220 -0.144512
Cu9   Cu    Cu3+1 0.500000 0.500000 0.028170 0.997959
Cu10  Cu    Cu3+1 0.500000 0.500000 0.971830 0.997331
Cu11  Cu    Cu3+1 0.000000 0.000000 0.528170 0.996827
Cu12  Cu    Cu3+1 0.000000 1.000000 0.471830 0.997927
O49   O     O_2   0.053781 0.450466 0.324114 -0.514856
O50   O     O_2   0.549557 0.053836 0.324114 -0.514697
O51   O     O_2   0.946219 0.549535 0.324114 -0.514870
O52   O     O_2   0.450443 0.946167 0.324113 -0.514679
O53   O     O_2   0.067766 0.472779 0.675750 -0.512977
O54   O     O_2   0.549520 0.946206 0.675886 -0.514853
O55   O     O_2   0.932233 0.527221 0.675750 -0.512968
O56   O     O_2   0.450481 0.053797 0.675886 -0.514849
O57   O     O_2   0.553779 0.950465 0.824114 -0.514796
O58   O     O_2   0.067650 0.472460 0.824199 -0.517456
O59   O     O_2   0.446222 0.049540 0.824113 -0.514895
O60   O     O_2   0.932348 0.527538 0.824199 -0.517428
O61   O     O_2   0.553817 0.049578 0.175887 -0.514718
O62   O     O_2   0.049526 0.446211 0.175886 -0.514886
O63   O     O_2   0.446182 0.950427 0.175887 -0.514628
O64   O     O_2   0.950474 0.553789 0.175886 -0.514942
H1    H     H_    0.925498 0.573738 0.275722 0.195742
H2    H     H_    0.426226 0.925426 0.275722 0.195867
H3    H     H_    0.074501 0.426263 0.275722 0.195751
H4    H     H_    0.573774 0.074578 0.275722 0.195856
H5    H     H_    0.902474 0.538518 0.724248 0.195140
H6    H     H_    0.426282 0.074523 0.724277 0.195705
H7    H     H_    0.097525 0.461481 0.724248 0.195133
H8    H     H_    0.573719 0.925482 0.724278 0.195714
H9    H     H_    0.425505 0.073747 0.775721 0.195699
H10   H     H_    0.902502 0.538587 0.775713 0.194625
H11   H     H_    0.574496 0.926259 0.775722 0.195726
H12   H     H_    0.097496 0.461411 0.775713 0.194613
H13   H     H_    0.425449 0.926204 0.224278 0.195877
H14   H     H_    0.926274 0.574514 0.224278 0.195727
H15   H     H_    0.574551 0.073802 0.224278 0.195854
H16   H     H_    0.073725 0.425487 0.224278 0.195746
C73   C     C_R   0.036753 0.507275 0.130497 -0.135134
C74   C     C_R   0.492755 0.036749 0.130497 -0.135388
C75   C     C_R   0.963247 0.492726 0.130497 -0.135114
C76   C     C_R   0.507247 0.963254 0.130497 -0.135458
C77   C     C_R   0.026878 0.526123 0.869234 -0.147997
C78   C     C_R   0.492720 0.963250 0.869502 -0.135368
C79   C     C_R   0.973120 0.473876 0.869235 -0.148020
C80   C     C_R   0.507278 0.036754 0.869503 -0.135305
C81   C     C_R   0.536755 0.007267 0.630497 -0.135291
C82   C     C_R   0.026122 0.526880 0.630767 -0.147305
C83   C     C_R   0.463246 0.992734 0.630497 -0.135306
C84   C     C_R   0.973877 0.473120 0.630767 -0.147300
C85   C     C_R   0.536750 0.992768 0.369503 -0.135389
C86   C     C_R   0.992719 0.463249 0.369503 -0.135109
C87   C     C_R   0.463250 0.007234 0.369503 -0.135391
C88   C     C_R   0.007280 0.536752 0.369503 -0.135102
H17   H     H_    0.065044 0.513430 0.142138 0.198403
H18   H     H_    0.486622 0.065037 0.142137 0.198331
H19   H     H_    0.934955 0.486571 0.142138 0.198407
H20   H     H_    0.513380 0.934967 0.142139 0.198309
H21   H     H_    0.047907 0.545950 0.857526 0.193656
H22   H     H_    0.486562 0.934960 0.857861 0.198383
H23   H     H_    0.952091 0.454049 0.857526 0.193650
H24   H     H_    0.513436 0.065045 0.857863 0.198402
H25   H     H_    0.565048 0.013415 0.642137 0.198396
H26   H     H_    0.045725 0.548102 0.642489 0.191294
H27   H     H_    0.434953 0.986586 0.642138 0.198390
H28   H     H_    0.954274 0.451898 0.642489 0.191297
H29   H     H_    0.565040 0.986644 0.357862 0.198330
H30   H     H_    0.986560 0.434958 0.357862 0.198400
H31   H     H_    0.434960 0.013358 0.357862 0.198330
H32   H     H_    0.013440 0.565042 0.357862 0.198402
C89   C     C_R   0.037334 0.507418 0.100816 0.258296
C90   C     C_R   0.492614 0.037330 0.100816 0.258597
C91   C     C_R   0.962666 0.492583 0.100816 0.258248
C92   C     C_R   0.507388 0.962672 0.100817 0.258656
C93   C     C_R   0.027774 0.526003 0.898908 0.261816
C94   C     C_R   0.492578 0.962668 0.899183 0.258584
C95   C     C_R   0.972225 0.473997 0.898908 0.261871
C96   C     C_R   0.507420 0.037334 0.899184 0.258526
C97   C     C_R   0.537336 0.007408 0.600816 0.258563
C98   C     C_R   0.026017 0.527764 0.601093 0.261421
C99   C     C_R   0.462664 0.992592 0.600816 0.258575
C100  C     C_R   0.973982 0.472236 0.601093 0.261412
C101  C     C_R   0.537331 0.992626 0.399184 0.258622
C102  C     C_R   0.992576 0.462667 0.399184 0.258307
C103  C     C_R   0.462668 0.007375 0.399184 0.258633
C104  C     C_R   0.007424 0.537333 0.399184 0.258299
C105  C     C_R   0.000000 0.500000 0.085723 -0.262524
C106  C     C_R   0.500000 0.000000 0.085723 -0.262173
C107  C     C_R   0.999999 0.500000 0.914068 -0.273678
C108  C     C_R   0.500000 0.000001 0.914277 -0.262231
C109  C     C_R   0.500000 1.000000 0.585723 -0.262239
C110  C     C_R   1.000000 0.500000 0.585932 -0.271879
C111  C     C_R   0.500000 0.000000 0.414277 -0.262183
C112  C     C_R   0.000000 0.500000 0.414277 -0.262445
C113  C     C_R   1.000000 0.500000 0.145450 0.209034
C114  C     C_R   0.500001 0.000002 0.145450 0.209067
C115  C     C_R   0.999999 0.500000 0.854366 0.223192
C116  C     C_R   0.499999 0.000002 0.854550 0.209044
C117  C     C_R   0.500000 0.000001 0.645450 0.209038
C118  C     C_R   1.000000 0.500000 0.645621 0.222678
C119  C     C_R   0.500000 0.000001 0.354550 0.209053
C120  C     C_R   1.000000 0.500000 0.354550 0.209037
H33   H     H_    0.211763 0.493600 0.954638 0.161463
H34   H     H_    0.508368 0.211783 0.954723 0.173320
H35   H     H_    0.788236 0.504319 0.954522 0.161874
H36   H     H_    0.486828 0.788213 0.955257 0.173243
H37   H     H_    0.211803 0.506644 0.045466 0.173363
H38   H     H_    0.513062 0.788236 0.044747 0.173162
H39   H     H_    0.788199 0.495430 0.045583 0.173257
H40   H     H_    0.491742 0.211768 0.045279 0.173285
H41   H     H_    0.711769 0.992275 0.454677 0.173283
H42   H     H_    0.006667 0.711803 0.454535 0.173349
H43   H     H_    0.288232 0.008403 0.454734 0.173289
H44   H     H_    0.993037 0.288197 0.454555 0.173357
H45   H     H_    0.711783 0.007834 0.545321 0.173303
H46   H     H_    0.006720 0.288238 0.545339 0.160140
H47   H     H_    0.288217 0.991487 0.545264 0.173308
H48   H     H_    0.993577 0.711762 0.545359 0.160195
C121  C     C_R   0.271730 0.496443 0.974507 -0.156264
C122  C     C_R   0.504717 0.271742 0.974544 -0.157947
C123  C     C_R   0.728270 0.502386 0.974442 -0.156271
C124  C     C_R   0.492581 0.728256 0.974845 -0.157913
C125  C     C_R   0.271756 0.503778 0.025574 -0.158817
C126  C     C_R   0.507333 0.728269 0.025159 -0.158101
C127  C     C_R   0.728244 0.497387 0.025640 -0.158849
C128  C     C_R   0.495369 0.271733 0.025458 -0.157983
C129  C     C_R   0.771734 0.995669 0.474518 -0.157984
C130  C     C_R   0.003791 0.771757 0.474426 -0.158895
C131  C     C_R   0.228267 0.004713 0.474549 -0.157991
C132  C     C_R   0.996042 0.228243 0.474438 -0.158912
C133  C     C_R   0.771741 0.004417 0.525481 -0.158006
C134  C     C_R   0.003737 0.228271 0.525479 -0.156491
C135  C     C_R   0.228258 0.995201 0.525448 -0.158013
C136  C     C_R   0.996429 0.771729 0.525491 -0.156516
H49   H     H_    0.288231 0.493579 0.954623 0.151126
H50   H     H_    0.508353 0.288258 0.954723 0.152904
H51   H     H_    0.711767 0.504340 0.954507 0.151240
H52   H     H_    0.486841 0.711737 0.955256 0.152874
H53   H     H_    0.288281 0.506628 0.045452 0.153040
H54   H     H_    0.513083 0.711761 0.044746 0.152770
H55   H     H_    0.711720 0.495447 0.045569 0.152992
H56   H     H_    0.491724 0.288243 0.045279 0.152889
H57   H     H_    0.788243 0.992258 0.454677 0.152886
H58   H     H_    0.006652 0.788281 0.454549 0.153013
H59   H     H_    0.211757 0.008421 0.454734 0.152882
H60   H     H_    0.993052 0.211718 0.454570 0.153007
H61   H     H_    0.788257 0.007819 0.545321 0.152854
H62   H     H_    0.006742 0.211769 0.545354 0.150643
H63   H     H_    0.211742 0.991502 0.545265 0.152846
H64   H     H_    0.993555 0.788231 0.545374 0.150649
C137  C     C_R   0.293612 0.500099 0.000036 0.139584
C138  C     C_R   0.500037 0.293607 0.000001 0.139164
C139  C     C_R   0.706388 0.499899 0.000036 0.139570
C140  C     C_R   0.499963 0.706393 0.000001 0.139228
C141  C     C_R   0.793607 0.000037 0.499999 0.139180
C142  C     C_R   0.000099 0.793612 0.499963 0.139860
C143  C     C_R   0.206393 0.999963 0.499999 0.139188
C144  C     C_R   0.999901 0.206388 0.499963 0.139862
C145  C     C_R   0.228313 0.503788 0.025583 -0.137833
C146  C     C_R   0.495379 0.228291 0.025458 -0.140133
C147  C     C_R   0.771688 0.497376 0.025649 -0.138051
C148  C     C_R   0.507322 0.771711 0.025159 -0.140034
C149  C     C_R   0.228289 0.496455 0.974516 -0.146068
C150  C     C_R   0.492572 0.771698 0.974844 -0.139884
C151  C     C_R   0.771710 0.502374 0.974451 -0.145927
C152  C     C_R   0.504727 0.228300 0.974544 -0.140049
C153  C     C_R   0.728299 0.004427 0.525481 -0.140060
C154  C     C_R   0.996442 0.728289 0.525482 -0.146903
C155  C     C_R   0.271700 0.995191 0.525449 -0.140046
C156  C     C_R   0.003725 0.271711 0.525471 -0.146921
C157  C     C_R   0.728291 0.995679 0.474517 -0.140135
C158  C     C_R   0.996032 0.271687 0.474429 -0.137695
C159  C     C_R   0.271709 0.004702 0.474549 -0.140121
C160  C     C_R   0.003801 0.728313 0.474417 -0.137724
C161  C     C_R   0.206437 0.500121 0.000053 0.128700
C162  C     C_R   0.500057 0.206433 0.000001 0.124627
C163  C     C_R   0.793563 0.499876 0.000053 0.128595
C164  C     C_R   0.499943 0.793567 0.000002 0.124578
C165  C     C_R   0.706433 0.000057 0.499999 0.124655
C166  C     C_R   0.000120 0.706437 0.499946 0.129191
C167  C     C_R   0.293567 0.999943 0.499999 0.124635
C168  C     C_R   0.999880 0.293562 0.499946 0.129208
C169  C     C_1   0.338393 0.500065 0.000023 -0.045013
C170  C     C_1   0.500022 0.338390 0.000000 -0.044511
C171  C     C_1   0.661607 0.499934 0.000023 -0.045021
C172  C     C_1   0.499978 0.661610 0.000000 -0.044494
C173  C     C_1   0.838390 0.000022 0.500000 -0.044571
C174  C     C_1   0.000065 0.838393 0.499977 -0.045183
C175  C     C_1   0.161610 0.999978 0.500000 -0.044568
C176  C     C_1   0.999935 0.161607 0.499977 -0.045182
C177  C     C_1   0.161665 0.500090 0.000054 -0.016105
C178  C     C_1   0.500054 0.161662 0.000000 -0.010850
C179  C     C_1   0.838334 0.499908 0.000055 -0.016119
C180  C     C_1   0.499946 0.838338 0.000001 -0.010860
C181  C     C_1   0.661662 0.000054 0.499999 -0.010832
C182  C     C_1   0.000090 0.661666 0.499945 -0.016621
C183  C     C_1   0.338338 0.999946 0.499999 -0.010835
C184  C     C_1   0.999910 0.338334 0.499945 -0.016618
C185  C     C_1   0.124196 0.500051 0.000037 -0.059219
C186  C     C_1   0.500042 0.124194 0.000000 -0.052226
C187  C     C_1   0.875804 0.499949 0.000037 -0.059208
C188  C     C_1   0.499958 0.875806 0.000000 -0.052230
C189  C     C_1   0.624193 0.000042 0.500000 -0.052179
C190  C     C_1   0.000051 0.624196 0.499962 -0.059479
C191  C     C_1   0.375806 0.999958 0.500000 -0.052177
C192  C     C_1   0.999949 0.375804 0.499962 -0.059480
C193  C     C_1   0.375871 0.500034 0.000008 -0.148205
C194  C     C_1   0.500011 0.375869 0.000000 -0.148103
C195  C     C_1   0.624129 0.499965 0.000008 -0.148207
C196  C     C_1   0.499989 0.624131 0.000000 -0.148110
C197  C     C_1   0.875869 0.000010 0.500000 -0.148194
C198  C     C_1   0.000034 0.875871 0.499992 -0.148329
C199  C     C_1   0.124131 0.999989 0.500000 -0.148194
C200  C     C_1   0.999965 0.124129 0.499992 -0.148329
C201  C     C_R   0.500000 0.420505 0.000000 0.819785
C202  C     C_R   0.579495 0.499995 0.000001 0.819809
C203  C     C_R   0.500000 0.579495 0.000000 0.819742
C204  C     C_R   0.420505 0.500005 0.000001 0.819801
C205  C     C_R   0.000005 0.920505 0.499999 0.819863
C206  C     C_R   0.079495 1.000000 0.500000 0.819815
C207  C     C_R   0.999995 0.079495 0.499999 0.819861
C208  C     C_R   0.920505 0.000000 0.500000 0.819819
N9    N     N_R   0.076194 0.514396 0.086560 0.118537
O65   O     O_R   0.078214 0.538452 0.064507 -0.360079
O66   O     O_R   0.110590 0.501267 0.097851 -0.335017
N10   N     N_R   0.485673 0.076186 0.086560 0.118379
O67   O     O_R   0.461612 0.078195 0.064510 -0.362436
O68   O     O_R   0.498840 0.110588 0.097848 -0.334900
N11   N     N_R   0.923806 0.485606 0.086560 0.118544
O69   O     O_R   0.921785 0.461549 0.064507 -0.359912
O70   O     O_R   0.889410 0.498737 0.097850 -0.335132
N12   N     N_R   0.514331 0.923816 0.086562 0.118376
O71   O     O_R   0.538389 0.921807 0.064511 -0.362780
O72   O     O_R   0.501170 0.889413 0.097853 -0.334531
N13   N     N_R   0.058089 0.551234 0.913156 0.146247
O73   O     O_R   0.079808 0.535961 0.933896 -0.371619
O74   O     O_R   0.068689 0.587004 0.902621 -0.320135
N14   N     N_R   0.485598 0.923808 0.913439 0.118425
O75   O     O_R   0.461548 0.921788 0.935495 -0.362438
O76   O     O_R   0.498718 0.889410 0.902145 -0.334611
N15   N     N_R   0.941910 0.448766 0.913157 0.146222
O77   O     O_R   0.920191 0.464040 0.933897 -0.371739
O78   O     O_R   0.931309 0.412996 0.902622 -0.320206
N16   N     N_R   0.514398 0.076194 0.913441 0.118426
O79   O     O_R   0.538451 0.078213 0.935495 -0.362094
O80   O     O_R   0.501273 0.110591 0.902149 -0.334995
N17   N     N_R   0.576198 0.014376 0.586559 0.118442
O81   O     O_R   0.578223 0.038426 0.564504 -0.362072
O82   O     O_R   0.610591 0.001242 0.597851 -0.335027
N18   N     N_R   0.051238 0.558090 0.586849 0.143982
O83   O     O_R   0.035966 0.579802 0.566105 -0.375357
O84   O     O_R   0.087002 0.568700 0.597389 -0.314524
N19   N     N_R   0.423803 0.985624 0.586560 0.118439
O85   O     O_R   0.421777 0.961574 0.564504 -0.362122
O86   O     O_R   0.389409 0.998757 0.597853 -0.334994
N20   N     N_R   0.948761 0.441910 0.586849 0.143987
O87   O     O_R   0.964034 0.420198 0.566105 -0.375337
O88   O     O_R   0.912997 0.431300 0.597389 -0.314503
N21   N     N_R   0.576189 0.985696 0.413440 0.118393
O89   O     O_R   0.578205 0.961638 0.435490 -0.362419
O90   O     O_R   0.610588 0.998871 0.402150 -0.334921
N22   N     N_R   0.985594 0.423808 0.413440 0.118547
O91   O     O_R   0.961537 0.421791 0.435492 -0.360019
O92   O     O_R   0.998719 0.389411 0.402149 -0.334975
N23   N     N_R   0.423811 0.014305 0.413440 0.118392
O93   O     O_R   0.421795 0.038363 0.435491 -0.362467
O94   O     O_R   0.389411 0.001131 0.402150 -0.334869
N24   N     N_R   0.014406 0.576192 0.413440 0.118548
O95   O     O_R   0.038463 0.578209 0.435492 -0.359992
O96   O     O_R   0.001281 0.610589 0.402150 -0.334988

loop_
_geom_bond_atom_site_label_1
_geom_bond_atom_site_label_2
_geom_bond_distance
_ccdc_geom_bond_type
C133  C153  1.400491 A    
N9    O65   1.300271 A    
C75   C113  1.399033 A    
O25   C13   1.284788 A    
C135  C155  1.400491 A    
C75   C91   1.402114 A    
C184  C192  1.207941 T    
C1    C185  1.438381 S    
C133  H61   1.083402 S    
C74   H18   1.083193 S    
C79   H23   1.083231 S    
C3    C187  1.438381 S    
C20   N2    1.373131 A    
C77   H21   1.083231 S    
N22   O92   1.301483 A    
C20   C34   1.405605 A    
O18   Cu2   1.951746 S    
C34   C50   1.407663 A    
C92   N12   1.439804 S    
O33   C201  1.291880 A    
N14   O75   1.300268 A    
C86   H30   1.083194 S    
N23   O94   1.301485 A    
C132  C144  1.402060 A    
C181  C189  1.207904 T    
O24   Cu4   1.951751 S    
C150  C164  1.401932 A    
C40   C52   1.407667 A    
H45   C153  1.083477 S    
H41   C157  1.083477 S    
Cu1   Cu3   2.642228 S    
Cu2   Cu4   2.642226 S    
O3    C3    1.284881 A    
C19   N1    1.373128 A    
C22   C40   1.405605 A    
C80   H24   1.083193 S    
Cu5   Cu7   2.642228 S    
O35   C203  1.291879 A    
C42   C54   1.408387 A    
C133  C141  1.402031 A    
O22   C12   1.284790 A    
O48   C208  1.291882 A    
C102  C112  1.419027 A    
C156  C168  1.401928 A    
H35   C151  1.083444 S    
C122  C138  1.402033 A    
C83   C99   1.402114 A    
C94   C108  1.419032 A    
C45   C69   1.405568 A    
C18   C36   1.405605 A    
C95   N15   1.438225 S    
C48   C56   1.407669 A    
C27   C41   1.405605 A    
N20   O88   1.301378 A    
C62   C65   1.396374 A    
O43   C207  1.291913 A    
N6    C115  1.439718 S    
C96   N16   1.439810 S    
C100  C110  1.419981 A    
C98   N18   1.438205 S    
C36   C60   1.405569 A    
O40   C204  1.291912 A    
C78   C116  1.399032 A    
C49   C56   1.414183 A    
C78   H22   1.083193 S    
C40   C64   1.405575 A    
Cu11  Cu12  2.661250 S    
C51   C54   1.413984 A    
C95   C107  1.419895 A    
C175  C199  1.208247 T    
C58   H2    1.083050 S    
O13   C5    1.284730 A    
C13   C109  1.471257 S    
O40   Cu10  1.939663 S    
C30   C48   1.405609 A    
C85   C119  1.399032 A    
C164  C180  1.443317 S    
O26   Cu6   1.951746 S    
O7    C3    1.284669 A    
C134  C156  1.400418 A    
N17   O81   1.300265 A    
C37   C51   1.408471 A    
H48   C154  1.083446 S    
C79   C115  1.397236 A    
N19   O85   1.300273 A    
O27   C13   1.284791 A    
O31   C15   1.284789 A    
O36   C204  1.291826 A    
C42   C66   1.405477 A    
H44   C158  1.083487 S    
C18   O50   1.349400 S    
O38   C202  1.291913 A    
C60   C71   1.396374 A    
C171  C195  1.208219 T    
C131  C143  1.402032 A    
N18   O84   1.301378 A    
N15   O77   1.301127 A    
C65   H9    1.083052 S    
N21   O89   1.300272 A    
C103  N23   1.439804 S    
C76   C92   1.402115 A    
O9    C5    1.284803 A    
C59   H3    1.083057 S    
H46   C156  1.083443 S    
C60   H4    1.083055 S    
O11   C7    1.284801 A    
C25   O57   1.349404 S    
C82   C118  1.396900 A    
O21   Cu3   1.951751 S    
O4    C4    1.284730 A    
C74   C90   1.402109 A    
O5    Cu3   1.939226 S    
C134  C144  1.401964 A    
N16   O79   1.300275 A    
O44   Cu11  1.939665 S    
O37   Cu10  1.939662 S    
C128  C138  1.402027 A    
C32   O64   1.349402 S    
C123  C139  1.401965 A    
C178  C186  1.207905 T    
C27   N5    1.373129 A    
C183  C191  1.207904 T    
C31   N7    1.373126 A    
C141  C173  1.443710 S    
N7    C114  1.443766 S    
C24   C38   1.405610 A    
C86   C102  1.402119 A    
C124  C140  1.402032 A    
O23   C11   1.286427 A    
C154  C166  1.401928 A    
O37   C203  1.291882 A    
C16   C112  1.471262 S    
C85   H29   1.083194 S    
N23   O93   1.300265 A    
C17   C35   1.405609 A    
C195  C202  1.438913 S    
C64   H8    1.083056 S    
C78   C94   1.402119 A    
C47   C55   1.407663 A    
O14   C8    1.284884 A    
C80   C96   1.402114 A    
N1    C120  1.443766 S    
C21   O53   1.349354 S    
O2    Cu2   1.939227 S    
C84   H28   1.083242 S    
H47   C155  1.083483 S    
O28   C14   1.286431 A    
O26   C14   1.286429 A    
O29   C15   1.284791 A    
C121  C149  1.400424 A    
O8    Cu4   1.939532 S    
O30   C16   1.284792 A    
C50   C55   1.414183 A    
C134  H62   1.083420 S    
C8    C192  1.438385 S    
C196  C203  1.438962 S    
C19   O51   1.349398 S    
C24   O56   1.349404 S    
C129  C157  1.400491 A    
C48   C72   1.405576 A    
C23   O55   1.349354 S    
N10   O67   1.300275 A    
O19   Cu3   1.951746 S    
C86   C120  1.399032 A    
C24   N4    1.373125 A    
C36   C50   1.407664 A    
C88   H32   1.083191 S    
O39   C201  1.291884 A    
C11   C107  1.477861 S    
O16   Cu8   1.939532 S    
C124  C150  1.400489 A    
C126  C148  1.400486 A    
C162  C178  1.443317 S    
O6    Cu2   1.939535 S    
C74   C114  1.399036 A    
C84   C118  1.396903 A    
C128  C146  1.400489 A    
O36   Cu9   1.939665 S    
C91   C105  1.419023 A    
C46   C70   1.405571 A    
C159  C167  1.401935 A    
O39   Cu10  1.939666 S    
C64   C67   1.396374 A    
C167  C183  1.443316 S    
O18   C10   1.284792 A    
C29   O61   1.349400 S    
N24   O95   1.300273 A    
C96   C108  1.419033 A    
C34   C58   1.405575 A    
C73   H17   1.083193 S    
N19   O86   1.301482 A    
O48   Cu12  1.939663 S    
O12   C8    1.284665 A    
O1    C1    1.284884 A    
C91   N11   1.439807 S    
C32   N8    1.373126 A    
C23   N3    1.371096 A    
C90   C106  1.419035 A    
N14   O76   1.301484 A    
C199  C206  1.438961 S    
C44   C68   1.405477 A    
C97   C109  1.419025 A    
C155  C167  1.401927 A    
C128  H56   1.083409 S    
C15   C111  1.471257 S    
C22   O54   1.349402 S    
C99   N19   1.439808 S    
C81   C97   1.402119 A    
C130  C160  1.400531 A    
N2    C119  1.443771 S    
C10   C106  1.471262 S    
C123  C151  1.400424 A    
C25   C43   1.405605 A    
C163  C179  1.443354 S    
O41   C205  1.291913 A    
N13   O74   1.301373 A    
H42   C160  1.083488 S    
O46   Cu12  1.939660 S    
C2    C186  1.438319 S    
C161  C177  1.443354 S    
C179  C187  1.207940 T    
O10   C6    1.284665 A    
O33   Cu9   1.939664 S    
C170  C194  1.208247 T    
C153  C165  1.401932 A    
O15   Cu5   1.939229 S    
O34   C202  1.291825 A    
C21   C39   1.405493 A    
C5    C189  1.438319 S    
C26   O58   1.349370 S    
H37   C145  1.083483 S    
C193  C204  1.438910 S    
C84   C100  1.401949 A    
O5    C1    1.284666 A    
C87   H31   1.083195 S    
C157  C165  1.401932 A    
C104  C112  1.419029 A    
N3    C118  1.439099 S    
C165  C181  1.443316 S    
C69   H13   1.083057 S    
N12   O71   1.300266 A    
C177  C185  1.207943 T    
H36   C150  1.083496 S    
C72   H16   1.083054 S    
C121  H49   1.083413 S    
O32   Cu8   1.951751 S    
C129  C141  1.402030 A    
N11   O69   1.300271 A    
O47   C205  1.291826 A    
C18   N2    1.373126 A    
C127  H55   1.083410 S    
C12   C108  1.471257 S    
C71   H15   1.083052 S    
C57   C70   1.396374 A    
C97   N17   1.439810 S    
C125  C145  1.400530 A    
C145  C161  1.401942 A    
O22   Cu2   1.951750 S    
C127  C147  1.400530 A    
N9    O66   1.301486 A    
O21   C11   1.286429 A    
C41   C53   1.407667 A    
O23   Cu1   1.951751 S    
H33   C149  1.083448 S    
C88   C104  1.402119 A    
C28   N6    1.371369 A    
C26   N6    1.371366 A    
C137  C169  1.443662 S    
C30   N8    1.373127 A    
C139  C171  1.443666 S    
C25   N5    1.373128 A    
N22   O91   1.300266 A    
C140  C172  1.443707 S    
C136  C154  1.400418 A    
O3    Cu3   1.939534 S    
C123  H51   1.083416 S    
C38   C62   1.405572 A    
C168  C184  1.443358 S    
O8    C2    1.284800 A    
C99   C109  1.419032 A    
C173  C197  1.208247 T    
C28   O60   1.349367 S    
N21   O90   1.301478 A    
C66   H10   1.083055 S    
O30   Cu6   1.951750 S    
C135  H63   1.083408 S    
C31   O63   1.349401 S    
C126  H54   1.083421 S    
C125  C137  1.402061 A    
C100  N20   1.438204 S    
C127  C139  1.402058 A    
C149  C161  1.401925 A    
C160  C166  1.401942 A    
C101  C111  1.419030 A    
O43   Cu11  1.939661 S    
C6    C190  1.438385 S    
C136  H64   1.083418 S    
C93   C107  1.419895 A    
C90   N10   1.439802 S    
O9    Cu5   1.939531 S    
O17   C9    1.284791 A    
C132  C158  1.400531 A    
O35   Cu9   1.939661 S    
C89   C105  1.419027 A    
O11   Cu7   1.939534 S    
C45   C55   1.407667 A    
O16   C6    1.284884 A    
C61   H5    1.083058 S    
C26   C44   1.405510 A    
C35   C49   1.407665 A    
C144  C176  1.443663 S    
H38   C148  1.083490 S    
N20   O87   1.301129 A    
O6    C4    1.284803 A    
C17   O49   1.349403 S    
C135  C143  1.402029 A    
C180  C188  1.207905 T    
O45   Cu12  1.939662 S    
C20   O52   1.349397 S    
C47   C71   1.405572 A    
O31   Cu5   1.951751 S    
H43   C159  1.083478 S    
C131  H59   1.083405 S    
C176  C200  1.208219 T    
O42   C206  1.291881 A    
C81   H25   1.083197 S    
O17   Cu1   1.951746 S    
C4    C188  1.438319 S    
C81   C117  1.399033 A    
N17   O82   1.301486 A    
C73   C89   1.402119 A    
C103  C111  1.419027 A    
H39   C147  1.083480 S    
C43   C53   1.407665 A    
C9    C105  1.471262 S    
O13   Cu7   1.939226 S    
H34   C152  1.083478 S    
O2    C2    1.284733 A    
O20   Cu4   1.951746 S    
C39   C51   1.408471 A    
C82   H26   1.083245 S    
N24   O96   1.301480 A    
N8    C113  1.443771 S    
C23   C37   1.405498 A    
N18   O83   1.301131 A    
C142  C174  1.443663 S    
N10   O68   1.301477 A    
O42   Cu11  1.939661 S    
C94   N14   1.439812 S    
C174  C198  1.208219 T    
C87   C103  1.402114 A    
C21   N3    1.371100 A    
C124  H52   1.083420 S    
O44   C208  1.291878 A    
O47   Cu12  1.939666 S    
C85   C101  1.402110 A    
O4    Cu4   1.939230 S    
O28   Cu8   1.951746 S    
O34   Cu9   1.939661 S    
C75   H19   1.083196 S    
C121  C137  1.401962 A    
C76   H20   1.083194 S    
C104  N24   1.439806 S    
C130  H58   1.083410 S    
C79   C95   1.401949 A    
C52   C53   1.414183 A    
C126  C140  1.402032 A    
C77   C93   1.401944 A    
O32   C16   1.284791 A    
C63   C68   1.396451 A    
C61   C66   1.396451 A    
C147  C163  1.401943 A    
C33   C49   1.407667 A    
C148  C164  1.401931 A    
C33   C57   1.405575 A    
N4    C117  1.443771 S    
C198  C205  1.438911 S    
C89   N9    1.439807 S    
C88   C120  1.399033 A    
O15   C7    1.284733 A    
C57   H1    1.083057 S    
N11   O70   1.301483 A    
C28   C42   1.405515 A    
C182  C190  1.207941 T    
O10   Cu6   1.939227 S    
C101  N21   1.439804 S    
N15   O78   1.301377 A    
O25   Cu5   1.951746 S    
C32   C46   1.405609 A    
C197  C208  1.438961 S    
O27   Cu7   1.951746 S    
C44   C54   1.408389 A    
C122  C152  1.400489 A    
O7    Cu1   1.939229 S    
C43   C67   1.405571 A    
C46   C56   1.407667 A    
C41   C65   1.405578 A    
O41   Cu11  1.939664 S    
C122  H50   1.083410 S    
C83   H27   1.083191 S    
C7    C191  1.438319 S    
C130  C142  1.402064 A    
C63   H7    1.083053 S    
O29   Cu7   1.951751 S    
C102  N22   1.439809 S    
C58   C69   1.396374 A    
C194  C201  1.438958 S    
O19   C9    1.284794 A    
C37   C61   1.405425 A    
C146  C162  1.401933 A    
C143  C175  1.443710 S    
C76   C114  1.399033 A    
C14   C110  1.477856 S    
C129  H57   1.083406 S    
C29   N7    1.373129 A    
O12   Cu8   1.939230 S    
C73   C113  1.399033 A    
C151  C163  1.401926 A    
O14   Cu6   1.939535 S    
C83   C117  1.399033 A    
C138  C170  1.443710 S    
C70   H14   1.083056 S    
C19   C33   1.405609 A    
O46   C206  1.291879 A    
C136  C142  1.401963 A    
C39   C63   1.405426 A    
C166  C182  1.443355 S    
C35   C59   1.405572 A    
N13   O73   1.301130 A    
C80   C116  1.399031 A    
N5    C116  1.443771 S    
C22   N4    1.373129 A    
C30   O62   1.349399 S    
C17   N1    1.373128 A    
C68   H12   1.083060 S    
C77   C115  1.397237 A    
C93   N13   1.438229 S    
Cu6   Cu8   2.642226 S    
Cu9   Cu10  2.661250 S    
O45   C207  1.291826 A    
C125  H53   1.083412 S    
C59   C72   1.396374 A    
C158  C168  1.401939 A    
C131  C159  1.400488 A    
C29   C47   1.405605 A    
H40   C146  1.083479 S    
O1    Cu1   1.939531 S    
C27   O59   1.349400 S    
C31   C45   1.405605 A    
O20   C10   1.284788 A    
C132  H60   1.083411 S    
C98   C110  1.419980 A    
N12   O72   1.301486 A    
C38   C52   1.407665 A    
O38   Cu10  1.939660 S    
C92   C106  1.419033 A    
C67   H11   1.083057 S    
C152  C162  1.401930 A    
O24   C12   1.284794 A    
C82   C98   1.401949 A    
C169  C193  1.208222 T    
C62   H6    1.083055 S    
N16   O80   1.301477 A    
C172  C196  1.208247 T    
C87   C119  1.399033 A    
C200  C207  1.438911 S    
