data_mof_unit_55085.cif
_audit_creation_date              2012-12-11T15:43:52-0500
_audit_creation_method            fapswitch 2.2
_symmetry_space_group_name_H-M    P1
_symmetry_Int_Tables_number       1
_space_group_crystal_system       triclinic
_cell_length_a                    14.537534
_cell_length_b                    16.207657
_cell_length_c                    6.937378
_cell_angle_alpha                 89.962224
_cell_angle_beta                  98.605184
_cell_angle_gamma                 89.945392
_cell_volume                      1616.17860813

loop_
_atom_site_label
_atom_site_type_symbol
_atom_type_description
_atom_site_fract_x
_atom_site_fract_y
_atom_site_fract_z
_atom_type_partial_charge
O1    O     O_R   0.831700 0.662810 0.581550 -0.540851
O2    O     O_R   0.168300 0.337190 0.418450 -0.540959
O3    O     O_R   0.168300 0.162810 0.418450 -0.542404
O4    O     O_R   0.831700 0.837190 0.581550 -0.542222
O5    O     O_R   0.842890 0.834390 0.255500 -0.535024
O6    O     O_R   0.157110 0.165610 0.744500 -0.535049
O7    O     O_R   0.157110 0.334390 0.744500 -0.535045
O8    O     O_R   0.842890 0.665610 0.255500 -0.534987
O9    O     O_R   0.661690 0.835580 0.024130 -0.541578
O10   O     O_R   0.338310 0.164420 0.975870 -0.541720
O11   O     O_R   0.338310 0.335580 0.975870 -0.542481
O12   O     O_R   0.661690 0.664420 0.024130 -0.542485
C1    C     C_R   0.866402 0.863865 0.430564 0.706835
C2    C     C_R   0.133607 0.136129 0.569441 0.706642
C3    C     C_R   0.135283 0.365154 0.570126 0.707624
C4    C     C_R   0.864724 0.634851 0.429877 0.707858
C5    C     C_R   0.064278 0.066921 0.538520 -0.099515
C6    C     C_R   0.935742 0.933064 0.461496 -0.099849
C7    C     C_R   0.934179 0.565745 0.460636 -0.098722
C8    C     C_R   0.065838 0.434267 0.539366 -0.098600
H1    H     H_    0.113985 0.027425 0.276218 0.127981
H2    H     H_    0.886044 0.972554 0.723812 0.128055
H3    H     H_    0.983453 0.603283 0.755446 0.129315
H4    H     H_    0.016570 0.396733 0.244549 0.129323
C9    C     C_R   0.001112 0.949904 0.333427 0.154869
C10   C     C_R   0.998915 0.050075 0.666602 0.154928
C11   C     C_R   0.055467 0.493638 0.685117 0.159233
C12   C     C_R   0.944559 0.506380 0.314877 0.159143
O13   O     O_3   0.687240 0.750000 0.366320 -0.371537
O14   O     O_3   0.312760 0.250000 0.633680 -0.371094
V1    V     V_3+5 0.757720 0.750000 0.115230 1.379698
V2    V     V_3+5 0.242280 0.250000 0.884770 1.379880
O15   O     O_R   0.650500 0.664000 0.690740 -0.541583
O16   O     O_R   0.349500 0.336000 0.309260 -0.541126
O17   O     O_R   0.349500 0.164000 0.309260 -0.542342
O18   O     O_R   0.650500 0.836000 0.690740 -0.543308
C13   C     C_R   0.622747 0.640990 0.853263 0.737688
C14   C     C_R   0.377007 0.359305 0.146687 0.737341
C15   C     C_R   0.376950 0.140564 0.146763 0.733522
C16   C     C_R   0.622606 0.858903 0.853152 0.733450
C17   C     C_R   0.063786 0.016065 0.373904 -0.188114
C18   C     C_R   0.936240 0.983916 0.626121 -0.188413
C19   C     C_R   0.990059 0.557893 0.643734 -0.190262
C20   C     C_R   0.009963 0.442122 0.356264 -0.190270
V3    V     V_3+5 0.735670 0.750000 0.607790 1.383037
V4    V     V_3+5 0.264330 0.250000 0.392210 1.383848
O19   O     O_3   0.806150 0.750000 0.906560 -0.369283
O20   O     O_3   0.193850 0.250000 0.093440 -0.369454
C21   C     C_2   0.541586 0.916489 0.843482 -0.014808
C22   C     C_2   0.455806 0.080615 0.156484 -0.013794
C23   C     C_2   0.456423 0.418528 0.156222 -0.014200
C24   C     C_2   0.542243 0.582963 0.843724 -0.014643
C25   C     C_2   0.522060 0.956467 0.006228 0.162244
C26   C     C_2   0.475544 0.040691 0.993694 0.161488
C27   C     C_2   0.475850 0.458774 0.993504 0.159730
C28   C     C_2   0.522846 0.542718 0.006404 0.160153
C29   C     C_3   0.007737 0.897874 0.155740 -0.740649
H5    H     H_    0.943672 0.905152 0.048128 0.218449
H6    H     H_    0.067294 0.916371 0.081975 0.192573
H7    H     H_    0.017752 0.832045 0.198273 0.200822
C30   C     C_3   0.992300 0.102095 0.844310 -0.740716
H8    H     H_    0.056373 0.094816 0.951899 0.218481
H9    H     H_    0.982276 0.167925 0.801798 0.200809
H10   H     H_    0.932753 0.083588 0.918095 0.192478
C31   C     C_3   0.114791 0.491895 0.883093 -0.749134
H11   H     H_    0.102468 0.546695 0.971925 0.195750
H12   H     H_    0.098076 0.436481 0.964998 0.218817
H13   H     H_    0.189629 0.491358 0.866712 0.196791
C32   C     C_3   0.885254 0.508132 0.116882 -0.749119
H14   H     H_    0.897589 0.453340 0.028037 0.195776
H15   H     H_    0.810412 0.508664 0.133230 0.196422
H16   H     H_    0.901976 0.563553 0.035008 0.218900
C33   C     C_3   0.478661 0.092459 0.812561 -0.738895
H17   H     H_    0.539463 0.074712 0.742995 0.192901
H18   H     H_    0.413193 0.085649 0.708855 0.222347
H19   H     H_    0.489654 0.158867 0.848849 0.199425
C34   C     C_3   0.518882 0.904561 0.187309 -0.734813
H20   H     H_    0.456666 0.920619 0.254382 0.192344
H21   H     H_    0.510850 0.837816 0.152005 0.198929
H22   H     H_    0.583251 0.913517 0.293260 0.223038
C35   C     C_3   0.520433 0.594178 0.188271 -0.735037
H23   H     H_    0.458855 0.577716 0.256856 0.193173
H24   H     H_    0.585394 0.585361 0.292654 0.222358
H25   H     H_    0.511560 0.660938 0.153449 0.199230
C36   C     C_3   0.478250 0.407391 0.811615 -0.736760
H26   H     H_    0.539159 0.424681 0.741914 0.193349
H27   H     H_    0.488564 0.340786 0.846854 0.199731
H28   H     H_    0.412769 0.415183 0.708296 0.221905
C37   C     C_3   0.531585 0.086754 0.330823 -0.838775
H29   H     H_    0.522500 0.142468 0.419076 0.214998
H30   H     H_    0.532826 0.032435 0.425605 0.223292
H31   H     H_    0.600706 0.092402 0.281950 0.219699
C38   C     C_3   0.462935 0.904088 0.676483 -0.838724
H32   H     H_    0.479760 0.855275 0.575261 0.216255
H33   H     H_    0.399615 0.883459 0.734772 0.218369
H34   H     H_    0.445218 0.960627 0.591540 0.220446
C39   C     C_3   0.464142 0.594092 0.674969 -0.837470
H35   H     H_    0.478835 0.645442 0.578195 0.215581
H36   H     H_    0.451130 0.538201 0.585740 0.220869
H37   H     H_    0.398818 0.610285 0.731382 0.218798
C40   C     C_3   0.533246 0.410343 0.328309 -0.837468
H38   H     H_    0.522215 0.355867 0.419144 0.214743
H39   H     H_    0.601198 0.401093 0.276287 0.219383
H40   H     H_    0.538640 0.465199 0.421911 0.222167

loop_
_geom_bond_atom_site_label_1
_geom_bond_atom_site_label_2
_ccdc_geom_bond_type
O6    V2    S    
C27   C28   S    
C40   H38   S    
O11   C14   A    
O15   V3    S    
C33   H17   S    
C25   C34   S    
C12   C32   S    
C35   H25   S    
C39   H35   S    
C28   C35   S    
C34   H20   S    
O2    V4    S    
C22   C26   D    
C1    C6    S    
C5    C10   A    
C38   H34   S    
C10   C30   S    
C6    C18   A    
C29   H6    S    
C16   C21   S    
C24   C39   S    
O12   C13   A    
H3    C19   S    
C30   H9    S    
O4    C1    A    
C32   H15   S    
C38   H33   S    
C8    C20   A    
C31   H12   S    
O16   V4    S    
C37   H30   S    
O5    C1    A    
C34   H21   S    
O8    C4    A    
V1    O19   S    
V2    O20   S    
C2    C5    S    
C30   H8    S    
C6    C9    A    
C9    C29   S    
C39   H36   S    
C7    C19   A    
C35   H23   S    
O4    V3    S    
V3    O19   S    
C3    C8    S    
V4    O20   S    
C36   H27   S    
O18   C16   A    
C9    C17   A    
C13   C24   S    
C29   H7    S    
C14   C23   S    
C36   H26   S    
C12   C20   A    
O9    C16   A    
O15   C13   A    
O13   V3    S    
O10   C15   A    
C27   C36   S    
C30   H10   S    
O17   C15   A    
C11   C31   S    
O10   V2    S    
O6    C2    A    
C26   C33   S    
C22   C37   S    
C31   H13   S    
O18   V3    S    
O1    C4    A    
C37   H31   S    
O2    C3    A    
O3    C2    A    
H1    C17   S    
O11   V2    S    
C40   H40   S    
O12   V1    S    
C7    C12   A    
H4    C20   S    
C33   H19   S    
C33   H18   S    
C39   H37   S    
C10   C18   A    
C36   H28   S    
O7    V2    S    
O16   C14   A    
O8    V1    S    
O14   V4    S    
C32   H16   S    
C35   H24   S    
C25   C26   S    
C8    C11   A    
C23   C40   S    
C38   H32   S    
O3    V4    S    
O13   V1    S    
O14   V2    S    
C34   H22   S    
O1    V3    S    
C29   H5    S    
H2    C18   S    
C4    C7    S    
C21   C25   D    
O7    C3    A    
C23   C27   D    
C32   H14   S    
C5    C17   A    
O9    V1    S    
C11   C19   A    
C15   C22   S    
C40   H39   S    
C31   H11   S    
C21   C38   S    
C37   H29   S    
O17   V4    S    
C24   C28   D    
O5    V1    S    
