data_mof_unit_58512.cif
_audit_creation_date              2012-12-10T16:45:22-0500
_audit_creation_method            fapswitch 2.2
_symmetry_space_group_name_H-M    P1
_symmetry_Int_Tables_number       1
_space_group_crystal_system       triclinic
_cell_length_a                    7.528783
_cell_length_b                    8.765518
_cell_length_c                    15.799693
_cell_angle_alpha                 95.841485
_cell_angle_beta                  75.067805
_cell_angle_gamma                 103.233204
_cell_volume                      979.702742466

loop_
_atom_site_label
_atom_site_type_symbol
_atom_type_description
_atom_site_fract_x
_atom_site_fract_y
_atom_site_fract_z
_atom_type_partial_charge
C1    C     C_R   0.542200 0.799090 0.504747 0.867979
C2    C     C_R   0.457819 0.200909 0.495231 0.867805
C3    C     C_R   0.277100 0.422940 0.080952 -0.229807
C4    C     C_R   0.711283 0.624252 0.925805 -0.230735
C5    C     C_R   0.149379 0.386911 0.028745 -0.224654
C6    C     C_R   0.838134 0.662580 0.978444 -0.224020
C7    C     C_2   0.549581 0.964765 0.519857 -0.030587
C8    C     C_2   0.450475 0.035233 0.480097 -0.030659
C9    C     C_R   0.384986 0.488793 0.665979 0.778313
C10   C     C_R   0.615117 0.512261 0.334149 0.778244
C11   C     C_R   0.316188 0.475678 0.761305 -0.051601
C12   C     C_R   0.684156 0.534437 0.239681 -0.052513
C13   C     C_R   0.073985 0.380970 0.888903 -0.185513
C14   C     C_R   0.917086 0.657773 0.116626 -0.187085
C15   C     C_R   0.128983 0.408099 0.799666 -0.208795
C16   C     C_R   0.866093 0.617545 0.203941 -0.211853
C17   C     C_R   0.445503 0.521856 0.813579 -0.254922
C18   C     C_R   0.556633 0.486814 0.186738 -0.252400
C19   C     C_R   0.393798 0.496866 0.903924 0.085012
C20   C     C_R   0.601264 0.531794 0.099608 0.083899
C21   C     C_R   0.205216 0.421988 0.940772 0.152669
C22   C     C_R   0.786072 0.616973 0.064602 0.150332
C23   C     C_R   0.525111 0.539183 0.957774 0.060932
C24   C     C_R   0.467464 0.496442 0.046955 0.062889
Cu1   Cu    Cu3+1 0.322120 0.483240 0.490330 0.928612
Cu2   Cu    Cu3+1 0.677880 0.516760 0.509670 0.927795
H1    H     H_    0.005144 0.330633 0.057676 0.154566
H2    H     H_    0.978829 0.728448 0.951220 0.151568
H3    H     H_    0.422098 0.416009 0.216167 0.138045
H4    H     H_    0.587949 0.572104 0.781105 0.141889
H5    H     H_    0.966452 0.656005 0.244036 0.151176
H6    H     H_    0.027053 0.370697 0.760355 0.148867
H7    H     H_    0.929292 0.325148 0.917169 0.145099
H8    H     H_    0.058214 0.723375 0.090096 0.145449
H9    H     H_    0.219439 0.393912 0.148468 0.139238
H10   H     H_    0.763871 0.667115 0.860687 0.138638
N1    N     N_2   0.945180 0.542040 0.524240 -0.051686
N2    N     N_2   0.054820 0.457960 0.475760 -0.051508
O1    O     O_R   0.384450 0.714270 0.493720 -0.593536
O2    O     O_R   0.615550 0.285730 0.506280 -0.593352
O3    O     O_R   0.684880 0.742590 0.510050 -0.578834
O4    O     O_R   0.315120 0.257410 0.489950 -0.578621
O5    O     O_R   0.265540 0.477900 0.617090 -0.601939
O6    O     O_R   0.734460 0.522100 0.382910 -0.602939
O7    O     O_R   0.565970 0.506210 0.633420 -0.592090
O8    O     O_R   0.434030 0.493790 0.366580 -0.590429
C25   C     C_3   0.651007 0.045952 0.589313 -0.847174
H11   H     H_    0.683675 0.960134 0.627101 0.218274
H12   H     H_    0.786676 0.122802 0.558144 0.266181
H13   H     H_    0.561245 0.115010 0.637703 0.231011
C26   C     C_3   0.349120 0.954045 0.410615 -0.847500
H14   H     H_    0.316469 0.039869 0.372825 0.217899
H15   H     H_    0.438922 0.885003 0.362232 0.231929
H16   H     H_    0.213446 0.877174 0.441759 0.266070
C27   C     C_3   0.973077 0.603158 0.609184 -0.365955
H17   H     H_    0.873286 0.680911 0.637396 0.150097
H18   H     H_    0.940875 0.506099 0.654241 0.164174
H19   H     H_    0.112415 0.679790 0.605252 0.188642
C28   C     C_3   0.027003 0.397233 0.390724 -0.366390
H20   H     H_    0.058667 0.494500 0.345775 0.165313
H21   H     H_    0.127068 0.319803 0.362305 0.150264
H22   H     H_    0.887819 0.320296 0.394649 0.188227

loop_
_geom_bond_atom_site_label_1
_geom_bond_atom_site_label_2
_ccdc_geom_bond_type
Cu1   O4    S    
C14   H8    S    
C19   C23   A    
C23   C24   A    
C4    H10   S    
Cu2   N1    S    
C13   H7    S    
N1    N2    D    
C6    H2    S    
Cu1   N2    S    
C25   H11   S    
C3    H9    S    
C27   H17   S    
C26   H16   S    
Cu1   O5    S    
C11   C15   A    
C13   C15   A    
C13   C21   A    
C28   H20   S    
C25   H12   S    
C18   H3    S    
C1    C7    S    
Cu1   O1    S    
C16   H5    S    
C9    O7    A    
C17   H4    S    
C9    C11   S    
C8    C26   S    
Cu2   O2    S    
C3    C24   A    
C10   C12   S    
C2    O4    A    
C15   H6    S    
C1    O3    A    
C19   C21   A    
C20   C22   A    
C25   H13   S    
C18   C20   A    
C27   H18   S    
C14   C22   A    
C14   C16   A    
C28   H21   S    
C9    O5    A    
C1    O1    A    
C26   H15   S    
Cu2   O6    S    
N2    C28   S    
C6    C22   A    
C2    O2    A    
C10   O8    A    
C7    C8    D    
C26   H14   S    
C4    C6    A    
C27   H19   S    
C12   C18   A    
C4    C23   A    
C20   C24   A    
C11   C17   A    
C28   H22   S    
Cu2   O7    S    
C17   C19   A    
Cu1   Cu2   S    
C5    H1    S    
C10   O6    A    
Cu1   O8    S    
C2    C8    S    
C12   C16   A    
Cu2   O3    S    
C7    C25   S    
C3    C5    A    
C5    C21   A    
N1    C27   S    
