data_mof_unit_61067.cif
_audit_creation_date              2012-10-26T21:09:29-0400
_audit_creation_method            fapswitch 2.2
_symmetry_space_group_name_H-M    P1
_symmetry_Int_Tables_number       1
_space_group_crystal_system       triclinic
_cell_length_a                    16.027075
_cell_length_b                    14.769444
_cell_length_c                    11.728751
_cell_angle_alpha                 90.000127
_cell_angle_beta                  89.972708
_cell_angle_gamma                 89.998538
_cell_volume                      2776.32390605

loop_
_atom_site_label
_atom_site_type_symbol
_atom_type_description
_atom_site_fract_x
_atom_site_fract_y
_atom_site_fract_z
_atom_type_partial_charge
C1    C     C_R   0.340966 0.500001 0.500244 0.547520
C2    C     C_R   0.426226 0.047893 0.479568 -0.111299
C3    C     C_R   0.426226 0.952111 0.479567 -0.111302
C4    C     C_R   0.573774 0.047889 0.520432 -0.111302
C5    C     C_1   0.500000 0.802714 0.500000 0.120589
C6    C     C_1   0.500000 0.197286 0.500000 0.120589
C7    C     C_1   0.500001 0.500000 0.162001 -0.021644
C8    C     C_1   0.499999 0.500000 0.837998 -0.021644
C9    C     C_1   0.500000 0.500000 0.059754 -0.040352
C10   C     C_1   0.500000 0.500000 0.940246 -0.040352
C11   C     C_R   0.955821 0.583597 0.496786 0.028731
C12   C     C_R   0.659034 0.499999 0.499756 0.547521
C13   C     C_R   0.044179 0.416405 0.503217 0.028727
C14   C     C_R   0.044177 0.583621 0.501877 0.028742
C15   C     C_R   0.955823 0.416380 0.498126 0.028737
C16   C     C_R   0.912665 0.499986 0.496903 0.025231
C17   C     C_R   0.087335 0.500015 0.503100 0.025234
C18   C     C_1   0.822696 0.499991 0.497654 -0.068060
C19   C     C_1   0.177304 0.500010 0.502347 -0.068061
C20   C     C_3   0.093418 0.672013 0.507487 -0.270179
C21   C     C_3   0.121049 0.702342 0.388866 -0.434353
C22   C     C_3   0.906581 0.327990 0.492509 -0.270175
C23   C     C_1   0.252157 0.500005 0.501333 -0.042609
C24   C     C_3   0.878941 0.297655 0.611125 -0.434349
C25   C     C_3   0.906578 0.671925 0.489758 -0.270139
C26   C     C_3   0.878947 0.703456 0.607883 -0.434357
C27   C     C_3   0.093421 0.328078 0.510251 -0.270141
C28   C     C_3   0.121058 0.296543 0.392132 -0.434355
C29   C     C_1   0.747842 0.499995 0.498667 -0.042605
C30   C     C_R   0.500000 0.902864 0.500000 0.004102
C31   C     C_R   0.500000 0.097135 0.500000 0.004102
C32   C     C_R   0.500004 0.500000 0.283426 0.546638
C33   C     C_R   0.499996 0.500000 0.716574 0.546639
C34   C     C_R   0.573774 0.952106 0.520432 -0.111299
Cu1   Cu    Cu3+1 0.500000 0.589220 0.500000 0.984574
Cu2   Cu    Cu3+1 0.500000 0.410780 0.500000 0.984573
H1    H     H_    0.631647 0.083557 0.536461 0.104963
H2    H     H_    0.933789 0.287772 0.667534 0.144616
H3    H     H_    0.836972 0.348868 0.650056 0.163890
H4    H     H_    0.844573 0.232590 0.604579 0.135784
H5    H     H_    0.850747 0.335708 0.437301 0.149990
H6    H     H_    0.942435 0.273052 0.450900 0.136453
H7    H     H_    0.836999 0.652632 0.647651 0.163939
H8    H     H_    0.933799 0.713928 0.664111 0.144574
H9    H     H_    0.844560 0.768439 0.600298 0.135736
H10   H     H_    0.942428 0.726437 0.447266 0.136473
H11   H     H_    0.850739 0.663651 0.434689 0.149976
H12   H     H_    0.368353 0.916443 0.463539 0.104963
H13   H     H_    0.066209 0.286115 0.335878 0.144586
H14   H     H_    0.163043 0.347349 0.352395 0.163940
H15   H     H_    0.155408 0.231536 0.399720 0.135731
H16   H     H_    0.149256 0.336354 0.565327 0.149975
H17   H     H_    0.057569 0.273567 0.552741 0.136475
H18   H     H_    0.368353 0.083564 0.463539 0.104948
H19   H     H_    0.631647 0.916436 0.536461 0.104947
H20   H     H_    0.163008 0.651123 0.349926 0.163890
H21   H     H_    0.066199 0.712232 0.332466 0.144615
H22   H     H_    0.155425 0.767402 0.395407 0.135787
H23   H     H_    0.057566 0.726951 0.549097 0.136451
H24   H     H_    0.149255 0.664297 0.562686 0.149994
N1    N     N_1   0.500000 0.276710 0.500000 -0.193056
N2    N     N_1   0.500000 0.723290 0.500000 -0.193056
O1    O     O_R   0.380310 0.575320 0.500020 -0.491245
O2    O     O_R   0.619690 0.424680 0.499980 -0.491246
O3    O     O_R   0.619690 0.575320 0.499980 -0.491248
O4    O     O_R   0.380310 0.424680 0.500020 -0.491249
O5    O     O_R   0.500010 0.575340 0.337190 -0.488822
O6    O     O_R   0.499990 0.424660 0.662810 -0.488822
O7    O     O_R   0.499990 0.575340 0.662810 -0.488812
O8    O     O_R   0.500010 0.424660 0.337190 -0.488812

loop_
_geom_bond_atom_site_label_1
_geom_bond_atom_site_label_2
_ccdc_geom_bond_type
C5    N2    T    
C21   H20   S    
C19   C23   T    
Cu2   O6    S    
C21   H21   S    
C6    C31   S    
C13   C17   A    
C12   C29   S    
C3    C30   A    
C25   H10   S    
C9    C10   S    
C25   H11   S    
C24   H2    S    
Cu1   Cu2   S    
Cu1   O5    S    
C27   H17   S    
C2    C3    A    
C26   H8    S    
C34   H19   S    
C15   C22   S    
C18   C29   T    
C4    H1    S    
C20   H23   S    
C14   C17   A    
C22   H6    S    
C32   O5    A    
C1    O1    A    
C6    N1    T    
C8    C10   T    
C33   O7    A    
C28   H15   S    
Cu2   O8    S    
C26   H7    S    
C1    C23   S    
Cu1   N2    S    
Cu2   O4    S    
C8    C33   S    
C13   C15   A    
C4    C34   A    
C2    H18   S    
C27   H16   S    
C12   O2    A    
C11   C14   A    
C22   C24   S    
C4    C31   A    
C20   H24   S    
C30   C34   A    
Cu2   N1    S    
C22   H5    S    
C11   C25   S    
C14   C20   S    
C3    H12   S    
C21   H22   S    
C24   H3    S    
C20   C21   S    
Cu1   O7    S    
C16   C18   S    
C5    C30   S    
C12   O3    A    
C27   C28   S    
C7    C9    T    
Cu1   O3    S    
C24   H4    S    
C32   O8    A    
C7    C32   S    
C26   H9    S    
C17   C19   S    
C25   C26   S    
Cu2   O2    S    
C28   H14   S    
Cu1   O1    S    
C11   C16   A    
C13   C27   S    
C15   C16   A    
C33   O6    A    
C2    C31   A    
C28   H13   S    
C1    O4    A    
