data_mof_unit_10532.cif
_audit_creation_date              2012-12-11T20:55:33-0500
_audit_creation_method            fapswitch 2.2
_symmetry_space_group_name_H-M    P1
_symmetry_Int_Tables_number       1
_space_group_crystal_system       triclinic
_cell_length_a                    8.281331
_cell_length_b                    19.107041
_cell_length_c                    22.786533
_cell_angle_alpha                 99.775196
_cell_angle_beta                  89.965896
_cell_angle_gamma                 91.930466
_cell_volume                      3551.14061409

loop_
_atom_site_label
_atom_site_type_symbol
_atom_type_description
_atom_site_fract_x
_atom_site_fract_y
_atom_site_fract_z
_atom_type_partial_charge
Ba1   Ba    Ba6+2 0.157290 0.533910 0.474710 1.641258
Ba2   Ba    Ba6+2 0.652900 0.466090 0.525240 1.638036
C1    C     C_3   0.356957 0.695526 0.254327 -0.291335
C2    C     C_R   0.988905 0.271979 0.479683 0.043201
C3    C     C_R   0.138076 0.187907 0.550686 -0.159663
C4    C     C_3   0.921997 0.721343 0.346122 0.354088
C5    C     C_R   0.205167 0.254559 0.544985 0.002632
C6    C     C_R   0.677364 0.811095 0.447788 -0.158940
C7    C     C_R   0.610324 0.743942 0.452173 0.006835
C8    C     C_R   0.850631 0.801880 0.530964 -0.156196
C9    C     C_R   0.819737 0.727419 0.520533 0.058302
C10   C     C_R   0.019371 0.153827 0.509770 0.022756
C11   C     C_R   0.120015 0.298794 0.515090 -0.250429
C12   C     C_3   0.391174 0.678018 0.315694 0.336617
C13   C     C_R   0.790555 0.845585 0.490874 -0.002779
C14   C     C_R   0.692401 0.699995 0.483403 -0.247036
C15   C     C_R   0.228962 0.035080 0.539295 -0.075048
C16   C     C_3   0.951216 0.792587 0.325947 -0.358317
C17   C     C_R   0.323430 0.983667 0.557055 -0.105912
C18   C     C_R   0.274856 0.913227 0.542615 -0.053696
C19   C     C_R   0.127236 0.895723 0.514413 -0.034973
C20   C     C_R   0.011446 0.946906 0.510374 0.011389
C21   C     C_R   0.066514 0.020303 0.519820 0.060309
C22   C     C_R   0.848516 0.924602 0.493632 -0.014451
C23   C     C_3   0.523603 0.689561 0.643898 0.332875
C24   C     C_R   0.744542 0.979329 0.481731 0.032414
C25   C     C_R   0.798642 0.052670 0.492788 0.019782
C26   C     C_R   0.961798 0.074953 0.508358 0.008977
C27   C     C_R   0.584522 0.964638 0.459448 -0.122221
C28   C     C_3   0.820405 0.374549 0.342002 0.300148
C29   C     C_R   0.493352 0.016562 0.439762 -0.020337
C30   C     C_R   0.539857 0.087243 0.458580 -0.100320
C31   C     C_R   0.682131 0.103773 0.490671 -0.100398
C32   C     C_R   0.643225 0.523732 0.335179 -0.307868
C33   C     C_R   0.382975 0.556243 0.944909 -0.024036
C34   C     C_3   0.605717 0.745237 0.691583 -0.318673
C35   C     C_R   0.331916 0.552395 0.885409 0.584722
C36   C     C_R   0.243991 0.430410 0.880968 0.581976
C37   C     C_R   0.295299 0.432295 0.940342 -0.022759
C38   C     C_R   0.365220 0.495675 0.972381 -0.052108
C39   C     C_R   0.451967 0.619254 0.977489 -0.077543
C40   C     C_3   0.815413 0.355167 0.274443 -0.354598
C41   C     C_R   0.502562 0.622154 0.036257 -0.075653
C42   C     C_R   0.486145 0.562077 0.064249 -0.017419
C43   C     C_R   0.417588 0.498564 0.032167 -0.053121
C44   C     C_R   0.279793 0.372153 0.968271 -0.076510
C45   C     C_3   0.882950 0.282374 0.649093 0.364432
C46   C     C_R   0.333129 0.374789 0.026806 -0.073463
C47   C     C_R   0.402127 0.437860 0.059479 -0.025056
C48   C     C_R   0.456003 0.441530 0.118788 0.591121
C49   C     C_R   0.535641 0.564513 0.123775 0.572836
C50   C     C_2   0.066862 0.472243 0.772506 -0.071295
C51   C     C_3   0.022516 0.479207 0.709100 -0.057621
C52   C     C_3   0.998815 0.629598 0.659099 0.287758
C53   C     C_1   0.304735 0.505401 0.692588 0.027330
C54   C     C_2   0.347562 0.502689 0.748061 -0.095820
C55   C     C_2   0.221741 0.486405 0.791731 0.212582
C56   C     C_3   0.873356 0.210064 0.668651 -0.360046
C57   C     C_R   0.711979 0.541149 0.235319 -0.088436
C58   C     C_R   0.750682 0.548693 0.295888 -0.025314
C59   C     C_R   0.500868 0.487246 0.314212 0.026208
C60   C     C_R   0.457691 0.481893 0.253942 -0.107780
C61   C     C_R   0.562338 0.509527 0.213651 0.196192
C62   C     C_2   0.170310 0.473309 0.669869 -0.287221
C63   C     C_3   0.041438 0.658050 0.724012 -0.359952
C64   C     C_3   0.320121 0.317253 0.394032 0.292104
C65   C     C_3   0.316224 0.236738 0.376737 -0.343677
C66   C     C_3   0.436907 0.726044 0.599051 -0.324754
C67   C     C_3   0.388906 0.295348 0.679796 0.308316
C68   C     C_2   0.340874 0.997154 0.405726 0.859621
C69   C     C_3   0.451640 0.280689 0.739022 -0.358404
C70   C     C_R   0.954092 0.197706 0.470675 -0.127241
H1    H     H_    0.323762 0.628002 0.320092 0.085802
H2    H     H_    0.196886 0.334831 0.405473 0.003736
H3    H     H_    0.401248 0.332348 0.433208 0.083601
H4    H     H_    0.236272 0.718465 0.252671 0.147885
H5    H     H_    0.231920 0.219769 0.338714 0.138729
H6    H     H_    0.275004 0.211749 0.414849 0.081245
H7    H     H_    0.439096 0.218306 0.363887 0.131019
H8    H     H_    0.522926 0.669935 0.319174 -0.063676
H9    H     H_    0.358408 0.646249 0.220820 0.109808
H10   H     H_    0.619560 0.657097 0.620036 0.050219
H11   H     H_    0.667888 0.718422 0.724313 0.119692
H12   H     H_    0.732922 0.308181 0.260783 0.141753
H13   H     H_    0.696700 0.777722 0.671199 0.084139
H14   H     H_    0.514970 0.780915 0.715535 0.113370
H15   H     H_    0.449705 0.734375 0.243035 0.125517
H16   H     H_    0.892681 0.791841 0.282000 0.125354
H17   H     H_    0.790823 0.282565 0.613676 0.096249
H18   H     H_    0.004871 0.291220 0.631623 -0.057442
H19   H     H_    0.883167 0.167197 0.629506 0.064756
H20   H     H_    0.972968 0.206006 0.700386 0.119103
H21   H     H_    0.755840 0.202554 0.690590 0.142837
H22   H     H_    0.262343 0.273994 0.674076 -0.021872
H23   H     H_    0.771311 0.399964 0.254560 0.069950
H24   H     H_    0.391918 0.353859 0.681299 0.042931
H25   H     H_    0.371781 0.304741 0.775444 0.133710
H26   H     H_    0.575462 0.304165 0.747637 0.158604
H27   H     H_    0.974634 0.724862 0.391486 0.067267
H28   H     H_    0.453613 0.222506 0.738550 0.112733
H29   H     H_    0.870514 0.175822 0.435374 0.084174
H30   H     H_    0.178987 0.164585 0.587723 0.060512
H31   H     H_    0.639173 0.834797 0.410593 0.087194
H32   H     H_    0.929387 0.824065 0.567749 0.063721
H33   H     H_    0.162237 0.353241 0.516423 0.063491
H34   H     H_    0.938461 0.342662 0.257203 0.131148
H35   H     H_    0.650546 0.645436 0.481720 0.071605
H36   H     H_    0.294227 0.083481 0.536863 0.075350
H37   H     H_    0.443739 0.997644 0.574788 0.080089
H38   H     H_    0.356679 0.872278 0.549288 0.089706
H39   H     H_    0.789561 0.710451 0.347115 -0.056033
H40   H     H_    0.103873 0.841716 0.494848 0.132040
H41   H     H_    0.520690 0.915549 0.460528 0.114549
H42   H     H_    0.461890 0.129255 0.451379 0.128017
H43   H     H_    0.704213 0.157182 0.512832 0.128252
H44   H     H_    0.319304 0.327205 0.046529 0.125253
H45   H     H_    0.109405 0.610184 0.635387 0.041929
H46   H     H_    0.227029 0.322608 0.944811 0.122487
H47   H     H_    0.554732 0.671809 0.059747 0.124373
H48   H     H_    0.798867 0.559211 0.205185 0.118037
H49   H     H_    0.467169 0.666680 0.957621 0.123863
H50   H     H_    0.900802 0.835896 0.358704 0.071278
H51   H     H_    0.471233 0.515261 0.762841 0.110885
H52   H     H_    0.972267 0.463144 0.803624 0.097387
H53   H     H_    0.343814 0.455781 0.238530 0.126713
H54   H     H_    0.676101 0.528320 0.381660 0.080875
H55   H     H_    0.165180 0.446061 0.623983 0.065822
H56   H     H_    0.907547 0.585359 0.656691 0.035157
H57   H     H_    0.082738 0.803551 0.321996 0.157204
H58   H     H_    0.696976 0.386295 0.358355 0.013518
H59   H     H_    0.901918 0.422095 0.354543 0.062882
H60   H     H_    0.402570 0.685600 0.559895 0.147490
H61   H     H_    0.326999 0.751958 0.619070 0.129887
H62   H     H_    0.517004 0.767009 0.583738 0.031965
H63   H     H_    0.184652 0.919771 0.367535 0.309822
H64   H     H_    0.121049 0.706506 0.727037 0.152062
H65   H     H_    0.106160 0.618266 0.744187 0.087761
H66   H     H_    0.929847 0.671569 0.749870 0.102846
N1    N     N_R   0.265011 0.489752 0.853920 -0.427927
N2    N     N_R   0.517798 0.504995 0.151120 -0.424592
O1    O     O_2   0.108070 0.674980 0.540650 -0.466366
O2    O     O_2   0.689401 0.445802 0.697808 -0.483610
O3    O     O_3   0.855677 0.335002 0.698394 -0.594638
O4    O     O_3   0.861930 0.586170 0.535430 -0.484077
O5    O     O_3   0.451480 0.461630 0.428900 -0.492936
O6    O     O_2   0.599240 0.538720 0.642170 -0.470036
O7    O     O_3   0.409452 0.650248 0.672166 -0.635913
O8    O     O_2   0.527679 0.247186 0.518022 -0.508743
O9    O     O_3   0.486657 0.261903 0.633696 -0.597373
O10   O     O_2   0.345824 0.605042 0.861662 -0.596647
O11   O     O_2   0.182035 0.375811 0.853169 -0.602908
O12   O     O_3   0.375256 0.347279 0.345571 -0.622727
O13   O     O_2   0.449860 0.387869 0.141346 -0.595097
O14   O     O_2   0.593419 0.620098 0.151424 -0.615306
O15   O     O_3   0.366390 0.628250 0.433820 -0.481275
O16   O     O_2   0.284761 0.755333 0.474160 -0.497865
O17   O     O_3   0.934287 0.684857 0.634749 -0.647443
O18   O     O_3   0.340315 0.733708 0.359407 -0.577836
O19   O     O_2   0.211060 0.461230 0.357810 -0.458370
O20   O     O_3   0.958150 0.591500 0.402390 -0.485413
O21   O     O_2   0.081853 0.537865 0.296300 -0.494304
O22   O     O_2   0.257958 0.043446 0.391502 -0.627220
O23   O     O_3   0.996805 0.668626 0.305925 -0.596047
O24   O     O_R   0.291784 0.925754 0.389563 -0.754285
O25   O     O_2   0.702240 0.324970 0.459330 -0.461568
O26   O     O_3   0.948380 0.413820 0.464520 -0.490787
O27   O     O_3   0.443920 0.371740 0.566130 -0.463403
O28   O     O_3   0.877137 0.316656 0.365050 -0.628830
O29   O     O_3   0.358830 0.538360 0.571050 -0.469623
O30   O     O_3   0.852160 0.408490 0.597560 -0.487144
P1    P     P_3+3 0.933470 0.664380 0.557030 0.970221
P2    P     P_3+3 0.383600 0.440030 0.365120 0.993521
P3    P     P_3+3 0.946748 0.585854 0.324957 0.947502
P4    P     P_3+3 0.876840 0.335610 0.442930 0.984343
P5    P     P_3+3 0.855264 0.417956 0.675525 0.971948
P6    P     P_3+3 0.402666 0.716674 0.428654 0.953484
P7    P     P_3+3 0.416586 0.558485 0.645965 0.958715
P8    P     P_3+3 0.413572 0.281976 0.566858 0.923851

loop_
_geom_bond_atom_site_label_1
_geom_bond_atom_site_label_2
_ccdc_geom_bond_type
O15   P6    S    
C53   C54   D    
C49   O14   D    
C9    P1    S    
C57   H48   S    
Ba2   O4    S    
O20   P3    S    
Ba1   O5    S    
C17   C18   A    
C65   H5    S    
O3    P5    S    
C35   O10   D    
C67   H24   S    
C52   C63   S    
C25   C31   A    
Ba2   O5    S    
O28   P4    S    
C69   H25   S    
O4    P1    S    
C44   H46   S    
C24   C25   A    
C15   C21   A    
C12   O18   S    
C66   H61   S    
C33   C35   A    
C56   H21   S    
C22   C24   A    
C8    C13   A    
C36   C37   A    
O12   P2    S    
C51   C62   S    
C48   N2    Am   
C70   H29   S    
C48   O13   D    
C28   H59   S    
C64   H2    S    
C45   O3    S    
O1    P1    D    
C54   C55   S    
C55   N1    S    
C7    P6    S    
Ba1   O15   S    
Ba1   Ba2   S    
C61   N2    S    
C39   H49   S    
C2    C11   A    
C67   C69   S    
C14   H35   S    
C29   C68   S    
O16   P6    D    
C6    C7    A    
C1    H9    S    
C36   N1    Am   
C12   H8    S    
C56   H19   S    
Ba2   O26   S    
C46   H44   S    
C63   H65   S    
C49   N2    Am   
C64   C65   S    
C10   C70   A    
O5    P2    S    
C57   C58   A    
C2    P4    S    
C19   C20   A    
C32   C58   A    
C58   P3    S    
C53   P7    S    
C65   H6    S    
C68   O22   D    
O29   P7    S    
O30   P5    S    
C17   H37   S    
C38   C43   A    
C4    C16   S    
C69   H26   S    
C44   C46   A    
O26   P4    S    
C42   C43   A    
C31   H43   S    
O19   P2    D    
C1    H15   S    
C40   H23   S    
C12   H1    S    
Ba1   O19   S    
C40   H12   S    
C3    C10   A    
C11   H33   S    
C67   H22   S    
C50   C55   D    
C15   H36   S    
C37   C38   A    
C3    C5    A    
C23   C34   S    
C34   H14   S    
O25   P4    D    
C28   H58   S    
C52   H56   S    
Ba1   P1    S    
C32   C59   A    
C16   H16   S    
O6    P7    D    
C66   H60   S    
C41   C42   A    
C54   H51   S    
C64   O12   S    
C60   C61   A    
O21   P3    D    
C9    C14   A    
O7    P7    S    
C29   C30   A    
H63   O24   S    
C43   C47   A    
C32   H54   S    
C62   H55   S    
C53   C62   D    
O17   P1    S    
C65   H7    S    
C23   O7    S    
C59   P2    S    
C21   C26   A    
C4    O23   S    
C1    H4    S    
C40   H34   S    
Ba2   O25   S    
C1    C12   S    
Ba2   O30   S    
C37   C44   A    
C18   H38   S    
C63   H66   S    
C5    P8    S    
C42   C49   A    
O18   P6    S    
C13   C22   S    
C16   H50   S    
C45   H17   S    
C6    C13   A    
C23   H10   S    
C45   H18   S    
C20   C22   A    
O23   P3    S    
C36   O11   D    
C2    C70   A    
C19   H40   S    
C50   C51   S    
C51   P5    S    
C27   H41   S    
C3    H30   S    
C46   C47   A    
O8    P8    D    
C7    C14   A    
Ba1   O20   S    
C39   C41   A    
C68   O24   S    
C60   H53   S    
C23   C66   S    
O2    P5    D    
C34   H13   S    
Ba2   O6    S    
C69   H28   S    
Ba1   P2    S    
C57   C61   A    
C67   O9    S    
C4    H27   S    
C8    H32   S    
C33   C38   A    
C28   O28   S    
C27   C29   A    
Ba1   O4    S    
C30   C31   A    
C45   C56   S    
C50   H52   S    
Ba1   O26   S    
C64   H3    S    
Ba1   O29   S    
O9    P8    S    
C15   C17   A    
C66   H62   S    
C4    H39   S    
C59   C60   A    
C33   C39   A    
C6    H31   S    
C63   H64   S    
Ba1   O1    S    
C8    C9    A    
Ba2   O29   S    
C5    C11   A    
O27   P8    S    
C18   C19   A    
C10   C26   S    
C24   C27   A    
C47   C48   A    
C35   N1    Am   
C52   H45   S    
C25   C26   A    
C20   C21   A    
C28   C40   S    
C16   H57   S    
C34   H11   S    
C30   H42   S    
C56   H20   S    
Ba2   O27   S    
Ba2   P4    S    
C41   H47   S    
C52   O17   S    
