data_mof_unit_20632.cif
_audit_creation_date              2012-12-11T14:30:18-0500
_audit_creation_method            fapswitch 2.2
_symmetry_space_group_name_H-M    P1
_symmetry_Int_Tables_number       1
_space_group_crystal_system       triclinic
_cell_length_a                    12.750063
_cell_length_b                    12.750065
_cell_length_c                    27.113895
_cell_angle_alpha                 90.00005
_cell_angle_beta                  90.000045
_cell_angle_gamma                 120.000212
_cell_volume                      3817.2125528

loop_
_atom_site_label
_atom_site_type_symbol
_atom_type_description
_atom_site_fract_x
_atom_site_fract_y
_atom_site_fract_z
_atom_type_partial_charge
C1    C     C_R   0.558342 0.454531 0.822394 0.573873
C2    C     C_R   0.455172 0.560801 0.177266 0.566527
C3    C     C_R   0.876889 0.286280 0.462172 0.320679
C4    C     C_R   0.272712 0.872434 0.013230 0.282126
C5    C     C_R   0.713720 0.590610 0.462172 0.320682
C6    C     C_R   0.400278 0.127565 0.513230 0.282128
C7    C     C_R   0.123112 0.409393 0.962172 0.320683
C8    C     C_R   0.727288 0.599723 0.513230 0.282126
C9    C     C_R   0.286280 0.876889 0.962172 0.320680
C10   C     C_R   0.872435 0.272712 0.513230 0.282126
C11   C     C_R   0.590609 0.713720 0.962172 0.320683
C12   C     C_R   0.441658 0.896190 0.322394 0.573871
C13   C     C_R   0.105629 0.544828 0.177266 0.566526
C14   C     C_R   0.006549 0.513502 0.972494 -0.088417
C15   C     C_R   0.515655 0.022666 0.523945 -0.084759
C16   C     C_R   0.486497 0.493046 0.972494 -0.088417
C17   C     C_R   0.977334 0.492989 0.523945 -0.084757
C18   C     C_R   0.506953 0.993451 0.972494 -0.088417
C19   C     C_R   0.507011 0.484345 0.523945 -0.084759
C20   C     C_R   0.513503 0.006549 0.472494 -0.088417
C21   C     C_R   0.894370 0.439199 0.677266 0.566526
C22   C     C_R   0.022666 0.515654 0.023945 -0.084759
C23   C     C_R   0.493046 0.486497 0.472494 -0.088417
C24   C     C_R   0.492989 0.977334 0.023945 -0.084758
C25   C     C_R   0.993451 0.506953 0.472494 -0.088417
C26   C     C_R   0.484345 0.507011 0.023945 -0.084759
C27   C     C_R   0.889382 0.616219 0.983323 0.291649
C28   C     C_R   0.624953 0.911950 0.534740 0.287329
C29   C     C_R   0.383777 0.273162 0.983322 0.291650
C30   C     C_R   0.088050 0.713004 0.534740 0.287330
C31   C     C_R   0.726838 0.110616 0.983323 0.291649
C32   C     C_R   0.545468 0.103810 0.822394 0.573872
C33   C     C_R   0.286996 0.375044 0.534740 0.287328
C34   C     C_R   0.616220 0.889383 0.483323 0.291650
C35   C     C_R   0.911949 0.624952 0.034740 0.287330
C36   C     C_R   0.273162 0.383776 0.483322 0.291650
C37   C     C_R   0.713004 0.088050 0.034740 0.287330
C38   C     C_R   0.110617 0.726837 0.483323 0.291649
C39   C     C_R   0.375045 0.286996 0.034740 0.287328
C40   C     C_R   0.913577 0.549358 0.901304 0.416276
C41   C     C_R   0.580137 0.000674 0.606455 0.416739
C42   C     C_R   0.450640 0.364219 0.901304 0.416276
C43   C     C_R   0.560801 0.455172 0.677266 0.566527
C44   C     C_R   0.999325 0.579463 0.606455 0.416740
C45   C     C_R   0.635780 0.086422 0.901304 0.416275
C46   C     C_R   0.420537 0.419861 0.606454 0.416740
C47   C     C_R   0.549359 0.913578 0.401304 0.416276
C48   C     C_R   0.000674 0.580136 0.106455 0.416740
C49   C     C_R   0.364219 0.450641 0.401304 0.416276
C50   C     C_R   0.579463 0.999325 0.106454 0.416740
C51   C     C_R   0.086422 0.635780 0.401304 0.416275
C52   C     C_R   0.419862 0.420537 0.106454 0.416739
C53   C     C_R   0.066134 0.528883 0.125751 0.004785
C54   C     C_R   0.896190 0.441659 0.822394 0.573872
C55   C     C_R   0.482728 0.950258 0.371594 -0.005048
C56   C     C_R   0.471116 0.537250 0.125751 0.004785
C57   C     C_R   0.049742 0.532470 0.371594 -0.005048
C58   C     C_R   0.462750 0.933865 0.125751 0.004784
C59   C     C_R   0.467530 0.517272 0.371594 -0.005047
C60   C     C_R   0.528883 0.066134 0.625751 0.004785
C61   C     C_R   0.950258 0.482728 0.871594 -0.005047
C62   C     C_R   0.537250 0.471116 0.625751 0.004784
C63   C     C_R   0.532470 0.049742 0.871594 -0.005048
C64   C     C_R   0.933865 0.462749 0.625751 0.004784
C65   C     C_R   0.544828 0.105629 0.677266 0.566526
C66   C     C_R   0.517272 0.467530 0.871594 -0.005047
C67   C     C_R   0.938171 0.562287 0.952190 0.076132
C68   C     C_R   0.572609 0.976539 0.555293 0.075244
C69   C     C_R   0.437711 0.375884 0.952190 0.076132
C70   C     C_R   0.023460 0.596070 0.555293 0.075244
C71   C     C_R   0.624116 0.061828 0.952190 0.076130
C72   C     C_R   0.403929 0.427389 0.555292 0.075245
C73   C     C_R   0.562287 0.938172 0.452190 0.076132
C74   C     C_R   0.976539 0.572608 0.055293 0.075245
C75   C     C_R   0.375884 0.437711 0.452189 0.076132
C76   C     C_R   0.454531 0.558342 0.322394 0.573873
C77   C     C_R   0.596070 0.023460 0.055292 0.075244
C78   C     C_R   0.061828 0.624115 0.452190 0.076129
C79   C     C_R   0.427389 0.403929 0.055292 0.075245
C80   C     C_R   0.023867 0.441511 0.891373 -0.140406
C81   C     C_R   0.468569 0.106437 0.594704 -0.171592
C82   C     C_R   0.558490 0.582357 0.891374 -0.140405
C83   C     C_R   0.893562 0.362132 0.594704 -0.171592
C84   C     C_R   0.417643 0.976134 0.891374 -0.140406
C85   C     C_R   0.637868 0.531431 0.594704 -0.171592
C86   C     C_R   0.441511 0.023867 0.391373 -0.140406
C87   C     C_R   0.439199 0.894370 0.177266 0.566526
C88   C     C_R   0.106437 0.468569 0.094704 -0.171592
C89   C     C_R   0.582357 0.558491 0.391374 -0.140405
C90   C     C_R   0.362132 0.893562 0.094704 -0.171592
C91   C     C_R   0.976134 0.417643 0.391374 -0.140407
C92   C     C_R   0.531431 0.637868 0.094704 -0.171592
C93   C     C_R   0.055436 0.458662 0.941446 -0.043179
C94   C     C_R   0.459547 0.084188 0.544176 -0.057138
C95   C     C_R   0.541339 0.596775 0.941446 -0.043179
C96   C     C_R   0.915811 0.375358 0.544176 -0.057135
C97   C     C_R   0.403225 0.944565 0.941446 -0.043180
C98   C     C_R   0.103810 0.545468 0.322394 0.573872
C99   C     C_R   0.624641 0.540453 0.544176 -0.057137
C100  C     C_R   0.458662 0.055436 0.441446 -0.043179
C101  C     C_R   0.084189 0.459547 0.044175 -0.057137
C102  C     C_R   0.596775 0.541339 0.441446 -0.043179
C103  C     C_R   0.375358 0.915811 0.044175 -0.057135
C104  C     C_R   0.944565 0.403225 0.441446 -0.043179
C105  C     C_R   0.540453 0.624641 0.044176 -0.057138
C106  C     C_R   0.127565 0.400278 0.013229 0.282127
C107  C     C_R   0.409393 0.123111 0.462172 0.320684
C108  C     C_R   0.599723 0.727288 0.013230 0.282127
Cr1   Cr    Cr6+3 0.487630 0.241180 0.750000 1.150050
Cr2   Cr    Cr6+3 0.753550 0.512370 0.750000 1.150049
Cr3   Cr    Cr6+3 0.758820 0.246450 0.750000 1.150049
Cr4   Cr    Cr6+3 0.241180 0.487630 0.250000 1.150049
Cr5   Cr    Cr6+3 0.512370 0.753550 0.250000 1.150049
Cr6   Cr    Cr6+3 0.246450 0.758820 0.250000 1.150049
F1    F     F_    0.962350 0.637396 0.137722 -0.556872
F2    F     F_    0.747709 0.154105 0.881210 -0.549432
F3    F     F_    0.037649 0.675048 0.637722 -0.556872
F4    F     F_    0.406393 0.252290 0.881210 -0.549431
F5    F     F_    0.593606 0.845896 0.381210 -0.549431
F6    F     F_    0.362601 0.324952 0.137721 -0.556873
F7    F     F_    0.154104 0.747709 0.381210 -0.549432
F8    F     F_    0.675048 0.037649 0.137721 -0.556873
F9    F     F_    0.252290 0.406393 0.381210 -0.549431
F10   F     F_    0.637397 0.962350 0.637722 -0.556872
F11   F     F_    0.845896 0.593605 0.881210 -0.549431
F12   F     F_    0.324952 0.362600 0.637721 -0.556873
H1    H     H_    0.162947 0.435533 0.110013 0.170485
H2    H     H_    0.339850 0.951003 0.867978 0.184263
H3    H     H_    0.837053 0.272585 0.610013 0.170486
H4    H     H_    0.611153 0.660149 0.867978 0.184262
H5    H     H_    0.874469 0.753329 0.046165 0.350944
H6    H     H_    0.644836 0.755097 0.487861 0.313422
H7    H     H_    0.246664 0.121140 0.046164 0.350946
H8    H     H_    0.244904 0.889740 0.487861 0.313420
H9    H     H_    0.878861 0.125529 0.046164 0.350945
H10   H     H_    0.110256 0.355150 0.487860 0.313424
H11   H     H_    0.753331 0.874471 0.546165 0.350944
H12   H     H_    0.388849 0.048998 0.367978 0.184262
H13   H     H_    0.755095 0.644834 0.987861 0.313421
H14   H     H_    0.121141 0.246661 0.546164 0.350944
H15   H     H_    0.889741 0.244902 0.987861 0.313422
H16   H     H_    0.125530 0.878862 0.546164 0.350944
H17   H     H_    0.355154 0.110257 0.987860 0.313424
H18   H     H_    0.125512 0.287065 0.061274 0.344883
H19   H     H_    0.409826 0.210383 0.403781 0.303513
H20   H     H_    0.712937 0.838448 0.061274 0.344884
H21   H     H_    0.789618 0.199442 0.403781 0.303513
H22   H     H_    0.161551 0.874487 0.061274 0.344884
H23   H     H_    0.564468 0.727414 0.110013 0.170486
H24   H     H_    0.800558 0.590178 0.403781 0.303513
H25   H     H_    0.287064 0.125511 0.561274 0.344883
H26   H     H_    0.210383 0.409827 0.903781 0.303512
H27   H     H_    0.838448 0.712937 0.561274 0.344884
H28   H     H_    0.199442 0.789618 0.903781 0.303513
H29   H     H_    0.874487 0.161552 0.561274 0.344884
H30   H     H_    0.590177 0.800558 0.903781 0.303513
H31   H     H_    0.951003 0.339850 0.367978 0.184263
H32   H     H_    0.272586 0.837053 0.110013 0.170486
H33   H     H_    0.660149 0.611153 0.367978 0.184263
H34   H     H_    0.435532 0.162946 0.610013 0.170486
H35   H     H_    0.048998 0.388850 0.867978 0.184262
H36   H     H_    0.727414 0.564468 0.610013 0.170486
O1    O     O_R   0.460870 0.120930 0.805240 -0.456064
O2    O     O_R   0.120930 0.460870 0.194760 -0.506595
O3    O     O_R   0.539130 0.660060 0.305240 -0.456065
O4    O     O_R   0.339940 0.879070 0.194760 -0.506595
O5    O     O_R   0.498910 0.350470 0.801870 -0.434404
O6    O     O_R   0.851560 0.501090 0.698130 -0.467997
O7    O     O_R   0.649530 0.148440 0.801870 -0.434404
O8    O     O_R   0.498910 0.350470 0.698130 -0.467996
O9    O     O_R   0.851560 0.501090 0.801870 -0.434405
O10   O     O_R   0.649530 0.148440 0.698130 -0.467996
O11   O     O_R   0.350470 0.498910 0.301870 -0.434404
O12   O     O_R   0.660060 0.539130 0.694760 -0.506595
O13   O     O_R   0.501090 0.851560 0.198130 -0.467997
O14   O     O_R   0.148440 0.649530 0.301870 -0.434404
O15   O     O_R   0.350470 0.498910 0.198130 -0.467996
O16   O     O_R   0.501090 0.851560 0.301870 -0.434405
O17   O     O_R   0.148440 0.649530 0.198130 -0.467996
O18   O     O_3   0.666667 0.333333 0.750000 -0.322350
O19   O     O_3   0.333333 0.666667 0.250000 -0.322350
O20   O     O_3   0.874357 0.686886 0.065157 -0.612037
O21   O     O_3   0.657292 0.817288 0.463199 -0.586070
O22   O     O_3   0.313110 0.187469 0.065157 -0.612040
O23   O     O_R   0.879070 0.339940 0.805240 -0.456064
O24   O     O_3   0.182711 0.840004 0.463198 -0.586067
O25   O     O_3   0.812531 0.125642 0.065157 -0.612037
O26   O     O_3   0.159995 0.342700 0.463197 -0.586064
O27   O     O_3   0.686887 0.874358 0.565157 -0.612037
O28   O     O_3   0.817287 0.657290 0.963199 -0.586070
O29   O     O_3   0.187469 0.313108 0.565156 -0.612038
O30   O     O_3   0.840005 0.182710 0.963198 -0.586067
O31   O     O_3   0.125642 0.812531 0.565157 -0.612036
O32   O     O_3   0.342702 0.159995 0.963198 -0.586066
O33   O     O_3   0.172310 0.329650 0.031452 -0.656225
O34   O     O_R   0.460870 0.120930 0.694760 -0.506595
O35   O     O_3   0.359850 0.177430 0.433879 -0.605242
O36   O     O_3   0.670351 0.842660 0.031453 -0.656224
O37   O     O_3   0.822571 0.182418 0.433879 -0.605241
O38   O     O_3   0.157339 0.827688 0.031453 -0.656226
O39   O     O_3   0.817582 0.640155 0.433880 -0.605239
O40   O     O_3   0.329650 0.172309 0.531452 -0.656227
O41   O     O_3   0.177430 0.359850 0.933879 -0.605241
O42   O     O_3   0.842660 0.670350 0.531453 -0.656224
O43   O     O_3   0.182418 0.822571 0.933879 -0.605240
O44   O     O_3   0.827689 0.157339 0.531452 -0.656226
O45   O     O_R   0.660060 0.539130 0.805240 -0.456064
O46   O     O_3   0.640154 0.817582 0.933879 -0.605240
O47   O     O_R   0.879070 0.339940 0.694760 -0.506595
O48   O     O_R   0.120930 0.460870 0.305240 -0.456064
O49   O     O_R   0.539130 0.660060 0.194760 -0.506595
O50   O     O_R   0.339940 0.879070 0.305240 -0.456063

loop_
_geom_bond_atom_site_label_1
_geom_bond_atom_site_label_2
_ccdc_geom_bond_type
C3    C104  A    
C84   H2    S    
C12   O16   A    
C32   O7    A    
C4    C103  A    
C35   C74   A    
C90   H32   S    
C89   C102  A    
C45   C71   A    
H8    O24   S    
H21   O37   S    
C50   F8    S    
C27   O28   S    
C91   C104  A    
H13   O28   S    
C28   O27   S    
C15   C94   A    
C88   C101  A    
C64   C83   A    
H18   O33   S    
C44   C64   A    
C35   O20   S    
C98   O48   A    
C2    O49   A    
C22   C101  A    
C46   C62   A    
C18   C24   A    
C84   C97   A    
C41   F10   S    
C76   O11   A    
C28   C68   A    
C8    C99   A    
C6    O40   S    
C88   H1    S    
H6    O21   S    
C5    O39   S    
H5    O20   S    
C87   O4    A    
C1    O5    A    
C61   C80   A    
C29   O32   S    
C49   F9    S    
C32   O1    A    
C101  C106  A    
C33   C36   A    
C30   C38   A    
Cr1   O34   S    
Cr3   O10   S    
C59   C89   A    
Cr6   O50   S    
C21   C64   S    
C7    O41   S    
C80   H35   S    
Cr1   O5    S    
C33   C72   A    
Cr2   O6    S    
C80   C93   A    
Cr5   O19   S    
C6    C94   A    
C40   C67   A    
C3    O37   S    
C6    C107  A    
C49   C75   A    
H26   O41   S    
C44   C70   A    
Cr2   O45   S    
C51   C57   A    
C2    O15   A    
C10   C96   A    
C82   H4    S    
C52   C79   A    
C86   C100  A    
C14   C93   A    
C46   C72   A    
C39   O22   S    
Cr5   O13   S    
H27   O42   S    
Cr2   O9    S    
H29   O44   S    
Cr6   O14   S    
Cr5   O16   S    
C28   C34   A    
C17   C70   A    
C81   H34   S    
C76   O3    A    
C58   C87   S    
C85   H36   S    
C19   C72   A    
C15   C20   A    
H15   O30   S    
C13   O17   A    
C7    C93   A    
C26   C105  A    
H9    O25   S    
C30   O31   S    
C30   C70   A    
C43   O8    A    
Cr6   O4    S    
C41   C68   A    
C29   C69   A    
Cr2   O12   S    
C16   C26   A    
C48   C53   A    
Cr4   O2    S    
C62   C85   A    
Cr3   O23   S    
C65   O10   A    
C25   C78   A    
C50   C58   A    
C48   C74   A    
C8    O42   S    
C12   O50   A    
C89   H33   S    
Cr1   O1    S    
C107  O35   S    
C19   C99   A    
H22   O38   S    
C38   C78   A    
C27   C35   A    
C47   C73   A    
C38   O24   S    
H17   O32   S    
C37   C77   A    
C31   O30   S    
C45   C63   A    
C42   C69   A    
C40   C61   A    
C31   C37   A    
C36   O26   S    
Cr4   O48   S    
H20   O36   S    
C19   C23   A    
Cr3   O47   S    
C13   C53   S    
H19   O35   S    
H28   O43   S    
C85   C99   A    
C36   C75   A    
C66   C82   A    
C98   O14   A    
C60   C81   A    
C24   C77   A    
H7    O22   S    
C20   C100  A    
Cr2   O18   S    
C14   C67   A    
Cr1   O18   S    
C29   C39   A    
C1    C66   S    
C7    C106  A    
C34   O21   S    
C17   C96   A    
C105  C108  A    
C58   C90   A    
Cr5   O49   S    
Cr4   O19   S    
C48   F1    S    
H11   O27   S    
C52   F6    S    
C18   C97   A    
C60   C65   S    
Cr3   O18   S    
C51   F7    S    
C11   O46   S    
C22   C74   A    
H25   O40   S    
C50   C77   A    
C11   C108  A    
Cr1   O8    S    
C13   O2    A    
C47   C55   A    
C11   C95   A    
C18   C71   A    
C5    C102  A    
C100  C107  A    
C9    C97   A    
C82   C95   A    
C57   C91   A    
C21   O6    A    
C54   O9    A    
C46   F12   S    
C42   F4    S    
C16   C69   A    
C41   C60   A    
C23   C75   A    
C5    C8    A    
C25   C104  A    
C83   H3    S    
C106  O33   S    
C54   C61   S    
C32   C63   S    
Cr6   O19   S    
C87   O13   A    
C15   C68   A    
C26   C79   A    
C49   C59   A    
C63   C84   A    
C33   O29   S    
C24   C103  A    
C17   C25   A    
C65   O34   A    
C55   C86   A    
C10   O44   S    
C51   C78   A    
C3    C10   A    
C9    O43   S    
C1    O45   A    
Cr5   O3    S    
C81   C94   A    
C16   C95   A    
C45   F2    S    
C14   C22   A    
C37   O25   S    
C83   C96   A    
C44   F3    S    
C47   F5    S    
C40   F11   S    
C59   C76   S    
C31   C71   A    
C43   O12   A    
H16   O31   S    
C21   O47   A    
C20   C73   A    
Cr4   O11   S    
C53   C88   A    
C108  O36   S    
H30   O46   S    
C57   C98   S    
C90   C103  A    
C91   H31   S    
C12   C55   S    
C27   C67   A    
C86   H12   S    
C34   C73   A    
C23   C102  A    
C92   C105  A    
C4    O38   S    
Cr6   O17   S    
C92   H23   S    
C42   C66   A    
H14   O29   S    
C2    C56   S    
H24   O39   S    
Cr3   O7    S    
C4    C9    A    
C56   C92   A    
C54   O23   A    
H10   O26   S    
C52   C56   A    
C43   C62   S    
C39   C79   A    
Cr4   O15   S    
