data_mof_unit_55379.cif
_audit_creation_date              2012-12-10T17:39:10-0500
_audit_creation_method            fapswitch 2.2
_symmetry_space_group_name_H-M    P1
_symmetry_Int_Tables_number       1
_space_group_crystal_system       triclinic
_cell_length_a                    12.075453
_cell_length_b                    12.856887
_cell_length_c                    23.054134
_cell_angle_alpha                 90.353843
_cell_angle_beta                  84.5361
_cell_angle_gamma                 93.156747
_cell_volume                      3557.54685888

loop_
_atom_site_label
_atom_site_type_symbol
_atom_type_description
_atom_site_fract_x
_atom_site_fract_y
_atom_site_fract_z
_atom_type_partial_charge
C1    C     C_R   0.521757 0.700267 0.499405 0.866480
C2    C     C_R   0.406627 0.426779 0.305201 0.562387
C3    C     C_R   0.406846 0.590334 0.762160 -0.310061
C4    C     C_R   0.398509 0.421255 0.245833 -0.303734
C5    C     C_R   0.479406 0.539154 0.794421 0.031120
C6    C     C_R   0.485649 0.461840 0.206984 -0.001045
C7    C     C_R   0.465220 0.188384 0.502491 -0.031382
C8    C     C_R   0.534440 0.811579 0.499203 -0.032587
C9    C     C_R   0.648962 0.969945 0.486519 -0.226839
C10   C     C_R   0.350573 0.030127 0.516175 -0.211149
C11   C     C_R   0.639688 0.862411 0.487774 -0.199751
C12   C     C_R   0.478168 0.299714 0.500976 0.863074
C13   C     C_R   0.359745 0.137710 0.513545 -0.182513
C14   C     C_R   0.438568 0.867438 0.509470 -0.251797
C15   C     C_R   0.561121 0.132375 0.493843 -0.262415
C16   C     C_R   0.499178 0.504221 0.610899 0.985641
C17   C     C_R   0.500783 0.495300 0.389077 0.988187
C18   C     C_R   0.446790 0.974207 0.507377 0.179853
C19   C     C_R   0.552806 0.025715 0.495934 0.187384
C20   C     C_R   0.962619 0.472078 0.425463 0.539368
C21   C     C_R   0.035684 0.523720 0.573974 0.501104
C22   C     C_R   0.845960 0.454626 0.436623 0.385805
C23   C     C_R   0.568443 0.486580 0.766084 0.421139
C24   C     C_R   0.151319 0.513556 0.565520 0.406068
C25   C     C_R   0.853395 0.515251 0.533577 0.573102
C26   C     C_R   0.146166 0.517293 0.463196 0.551349
C27   C     C_R   0.971838 0.514851 0.526647 -0.404371
C28   C     C_R   0.027288 0.501862 0.470999 -0.381129
C29   C     C_R   0.441316 0.388717 0.114969 0.564792
C30   C     C_R   0.460486 0.619956 0.889314 0.577282
C31   C     C_R   0.459825 0.573474 0.126768 0.606471
C32   C     C_R   0.418761 0.437161 0.879493 0.612623
C33   C     C_R   0.428630 0.589498 0.070549 -0.199627
C34   C     C_R   0.586105 0.500435 0.227617 0.427964
C35   C     C_R   0.391418 0.426821 0.939725 -0.198462
C36   C     C_R   0.411552 0.501572 0.035141 -0.144702
C37   C     C_R   0.408475 0.514799 0.975092 -0.145724
C38   C     C_R   0.409268 0.399888 0.058370 -0.163964
C39   C     C_R   0.434160 0.614332 0.950056 -0.166511
C40   C     C_R   0.419971 0.690819 0.047523 0.415148
C41   C     C_R   0.354971 0.329664 0.965997 0.419047
C42   C     C_R   0.435061 0.703901 0.986372 0.424800
C43   C     C_R   0.375936 0.313296 0.024396 0.429925
C44   C     C_3   0.311806 0.770752 0.121935 0.152292
C45   C     C_R   0.574546 0.474168 0.705543 0.454238
C46   C     C_3   0.212411 0.813938 0.095179 -0.476532
C47   C     C_3   0.105913 0.799739 0.136308 -0.891073
C48   C     C_3   0.211851 0.273749 0.910877 0.129883
C49   C     C_3   0.108536 0.249806 0.953665 -0.456029
C50   C     C_3   0.003646 0.288183 0.930667 -0.915972
C51   C     C_3   0.197246 0.634578 0.391831 0.150513
C52   C     C_3   0.254677 0.650191 0.330275 -0.257840
C53   C     C_3   0.244661 0.760862 0.308656 -0.971418
C54   C     C_3   0.811840 0.662476 0.584608 0.153464
C55   C     C_3   0.731777 0.705559 0.633100 -0.301889
C56   C     C_R   0.591985 0.511238 0.287604 0.479923
C57   C     C_3   0.751337 0.823088 0.639813 -0.935718
C58   C     C_3   0.184770 0.388331 0.629873 0.132041
C59   C     C_3   0.228368 0.369740 0.688883 -0.284449
C60   C     C_3   0.193252 0.260837 0.712133 -0.951960
C61   C     C_3   0.793635 0.311883 0.385049 0.141139
C62   C     C_3   0.702667 0.269579 0.348046 -0.318396
C63   C     C_3   0.711334 0.153296 0.336199 -0.940199
C64   C     C_3   0.386519 0.871794 0.964399 0.177964
C65   C     C_3   0.288889 0.837170 0.929173 -0.421875
C66   C     C_3   0.202358 0.919753 0.931647 -0.937101
C67   C     C_R   0.497330 0.520636 0.673557 -0.443808
C68   C     C_3   0.278699 0.160216 0.058306 0.143672
C69   C     C_3   0.204362 0.212637 0.106726 -0.407668
C70   C     C_3   0.093388 0.150572 0.119492 -0.937632
C71   C     C_3   0.745044 0.495575 0.793173 0.117112
C72   C     C_3   0.833333 0.430414 0.816409 -0.291940
C73   C     C_3   0.948798 0.486001 0.807819 -0.945058
C74   C     C_3   0.737862 0.453520 0.170030 0.102033
C75   C     C_3   0.835208 0.493649 0.127301 -0.288260
C76   C     C_3   0.908170 0.405605 0.105259 -0.970482
C77   C     C_R   0.500509 0.477640 0.326529 -0.452595
C78   C     C_R   0.417025 0.583228 0.701977 0.561411
F1    F     F_    0.011579 0.455004 0.370980 -0.610919
F2    F     F_    0.986058 0.527353 0.629376 -0.633494
F3    F     F_    0.652178 0.412903 0.678726 -0.596301
F4    F     F_    0.684684 0.558242 0.307337 -0.587783
F5    F     F_    0.346521 0.635479 0.671765 -0.605328
F6    F     F_    0.321226 0.384777 0.341711 -0.589364
H1    H     H_    0.339752 0.632570 0.784063 0.201514
H2    H     H_    0.288017 0.690375 0.137887 0.131498
H3    H     H_    0.228742 0.898429 0.086471 0.219743
H4    H     H_    0.199442 0.772754 0.053700 0.221853
H5    H     H_    0.084721 0.715652 0.144717 0.265853
H6    H     H_    0.035989 0.833382 0.116164 0.274646
H7    H     H_    0.116385 0.840236 0.178309 0.266956
H8    H     H_    0.203306 0.225982 0.871073 0.183861
H9    H     H_    0.212492 0.356356 0.896662 0.133034
H10   H     H_    0.096791 0.164317 0.960569 0.232069
H11   H     H_    0.119522 0.288885 0.995960 0.221243
H12   H     H_    0.322143 0.389404 0.229921 0.204940
H13   H     H_    0.010099 0.374377 0.926571 0.262072
H14   H     H_    0.930065 0.265990 0.961592 0.277458
H15   H     H_    0.991251 0.252742 0.887530 0.269659
H16   H     H_    0.242127 0.685662 0.422263 0.102077
H17   H     H_    0.109715 0.658300 0.392163 0.134808
H18   H     H_    0.344335 0.635423 0.330185 0.215494
H19   H     H_    0.216600 0.594217 0.299965 0.257374
H20   H     H_    0.155785 0.776894 0.306144 0.271223
H21   H     H_    0.289405 0.769961 0.264517 0.273065
H22   H     H_    0.282289 0.818211 0.338332 0.271460
H23   H     H_    0.642856 0.171375 0.485515 0.157775
H24   H     H_    0.793548 0.696304 0.542408 0.096739
H25   H     H_    0.898479 0.688018 0.592780 0.159992
H26   H     H_    0.644681 0.688738 0.622773 0.215737
H27   H     H_    0.743110 0.667184 0.675038 0.228809
H28   H     H_    0.836839 0.842199 0.652098 0.268810
H29   H     H_    0.690523 0.851879 0.674571 0.285696
H30   H     H_    0.740149 0.863296 0.598472 0.267408
H31   H     H_    0.227976 0.337547 0.596674 0.118394
H32   H     H_    0.094028 0.365222 0.633892 0.158872
H33   H     H_    0.320579 0.378103 0.684223 0.219889
H34   H     H_    0.356948 0.828185 0.518608 0.166655
H35   H     H_    0.195953 0.428353 0.720893 0.246939
H36   H     H_    0.101004 0.250986 0.719459 0.268762
H37   H     H_    0.228478 0.249521 0.754276 0.282306
H38   H     H_    0.224788 0.200831 0.680819 0.270588
H39   H     H_    0.783107 0.270417 0.427742 0.091758
H40   H     H_    0.876396 0.295763 0.362313 0.183030
H41   H     H_    0.619547 0.282836 0.371123 0.224951
H42   H     H_    0.710090 0.311778 0.305803 0.225466
H43   H     H_    0.792561 0.138460 0.311579 0.269812
H44   H     H_    0.643353 0.125083 0.309885 0.284202
H45   H     H_    0.285098 0.180904 0.520589 0.157996
H46   H     H_    0.703365 0.109184 0.377757 0.263056
H47   H     H_    0.424861 0.945694 0.945013 0.195940
H48   H     H_    0.357525 0.892089 0.009530 0.155383
H49   H     H_    0.320381 0.824554 0.882973 0.274734
H50   H     H_    0.247687 0.763062 0.946723 0.195312
H51   H     H_    0.168091 0.932844 0.977397 0.253565
H52   H     H_    0.132896 0.893231 0.905909 0.278801
H53   H     H_    0.240312 0.994459 0.913097 0.285795
H54   H     H_    0.294666 0.081472 0.073985 0.162897
H55   H     H_    0.235446 0.146110 0.018833 0.153782
H56   H     H_    0.714157 0.819437 0.479341 0.158991
H57   H     H_    0.247223 0.217488 0.147247 0.274154
H58   H     H_    0.187149 0.292762 0.093735 0.196375
H59   H     H_    0.047114 0.146705 0.080068 0.266517
H60   H     H_    0.041941 0.189182 0.154949 0.277169
H61   H     H_    0.107415 0.070242 0.133570 0.272457
H62   H     H_    0.737839 0.568508 0.819256 0.138265
H63   H     H_    0.773541 0.516343 0.747035 0.190831
H64   H     H_    0.811193 0.414702 0.863572 0.225742
H65   H     H_    0.835668 0.354623 0.792964 0.254232
H66   H     H_    0.972614 0.502160 0.760862 0.313612
H67   H     H_    0.730516 0.009275 0.477658 0.138749
H68   H     H_    0.011403 0.435852 0.823766 0.256936
H69   H     H_    0.949786 0.560477 0.832488 0.266063
H70   H     H_    0.686472 0.394460 0.147223 0.152073
H71   H     H_    0.771901 0.416043 0.207552 0.154032
H72   H     H_    0.802304 0.530843 0.089545 0.231780
H73   H     H_    0.886942 0.553267 0.149237 0.241733
H74   H     H_    0.943864 0.368674 0.142198 0.274577
H75   H     H_    0.977735 0.437294 0.074275 0.264818
H76   H     H_    0.858647 0.345740 0.082321 0.276158
H77   H     H_    0.268964 0.990861 0.524913 0.141674
H78   H     H_    0.327426 0.818016 0.161087 0.189611
N1    N     N_R   0.465638 0.474710 0.147416 -0.317435
N2    N     N_R   0.454619 0.531849 0.856110 -0.315549
N3    N     N_R   0.207800 0.519350 0.510590 -0.228065
N4    N     N_R   0.792200 0.480650 0.489410 -0.216936
O1    O     O_R   0.421690 0.658830 0.502820 -0.626320
O2    O     O_2   0.494557 0.711469 0.863400 -0.519060
O3    O     O_2   0.487166 0.655702 0.160235 -0.503852
O4    O     O_2   0.413652 0.352787 0.844495 -0.510169
O5    O     O_3   0.411163 0.778397 0.083072 -0.596402
O6    O     O_3   0.311796 0.247113 0.934250 -0.607278
O7    O     O_3   0.199519 0.528795 0.407887 -0.496288
O8    O     O_3   0.798884 0.552327 0.584304 -0.519515
O9    O     O_3   0.205681 0.494509 0.613945 -0.523764
O10   O     O_3   0.784654 0.420357 0.392107 -0.535998
O11   O     O_3   0.471683 0.800064 0.962223 -0.568652
O12   O     O_R   0.578310 0.341170 0.497180 -0.625447
O13   O     O_3   0.384031 0.212985 0.045200 -0.568102
O14   O     O_3   0.641555 0.437694 0.798177 -0.580352
O15   O     O_3   0.674093 0.538040 0.189403 -0.566338
O16   O     O_R   0.609320 0.646410 0.496030 -0.643468
O17   O     O_R   0.390680 0.353590 0.503970 -0.629484
O18   O     O_R   0.406170 0.506240 0.587240 -0.535595
O19   O     O_R   0.593830 0.493760 0.412760 -0.528088
O20   O     O_R   0.593790 0.493820 0.580450 -0.531989
O21   O     O_R   0.406210 0.506180 0.419550 -0.544452
O22   O     O_2   0.450644 0.293327 0.137439 -0.522706
Zn1   Zn    Zn3+2 0.374720 0.508290 0.504530 1.031195
Zn2   Zn    Zn3+2 0.625280 0.491710 0.495470 1.034852

loop_
_geom_bond_atom_site_label_1
_geom_bond_atom_site_label_2
_ccdc_geom_bond_type
C71   H63   S    
C26   N3    A    
C34   C56   A    
C23   C45   A    
C73   H66   S    
C3    H1    S    
C1    C8    S    
C47   H5    S    
C14   C18   A    
C68   H54   S    
C58   O9    S    
C30   N2    A    
C75   C76   S    
C49   C50   S    
O19   Zn2   S    
C76   H75   S    
C74   O15   S    
C15   C19   A    
C67   C78   A    
C52   H18   S    
C70   H59   S    
C61   H40   S    
C36   C37   A    
C35   C37   A    
C17   O21   A    
O12   Zn2   S    
C52   H19   S    
C12   O17   A    
C61   C62   S    
C1    O1    A    
C53   H20   S    
C69   H57   S    
C33   C36   A    
C74   H70   S    
C34   O15   S    
C18   C19   A    
C46   C47   S    
C63   H46   S    
C15   H23   S    
C51   O7    S    
C29   N1    A    
C70   H60   S    
C48   O6    S    
C2    F6    S    
C53   H22   S    
C9    C19   A    
C76   H76   S    
C64   H48   S    
C17   O19   A    
C68   C69   S    
C14   H34   S    
C29   C38   A    
C45   C67   A    
N3    Zn1   S    
C31   C33   A    
C49   H10   S    
C65   H50   S    
C75   H73   S    
C40   C42   A    
C21   C27   A    
C59   C60   S    
C59   H33   S    
C4    H12   S    
C58   H32   S    
C41   C43   A    
C69   C70   S    
C61   O10   S    
C44   H78   S    
C44   H2    S    
O17   Zn1   S    
C44   C46   S    
C39   C42   A    
C46   H4    S    
C7    C12   S    
O1    Zn1   S    
C41   O6    S    
C31   N1    A    
C50   H14   S    
C33   C40   A    
C74   C75   S    
C51   C52   S    
C5    N2    S    
C75   H72   S    
O16   Zn2   S    
C4    C6    A    
C48   H9    S    
C62   H42   S    
C57   H29   S    
C31   O3    S    
C26   O7    S    
C58   C59   S    
C72   H64   S    
C56   C77   A    
C6    C34   A    
C54   H25   S    
N4    Zn2   S    
C22   N4    A    
C71   O14   S    
O20   Zn2   S    
C2    C4    A    
C11   H56   S    
C32   C35   A    
C62   C63   S    
C76   H74   S    
C5    C23   A    
C64   H47   S    
C43   O13   S    
C17   C77   S    
C50   H15   S    
C16   C67   S    
C49   H11   S    
C60   H38   S    
C9    C11   A    
C23   O14   S    
C70   H61   S    
C66   H52   S    
C48   C49   S    
C20   C22   A    
C65   C66   S    
C10   H77   S    
C55   C57   S    
C73   H68   S    
C58   H31   S    
C47   H6    S    
C8    C14   A    
C51   H17   S    
C52   C53   S    
C46   H3    S    
C51   H16   S    
C32   O4    S    
C54   C55   S    
C9    H67   S    
C50   H13   S    
C59   H35   S    
C20   F1    S    
C55   H27   S    
C47   H7    S    
C45   F3    S    
C63   H44   S    
C72   C73   S    
C3    C5    A    
C10   C13   A    
C78   F5    S    
C62   H41   S    
C22   O10   S    
C1    O16   A    
C16   O18   A    
C56   F4    S    
C57   H30   S    
C25   N4    A    
C25   C27   A    
C20   C28   A    
C68   O13   S    
C26   C28   A    
C29   O22   S    
C54   H24   S    
C61   H39   S    
C64   C65   S    
C54   O8    S    
C36   C38   A    
C24   N3    A    
C69   H58   S    
C44   O5    S    
C30   O2    S    
C38   C43   A    
C55   H26   S    
C2    C77   A    
C16   O20   A    
C64   O11   S    
C3    C78   A    
C66   H53   S    
C10   C18   A    
C8    C11   A    
C32   N2    A    
C21   F2    S    
C7    C15   A    
C30   C39   A    
C60   H36   S    
C60   H37   S    
C35   C41   A    
C63   H43   S    
O21   Zn1   S    
C66   H51   S    
C57   H28   S    
C53   H21   S    
C7    C13   A    
C71   H62   S    
C71   C72   S    
C6    N1    S    
C37   C39   A    
C72   H65   S    
C48   H8    S    
C21   C24   A    
C73   H69   S    
C27   C28   A    
C13   H45   S    
O18   Zn1   S    
C68   H55   S    
C25   O8    S    
C42   O11   S    
C12   O12   A    
C24   O9    S    
C74   H71   S    
C40   O5    S    
C65   H49   S    
