data_mof_unit_62733.cif
_audit_creation_date              2012-12-10T18:22:26-0500
_audit_creation_method            fapswitch 2.2
_symmetry_space_group_name_H-M    P1
_symmetry_Int_Tables_number       1
_space_group_crystal_system       triclinic
_cell_length_a                    47.953933
_cell_length_b                    35.665387
_cell_length_c                    31.989635
_cell_angle_alpha                 90.000027
_cell_angle_beta                  132.21065
_cell_angle_gamma                 89.999984
_cell_volume                      40523.8701335

loop_
_atom_site_label
_atom_site_type_symbol
_atom_type_description
_atom_site_fract_x
_atom_site_fract_y
_atom_site_fract_z
_atom_type_partial_charge
C1    C     C_R   0.072383 0.000025 0.572442 0.975060
C2    C     C_R   0.927617 0.000025 0.427558 0.975060
C3    C     C_R   0.572383 0.500025 0.572442 0.975061
C4    C     C_R   0.427617 0.500025 0.427558 0.975060
C5    C     C_3   0.961592 0.008660 0.186801 0.292718
C6    C     C_3   0.038408 0.008660 0.813199 0.292716
C7    C     C_3   0.461592 0.508661 0.186802 0.292718
C8    C     C_3   0.538409 0.508652 0.813200 0.292712
C9    C     C_3   0.960729 0.006174 0.234492 0.495945
C10   C     C_3   0.039271 0.006174 0.765508 0.495949
C11   C     C_3   0.460730 0.506175 0.234492 0.495948
C12   C     C_3   0.539271 0.506167 0.765509 0.495951
C13   C     C_1   0.001167 0.000756 0.163718 0.229934
C14   C     C_1   0.998833 0.000756 0.836282 0.229934
C15   C     C_1   0.501167 0.500756 0.163718 0.229935
C16   C     C_1   0.498833 0.500756 0.836282 0.229932
C17   C     C_1   0.001015 0.001101 0.338600 0.201698
C18   C     C_1   0.998985 0.001101 0.661400 0.201699
C19   C     C_1   0.501015 0.501101 0.338600 0.201693
C20   C     C_1   0.498984 0.501102 0.661399 0.201705
C21   C     C_1   0.000627 0.000255 0.375854 0.008646
C22   C     C_1   0.999372 0.000255 0.624146 0.008647
C23   C     C_1   0.500628 0.500255 0.375854 0.008643
C24   C     C_1   0.499372 0.500255 0.624145 0.008649
C25   C     C_R   0.329882 0.966831 0.845779 0.671105
C26   C     C_R   0.670118 0.966831 0.154221 0.671104
C27   C     C_R   0.829882 0.466831 0.845779 0.671106
C28   C     C_R   0.170118 0.466831 0.154221 0.671105
C29   C     C_R   0.368825 0.970138 0.884102 -0.297753
C30   C     C_R   0.631175 0.970138 0.115898 -0.297752
C31   C     C_R   0.868825 0.470138 0.884102 -0.297753
C32   C     C_R   0.131175 0.470138 0.115898 -0.297753
C33   C     C_R   0.386119 0.002304 0.885429 -0.264876
C34   C     C_R   0.613881 0.002304 0.114571 -0.264877
C35   C     C_R   0.886119 0.502304 0.885429 -0.264877
C36   C     C_R   0.113881 0.502304 0.114571 -0.264876
C37   C     C_R   0.363572 0.032759 0.848078 0.321195
C38   C     C_R   0.636428 0.032759 0.151922 0.321197
C39   C     C_R   0.863572 0.532759 0.848078 0.321197
C40   C     C_R   0.136428 0.532759 0.151922 0.321195
C41   C     C_R   0.323706 0.031148 0.814455 0.268288
C42   C     C_R   0.676293 0.031148 0.185545 0.268287
C43   C     C_R   0.823706 0.531148 0.814455 0.268288
C44   C     C_R   0.176293 0.531148 0.185545 0.268288
C45   C     C_R   0.000185 0.000026 0.420173 0.873385
C46   C     C_R   0.999815 0.000026 0.579827 0.873385
C47   C     C_R   0.500185 0.500026 0.420173 0.873385
C48   C     C_R   0.499815 0.500026 0.579827 0.873385
C49   C     C_R   0.307191 0.996865 0.810770 -0.228464
C50   C     C_R   0.692809 0.996865 0.189230 -0.228463
C51   C     C_R   0.807191 0.496865 0.810769 -0.228465
C52   C     C_R   0.192809 0.496865 0.189230 -0.228464
C53   C     C_1   0.266820 0.991647 0.770091 0.262948
C54   C     C_1   0.733179 0.991647 0.229909 0.262950
C55   C     C_1   0.766820 0.491647 0.770090 0.262948
C56   C     C_1   0.233180 0.491647 0.229909 0.262948
C57   C     C_1   0.232979 0.988437 0.735482 0.293614
C58   C     C_1   0.767020 0.988437 0.264518 0.293615
C59   C     C_1   0.732980 0.488437 0.735481 0.293614
C60   C     C_1   0.267020 0.488437 0.264518 0.293614
C61   C     C_R   0.172260 0.986406 0.711696 0.291669
C62   C     C_R   0.827740 0.986406 0.288304 0.291668
C63   C     C_R   0.672260 0.486405 0.711695 0.291669
C64   C     C_R   0.327740 0.486406 0.288304 0.291668
C65   C     C_R   0.133470 0.995906 0.672744 0.271589
C66   C     C_R   0.866529 0.995906 0.327256 0.271590
C67   C     C_R   0.633471 0.495905 0.672744 0.271594
C68   C     C_R   0.366529 0.495906 0.327256 0.271589
C69   C     C_R   0.114123 0.999638 0.614643 -0.344475
C70   C     C_R   0.885877 0.999638 0.385357 -0.344474
C71   C     C_R   0.614123 0.499638 0.614642 -0.344474
C72   C     C_R   0.385877 0.499638 0.385357 -0.344473
C73   C     C_R   0.134103 0.998347 0.596295 0.262466
C74   C     C_R   0.865897 0.998346 0.403705 0.262466
C75   C     C_R   0.634103 0.498347 0.596294 0.262464
C76   C     C_R   0.365897 0.498347 0.403705 0.262468
C77   C     C_R   0.173085 0.989332 0.635872 0.313421
C78   C     C_R   0.826915 0.989332 0.364128 0.313422
C79   C     C_R   0.673085 0.489333 0.635872 0.313422
C80   C     C_R   0.326915 0.489332 0.364127 0.313421
C81   C     C_R   0.192203 0.986586 0.693679 -0.242974
C82   C     C_R   0.807797 0.986586 0.306321 -0.242975
C83   C     C_R   0.692203 0.486585 0.693678 -0.242975
C84   C     C_R   0.307797 0.486586 0.306321 -0.242974
C85   C     C_R   1.000000 0.072144 1.000000 0.947566
C86   C     C_R   0.500000 0.572144 1.000000 0.947566
C87   C     C_3   0.026523 0.035080 0.301353 -0.024837
C88   C     C_3   0.973477 0.035080 0.698647 -0.024836
C89   C     C_3   0.526524 0.535079 0.301354 -0.024841
C90   C     C_3   0.473483 0.535084 0.698653 -0.024830
C91   C     C_R   0.000134 0.999785 0.080220 0.846714
C92   C     C_R   0.999866 0.999785 0.919780 0.846716
C93   C     C_R   0.500134 0.499785 0.080220 0.846715
C94   C     C_R   0.499866 0.499785 0.919780 0.846715
C95   C     C_R   0.000000 0.927538 0.000000 0.764787
C96   C     C_R   0.500000 0.427538 0.000000 0.764786
C97   C     C_R   0.500000 0.927628 1.000000 0.826400
C98   C     C_R   0.000000 0.427628 1.000000 0.826400
C99   C     C_R   0.427694 0.002655 0.927441 0.912092
C100  C     C_R   0.572306 0.002655 0.072559 0.912091
C101  C     C_R   0.927694 0.502655 0.927441 0.912092
C102  C     C_R   0.072306 0.502655 0.072559 0.912091
C103  C     C_R   0.500000 0.072644 0.000000 0.901542
C104  C     C_R   0.000000 0.572644 0.000000 0.901542
C105  C     C_R   0.500160 0.826789 0.962274 0.607839
C106  C     C_R   0.499840 0.826789 0.037725 0.607838
C107  C     C_R   0.000160 0.326789 0.962274 0.607838
C108  C     C_R   0.999840 0.326789 0.037725 0.607838
C109  C     C_R   0.500160 0.866020 0.962291 -0.228896
C110  C     C_R   0.499840 0.866020 0.037708 -0.228895
C111  C     C_R   0.000160 0.366020 0.962291 -0.228896
C112  C     C_R   0.999840 0.366020 0.037709 -0.228895
C113  C     C_R   0.500000 0.886076 1.000000 -0.219921
C114  C     C_R   1.000000 0.386076 1.000000 -0.219920
C115  C     C_R   0.500000 0.807036 1.000000 -0.161192
C116  C     C_R   1.000000 0.307036 1.000000 -0.161192
C117  C     C_1   0.500000 0.766596 1.000000 0.177503
C118  C     C_1   1.000000 0.266596 1.000000 0.177503
C119  C     C_3   0.018615 0.964899 0.293361 0.421536
C120  C     C_3   0.981385 0.964899 0.706639 0.421535
C121  C     C_3   0.518614 0.464899 0.293360 0.421538
C122  C     C_3   0.481377 0.464902 0.706632 0.421536
C123  C     C_1   1.000000 0.232765 1.000000 0.083216
C124  C     C_1   0.500000 0.732765 1.000000 0.083216
C125  C     C_R   0.996651 0.172768 0.959006 -0.174436
C126  C     C_R   0.003349 0.172768 0.040994 -0.174435
C127  C     C_R   0.496650 0.672768 0.959005 -0.174434
C128  C     C_R   0.503350 0.672768 0.040994 -0.174436
C129  C     C_R   0.996538 0.133454 0.958430 0.327602
C130  C     C_R   0.003462 0.133454 0.041570 0.327601
C131  C     C_R   0.496537 0.633454 0.958430 0.327603
C132  C     C_R   0.503462 0.633454 0.041570 0.327603
C133  C     C_R   1.000000 0.113468 1.000000 -0.247116
C134  C     C_R   0.500000 0.613468 1.000000 -0.247117
C135  C     C_R   1.000000 0.192358 1.000000 -0.018037
C136  C     C_R   0.500000 0.692358 1.000000 -0.018038
C137  C     C_R   0.483566 0.174129 0.016369 -0.154585
C138  C     C_R   0.516434 0.174129 0.983631 -0.154586
C139  C     C_R   0.983566 0.674130 0.016369 -0.154586
C140  C     C_R   0.016434 0.674130 0.983631 -0.154586
C141  C     C_R   0.482854 0.134908 0.016195 0.382183
C142  C     C_R   0.517146 0.134908 0.983805 0.382184
C143  C     C_R   0.982854 0.634908 0.016195 0.382183
C144  C     C_R   0.017146 0.634908 0.983805 0.382184
C145  C     C_R   0.500000 0.114383 0.000000 -0.307289
C146  C     C_R   0.000000 0.614383 0.000000 -0.307289
C147  C     C_R   0.500000 0.193506 0.000000 -0.036036
C148  C     C_R   0.000000 0.693506 0.000000 -0.036035
C149  C     C_1   0.500000 0.233692 0.000000 0.061663
C150  C     C_1   0.000000 0.733692 0.000000 0.061663
C151  C     C_3   0.015206 0.962970 0.241612 0.438455
C152  C     C_3   0.984794 0.962971 0.758387 0.438455
C153  C     C_3   0.515205 0.462970 0.241611 0.438457
C154  C     C_3   0.484786 0.462973 0.758380 0.438456
C155  C     C_1   0.000000 0.767382 0.000000 -0.009388
C156  C     C_1   0.500000 0.267382 0.000000 -0.009388
C157  C     C_R   0.965889 0.827101 0.965973 -0.112461
C158  C     C_R   0.034110 0.827101 0.034027 -0.112461
C159  C     C_R   0.465889 0.327101 0.965973 -0.112462
C160  C     C_R   0.534110 0.327101 0.034027 -0.112461
C161  C     C_R   0.965846 0.866233 0.965927 -0.146803
C162  C     C_R   0.034154 0.866233 0.034073 -0.146803
C163  C     C_R   0.465846 0.366233 0.965927 -0.146804
C164  C     C_R   0.534154 0.366233 0.034073 -0.146802
C165  C     C_R   0.000000 0.886188 0.000000 -0.041806
C166  C     C_R   0.500000 0.386188 0.000000 -0.041806
C167  C     C_R   0.000000 0.807543 0.000000 0.114215
C168  C     C_R   0.500000 0.307543 0.000000 0.114215
C169  C     C_1   0.000486 0.000209 0.125367 -0.003848
C170  C     C_1   0.999514 0.000209 0.874633 -0.003849
C171  C     C_1   0.500486 0.500209 0.125367 -0.003848
C172  C     C_1   0.499514 0.500209 0.874633 -0.003851
C173  C     C_3   0.001395 0.002194 0.292910 -0.310915
C174  C     C_3   0.998605 0.002194 0.707090 -0.310916
C175  C     C_3   0.501395 0.502194 0.292910 -0.310915
C176  C     C_3   0.498605 0.502194 0.707090 -0.310920
C177  C     C_3   0.027821 0.033985 0.253590 0.050723
C178  C     C_3   0.972179 0.033985 0.746410 0.050723
C179  C     C_3   0.527822 0.533984 0.253591 0.050725
C180  C     C_3   0.472185 0.533990 0.746416 0.050724
C181  C     C_3   0.002167 0.001447 0.210834 -0.276800
C182  C     C_3   0.997833 0.001447 0.789165 -0.276799
C183  C     C_3   0.502167 0.501447 0.210834 -0.276802
C184  C     C_3   0.497832 0.501447 0.789165 -0.276800
Cu1   Cu    Cu3+1 0.000000 0.037300 0.500000 1.209680
Cu2   Cu    Cu3+1 0.500000 0.537300 0.500000 1.209682
Cu3   Cu    Cu3+1 0.000000 0.962740 0.500000 1.173513
Cu4   Cu    Cu3+1 0.500000 0.462740 0.500000 1.173515
Cu5   Cu    Cu3+1 0.037280 0.999890 0.037280 1.132016
Cu6   Cu    Cu3+1 0.962720 0.999890 0.962720 1.132016
Cu7   Cu    Cu3+1 0.537280 0.499890 0.037280 1.132014
Cu8   Cu    Cu3+1 0.462720 0.499890 0.962720 1.132016
Cu9   Cu    Cu3+1 0.500020 0.000110 0.958700 1.148173
Cu10  Cu    Cu3+1 0.499980 0.000110 0.041300 1.148173
Cu11  Cu    Cu3+1 0.000020 0.500110 0.958700 1.148173
Cu12  Cu    Cu3+1 0.999980 0.500110 0.041300 1.148173
H1    H     H_    0.015988 0.060512 0.228941 0.180467
H2    H     H_    0.984012 0.060512 0.771059 0.180467
H3    H     H_    0.515989 0.560512 0.228943 0.180467
H4    H     H_    0.484024 0.560515 0.771070 0.180467
H5    H     H_    0.385781 0.946774 0.911935 0.197071
H6    H     H_    0.614219 0.946774 0.088065 0.197071
H7    H     H_    0.885781 0.446774 0.911935 0.197071
H8    H     H_    0.114219 0.446774 0.088065 0.197071
H9    H     H_    0.055281 0.030647 0.343154 0.204685
H10   H     H_    0.944719 0.030647 0.656846 0.204685
H11   H     H_    0.555282 0.530645 0.343154 0.204686
H12   H     H_    0.444724 0.530656 0.656852 0.204685
H13   H     H_    0.500289 0.880656 0.932762 0.212781
H14   H     H_    0.499711 0.880656 0.067238 0.212781
H15   H     H_    0.000289 0.380656 0.932762 0.212781
H16   H     H_    0.999711 0.380656 0.067238 0.212781
H17   H     H_    0.994194 0.188299 0.927573 0.203540
H18   H     H_    0.005806 0.188299 0.072427 0.203539
H19   H     H_    0.494193 0.688299 0.927572 0.203540
H20   H     H_    0.505807 0.688299 0.072428 0.203539
H21   H     H_    0.471077 0.189946 0.029148 0.212373
H22   H     H_    0.528923 0.189946 0.970852 0.212373
H23   H     H_    0.971077 0.689946 0.029148 0.212373
H24   H     H_    0.028923 0.689946 0.970852 0.212373
H25   H     H_    0.939354 0.812111 0.939503 0.163427
H26   H     H_    0.060646 0.812111 0.060497 0.163427
H27   H     H_    0.439354 0.312111 0.939503 0.163426
H28   H     H_    0.560646 0.312111 0.060497 0.163427
H29   H     H_    0.939105 0.880814 0.939251 0.178225
H30   H     H_    0.060895 0.880814 0.060748 0.178225
H31   H     H_    0.439105 0.380814 0.939251 0.178225
H32   H     H_    0.560895 0.380814 0.060748 0.178225
H33   H     H_    0.048846 0.963409 0.332820 0.169813
H34   H     H_    0.951154 0.963410 0.667179 0.169814
H35   H     H_    0.548845 0.463408 0.332819 0.169814
H36   H     H_    0.451147 0.463419 0.667172 0.169813
H37   H     H_    0.994006 0.941277 0.211799 0.210606
H38   H     H_    0.005994 0.941277 0.788201 0.210607
H39   H     H_    0.494004 0.441278 0.211797 0.210606
H40   H     H_    0.505983 0.441276 0.788189 0.210606
H41   H     H_    0.947129 0.031684 0.233707 0.122167
H42   H     H_    0.052871 0.031684 0.766292 0.122166
H43   H     H_    0.447130 0.531686 0.233708 0.122166
H44   H     H_    0.552876 0.531675 0.766298 0.122173
H45   H     H_    0.952219 0.037148 0.167687 0.137896
H46   H     H_    0.047781 0.037148 0.832312 0.137896
H47   H     H_    0.452220 0.537150 0.167689 0.137897
H48   H     H_    0.547787 0.537139 0.832319 0.137891
O1    O     O_R   0.054380 0.031500 0.554380 -0.509419
O2    O     O_R   0.945620 0.031500 0.445620 -0.509420
O3    O     O_R   0.554380 0.531500 0.554380 -0.509419
O4    O     O_R   0.445620 0.531500 0.445620 -0.509420
O5    O     O_R   0.445640 0.000120 0.910750 -0.533263
O6    O     O_R   0.554360 0.000120 0.089250 -0.533261
O7    O     O_R   0.945640 0.500120 0.910750 -0.533263
O8    O     O_R   0.054360 0.500120 0.089250 -0.533262
O9    O     O_R   0.445650 0.000140 0.980530 -0.559596
O10   O     O_R   0.554350 0.000140 0.019470 -0.559597
O11   O     O_R   0.945650 0.500140 0.980530 -0.559596
O12   O     O_R   0.054350 0.500140 0.019470 -0.559597
O13   O     O_R   0.499990 0.054510 0.965080 -0.517870
O14   O     O_R   0.500010 0.054510 0.034920 -0.517869
O15   O     O_R   0.999990 0.554510 0.965080 -0.517869
O16   O     O_R   0.000010 0.554510 0.034920 -0.517869
O17   O     O_R   0.054410 0.968530 0.554410 -0.577243
O18   O     O_R   0.945590 0.968530 0.445590 -0.577243
O19   O     O_R   0.554410 0.468530 0.554410 -0.577243
O20   O     O_R   0.445590 0.468530 0.445590 -0.577243
O21   O     O_R   0.000000 0.031500 0.439720 -0.551075
O22   O     O_R   0.000000 0.031500 0.560280 -0.551074
O23   O     O_R   0.500000 0.531500 0.439720 -0.551076
O24   O     O_R   0.500000 0.531500 0.560280 -0.551072
O25   O     O_R   0.000030 0.968530 0.439750 -0.553248
O26   O     O_R   0.999970 0.968530 0.560250 -0.553248
O27   O     O_R   0.500030 0.468530 0.439750 -0.553249
O28   O     O_R   0.499970 0.468530 0.560250 -0.553245
O29   O     O_R   0.031480 0.054290 0.031480 -0.542501
O30   O     O_R   0.968520 0.054290 0.968520 -0.542501
O31   O     O_R   0.531480 0.554290 0.031480 -0.542502
O32   O     O_R   0.468520 0.554290 0.968520 -0.542500
O33   O     O_R   0.031490 0.999900 0.091770 -0.541622
O34   O     O_R   0.968510 0.999900 0.908230 -0.541622
O35   O     O_R   0.531490 0.499900 0.091770 -0.541621
O36   O     O_R   0.468510 0.499900 0.908230 -0.541621
O37   O     O_R   0.968550 0.999920 0.028830 -0.566405
O38   O     O_R   0.031450 0.999920 0.971170 -0.566404
O39   O     O_R   0.468550 0.499920 0.028830 -0.566405
O40   O     O_R   0.531450 0.499920 0.971170 -0.566406
O41   O     O_R   0.031500 0.945500 0.031490 -0.589324
O42   O     O_R   0.968500 0.945500 0.968510 -0.589324
O43   O     O_R   0.531500 0.445500 0.031490 -0.589324
O44   O     O_R   0.468500 0.445500 0.968510 -0.589325
O45   O     O_R   0.500040 0.945720 0.965170 -0.589310
O46   O     O_R   0.499960 0.945720 0.034830 -0.589308
O47   O     O_R   0.000040 0.445720 0.965170 -0.589309
O48   O     O_R   0.999960 0.445720 0.034830 -0.589308
S1    S     S_3+6 0.076093 0.033292 0.283847 0.127532
O49   O     O_2   0.098643 0.004224 0.329582 -0.161284
O50   O     O_2   0.078140 0.025359 0.239832 -0.199693
O51   O     O_3   0.095513 0.075488 0.312505 -0.421368
H49   H     H_    0.081154 0.093138 0.280219 0.374869
S2    S     S_3+6 0.923907 0.033292 0.716153 0.127532
O52   O     O_2   0.901357 0.004224 0.670418 -0.161284
O53   O     O_2   0.921860 0.025360 0.760168 -0.199693
O54   O     O_3   0.904486 0.075488 0.687495 -0.421368
H50   H     H_    0.918846 0.093138 0.719781 0.374869
S3    S     S_3+6 0.576094 0.533290 0.283848 0.127531
O55   O     O_2   0.598643 0.504221 0.329582 -0.161283
O56   O     O_2   0.578141 0.525357 0.239833 -0.199695
O57   O     O_3   0.595515 0.575486 0.312507 -0.421369
H51   H     H_    0.581157 0.593136 0.280222 0.374870
S4    S     S_3+6 0.423913 0.533307 0.716160 0.127539
O58   O     O_2   0.401357 0.504243 0.670419 -0.161288
O59   O     O_2   0.421864 0.525373 0.760173 -0.199683
O60   O     O_3   0.404501 0.575507 0.687511 -0.421366
H52   H     H_    0.418863 0.593153 0.719801 0.374870
S5    S     S_3+6 0.013098 0.081318 0.305956 0.050920
O61   O     O_2   0.043443 0.108605 0.324494 -0.145077
O62   O     O_2   0.976888 0.093699 0.249401 -0.298289
O63   O     O_3   0.008505 0.082348 0.353660 -0.463400
H53   H     H_    0.981056 0.081333 0.331329 0.353959
S6    S     S_3+6 0.986902 0.081318 0.694044 0.050919
O64   O     O_2   0.956557 0.108605 0.675506 -0.145076
O65   O     O_2   0.023112 0.093699 0.750599 -0.298289
O66   O     O_3   0.991495 0.082348 0.646340 -0.463401
H54   H     H_    0.018944 0.081334 0.668670 0.353960
S7    S     S_3+6 0.513100 0.581317 0.305958 0.050921
O67   O     O_2   0.543446 0.608604 0.324496 -0.145077
O68   O     O_2   0.476890 0.593699 0.249403 -0.298287
O69   O     O_3   0.508508 0.582348 0.353662 -0.463392
H55   H     H_    0.481059 0.581331 0.331333 0.353954
S8    S     S_3+6 0.486915 0.581320 0.694058 0.050921
O70   O     O_2   0.456576 0.608613 0.675528 -0.145072
O71   O     O_2   0.523129 0.593694 0.750614 -0.298293
O72   O     O_3   0.491505 0.582350 0.646351 -0.463406
H56   H     H_    0.518954 0.581333 0.668679 0.353963
F1    F     F_    0.936333 0.983245 0.144211 -0.553996
F2    F     F_    0.063667 0.983245 0.855789 -0.553995
F3    F     F_    0.436333 0.483247 0.144211 -0.553996
F4    F     F_    0.563663 0.483233 0.855785 -0.553998
F5    F     F_    0.314212 0.934272 0.843504 -0.578787
F6    F     F_    0.685788 0.934271 0.156496 -0.578787
F7    F     F_    0.814212 0.434271 0.843504 -0.578787
F8    F     F_    0.185788 0.434272 0.156495 -0.578787
S9    S     S_3+6 0.384466 0.071854 0.842470 0.092305
O73   O     O_2   0.357147 0.088524 0.784298 -0.174079
O74   O     O_2   0.395086 0.101173 0.884733 -0.225686
O75   O     O_3   0.423025 0.060151 0.853962 -0.503769
H57   H     H_    0.433859 0.084305 0.855430 0.389295
S10   S     S_3+6 0.615533 0.071854 0.157530 0.092304
O76   O     O_2   0.642853 0.088524 0.215702 -0.174080
O77   O     O_2   0.604914 0.101173 0.115267 -0.225686
O78   O     O_3   0.576974 0.060151 0.146037 -0.503769
H58   H     H_    0.566141 0.084305 0.144570 0.389294
S11   S     S_3+6 0.884466 0.571854 0.842470 0.092304
O79   O     O_2   0.857147 0.588524 0.784298 -0.174080
O80   O     O_2   0.895086 0.601173 0.884733 -0.225686
O81   O     O_3   0.923026 0.560151 0.853962 -0.503770
H59   H     H_    0.933859 0.584305 0.855430 0.389295
S12   S     S_3+6 0.115533 0.571854 0.157530 0.092305
O82   O     O_2   0.142853 0.588524 0.215702 -0.174079
O83   O     O_2   0.104914 0.601173 0.115267 -0.225686
O84   O     O_3   0.076975 0.560151 0.146038 -0.503769
H60   H     H_    0.066141 0.584305 0.144570 0.389294
S13   S     S_3+6 0.294124 0.071542 0.779192 0.114590
O85   O     O_2   0.280031 0.073362 0.720739 -0.191638
O86   O     O_2   0.260908 0.069139 0.774740 -0.265378
O87   O     O_3   0.317427 0.111240 0.814251 -0.412044
H61   H     H_    0.300137 0.131777 0.788714 0.396091
S14   S     S_3+6 0.705876 0.071542 0.220808 0.114591
O88   O     O_2   0.719969 0.073362 0.279261 -0.191638
O89   O     O_2   0.739092 0.069139 0.225260 -0.265378
O90   O     O_3   0.682573 0.111240 0.185750 -0.412043
H62   H     H_    0.699863 0.131777 0.211287 0.396091
S15   S     S_3+6 0.794124 0.571542 0.779192 0.114591
O91   O     O_2   0.780031 0.573362 0.720738 -0.191638
O92   O     O_2   0.760908 0.569139 0.774739 -0.265378
O93   O     O_3   0.817426 0.611240 0.814250 -0.412044
H63   H     H_    0.800137 0.631777 0.788713 0.396091
S16   S     S_3+6 0.205876 0.571542 0.220808 0.114591
O94   O     O_2   0.219969 0.573362 0.279261 -0.191638
O95   O     O_2   0.239092 0.569139 0.225260 -0.265378
O96   O     O_3   0.182573 0.611240 0.185749 -0.412044
H64   H     H_    0.199863 0.631777 0.211286 0.396091
S17   S     S_3+6 0.195811 0.970399 0.781513 0.125248
O97   O     O_2   0.227152 0.943885 0.801920 -0.224315
O98   O     O_2   0.212146 0.003567 0.820584 -0.201932
O99   O     O_3   0.165878 0.947373 0.783022 -0.406406
H65   H     H_    0.180271 0.942867 0.823558 0.404295
S18   S     S_3+6 0.804189 0.970399 0.218487 0.125247
O100  O     O_2   0.772848 0.943885 0.198079 -0.224315
O101  O     O_2   0.787854 0.003567 0.179416 -0.201932
O102  O     O_3   0.834122 0.947373 0.216978 -0.406406
H66   H     H_    0.819729 0.942867 0.176441 0.404295
S19   S     S_3+6 0.695811 0.470396 0.781512 0.125247
O103  O     O_2   0.727152 0.443883 0.801918 -0.224314
O104  O     O_2   0.712146 0.503564 0.820584 -0.201934
O105  O     O_3   0.665878 0.447370 0.783019 -0.406409
H67   H     H_    0.680271 0.442864 0.823556 0.404294
S20   S     S_3+6 0.304189 0.470399 0.218487 0.125248
O106  O     O_2   0.272848 0.443885 0.198080 -0.224314
O107  O     O_2   0.287854 0.503567 0.179416 -0.201933
O108  O     O_3   0.334122 0.447372 0.216978 -0.406407
H68   H     H_    0.319729 0.442868 0.176442 0.404295
S21   S     S_3+6 0.109171 0.006510 0.695864 0.086460
O109  O     O_2   0.087043 0.972682 0.687009 -0.231889
O110  O     O_2   0.135734 0.017665 0.756975 -0.162256
O111  O     O_3   0.079560 0.042626 0.658593 -0.536005
H69   H     H_    0.069660 0.048619 0.676784 0.357224
S22   S     S_3+6 0.890829 0.006510 0.304135 0.086460
O112  O     O_2   0.912957 0.972682 0.312991 -0.231889
O113  O     O_2   0.864266 0.017665 0.243025 -0.162255
O114  O     O_3   0.920440 0.042626 0.341407 -0.536003
H70   H     H_    0.930340 0.048619 0.323216 0.357223
S23   S     S_3+6 0.609171 0.506508 0.695864 0.086455
O115  O     O_2   0.587043 0.472680 0.687008 -0.231891
O116  O     O_2   0.635735 0.517662 0.756976 -0.162264
O117  O     O_3   0.579560 0.542624 0.658594 -0.536006
H71   H     H_    0.569661 0.548617 0.676786 0.357220
S24   S     S_3+6 0.390829 0.506510 0.304135 0.086461
O118  O     O_2   0.412957 0.472682 0.312991 -0.231888
O119  O     O_2   0.364266 0.517665 0.243025 -0.162255
O120  O     O_3   0.420440 0.542626 0.341407 -0.536005
H72   H     H_    0.430340 0.548619 0.323216 0.357224
S25   S     S_3+6 0.110331 0.010356 0.524759 0.078249
O121  O     O_2   0.092289 0.975630 0.489056 -0.278768
O122  O     O_2   0.080408 0.039214 0.502545 -0.278457
O123  O     O_3   0.139816 0.028660 0.518760 -0.395324
H73   H     H_    0.124663 0.030799 0.477604 0.395868
S26   S     S_3+6 0.889668 0.010356 0.475241 0.078248
O124  O     O_2   0.907711 0.975630 0.510944 -0.278768
O125  O     O_2   0.919591 0.039214 0.497455 -0.278457
O126  O     O_3   0.860184 0.028660 0.481240 -0.395325
H74   H     H_    0.875337 0.030798 0.522396 0.395869
S27   S     S_3+6 0.610331 0.510358 0.524758 0.078248
O127  O     O_2   0.592289 0.475632 0.489055 -0.278771
O128  O     O_2   0.580408 0.539215 0.502545 -0.278454
O129  O     O_3   0.639816 0.528663 0.518760 -0.395324
H75   H     H_    0.624663 0.530801 0.477604 0.395870
S28   S     S_3+6 0.389668 0.510356 0.475241 0.078246
O130  O     O_2   0.407711 0.475630 0.510944 -0.278765
O131  O     O_2   0.419591 0.539214 0.497455 -0.278463
O132  O     O_3   0.360184 0.528661 0.481240 -0.395327
H76   H     H_    0.375337 0.530799 0.522396 0.395865
S29   S     S_3+6 0.198202 0.977691 0.614468 0.118707
O133  O     O_2   0.172703 0.959739 0.557090 -0.159502
O134  O     O_2   0.215071 0.012819 0.613472 -0.186317
O135  O     O_3   0.233042 0.947145 0.660113 -0.517375
H77   H     H_    0.248408 0.946190 0.649772 0.393338
S30   S     S_3+6 0.801798 0.977691 0.385532 0.118706
O136  O     O_2   0.827298 0.959739 0.442910 -0.159505
O137  O     O_2   0.784929 0.012819 0.386528 -0.186315
O138  O     O_3   0.766958 0.947145 0.339887 -0.517376
H78   H     H_    0.751593 0.946189 0.350230 0.393339
S31   S     S_3+6 0.698202 0.477693 0.614467 0.118708
O139  O     O_2   0.672702 0.459741 0.557088 -0.159502
O140  O     O_2   0.715070 0.512822 0.613471 -0.186316
O141  O     O_3   0.733042 0.447147 0.660111 -0.517374
H79   H     H_    0.748408 0.446193 0.649770 0.393337
S32   S     S_3+6 0.301798 0.477692 0.385532 0.118707
O142  O     O_2   0.327297 0.459739 0.442910 -0.159502
O143  O     O_2   0.284929 0.512820 0.386528 -0.186318
O144  O     O_3   0.266958 0.447145 0.339887 -0.517374
H80   H     H_    0.251592 0.446190 0.350228 0.393337
F9    F     F_    0.500317 0.808118 0.925446 -0.606237
F10   F     F_    0.499683 0.808118 0.074554 -0.606237
F11   F     F_    0.000316 0.308118 0.925446 -0.606237
F12   F     F_    0.999683 0.308118 0.074554 -0.606237
S33   S     S_3+6 0.992686 0.110042 0.905884 0.026752
O145  O     O_2   0.027329 0.086679 0.933883 -0.259997
O146  O     O_2   0.958854 0.084728 0.872193 -0.283824
O147  O     O_3   0.988602 0.140793 0.862146 -0.467502
H81   H     H_    0.962075 0.149335 0.836343 0.364685
S34   S     S_3+6 0.007314 0.110042 0.094115 0.026752
O148  O     O_2   0.972671 0.086679 0.066117 -0.259997
O149  O     O_2   0.041146 0.084728 0.127807 -0.283824
O150  O     O_3   0.011397 0.140793 0.137854 -0.467502
H82   H     H_    0.037925 0.149335 0.163657 0.364685
S35   S     S_3+6 0.492685 0.610042 0.905883 0.026752
O151  O     O_2   0.527328 0.586679 0.933881 -0.260001
O152  O     O_2   0.458852 0.584728 0.872192 -0.283813
O153  O     O_3   0.488601 0.640792 0.862144 -0.467511
H83   H     H_    0.462073 0.649334 0.836341 0.364685
S36   S     S_3+6 0.507315 0.610042 0.094116 0.026753
O154  O     O_2   0.472672 0.586679 0.066118 -0.259997
O155  O     O_2   0.541147 0.584728 0.127808 -0.283823
O156  O     O_3   0.511399 0.640793 0.137855 -0.467502
H84   H     H_    0.537926 0.649335 0.163658 0.364686
S37   S     S_3+6 0.459738 0.113850 0.036339 0.071629
O157  O     O_2   0.434302 0.082666 0.996595 -0.239469
O158  O     O_2   0.488904 0.098407 0.095085 -0.253817
O159  O     O_3   0.433730 0.145843 0.035841 -0.495008
H85   H     H_    0.422830 0.132115 0.048907 0.401402
S38   S     S_3+6 0.540262 0.113850 0.963661 0.071628
O160  O     O_2   0.565698 0.082666 0.003405 -0.239470
O161  O     O_2   0.511096 0.098407 0.904915 -0.253817
O162  O     O_3   0.566270 0.145843 0.964159 -0.495010
H86   H     H_    0.577170 0.132115 0.951093 0.401403
S39   S     S_3+6 0.959738 0.613850 0.036339 0.071628
O163  O     O_2   0.934302 0.582666 0.996595 -0.239469
O164  O     O_2   0.988904 0.598407 0.095085 -0.253817
O165  O     O_3   0.933730 0.645843 0.035841 -0.495009
H87   H     H_    0.922830 0.632115 0.048907 0.401402
S40   S     S_3+6 0.040262 0.613850 0.963661 0.071628
O166  O     O_2   0.065698 0.582666 0.003405 -0.239470
O167  O     O_2   0.011096 0.598407 0.904915 -0.253817
O168  O     O_3   0.066270 0.645843 0.964159 -0.495010
H88   H     H_    0.077170 0.632115 0.951093 0.401403
F13   F     F_    0.000933 0.934026 0.293199 -0.541750
F14   F     F_    0.999067 0.934026 0.706801 -0.541749
F15   F     F_    0.500931 0.434027 0.293197 -0.541751
F16   F     F_    0.499054 0.434027 0.706788 -0.541749
F17   F     F_    0.048954 0.951605 0.258015 -0.577107
F18   F     F_    0.951046 0.951605 0.741985 -0.577107
F19   F     F_    0.548953 0.451604 0.258014 -0.577107
F20   F     F_    0.451036 0.451615 0.741975 -0.577106
F21   F     F_    0.938811 0.976030 0.225071 -0.486392
F22   F     F_    0.061188 0.976030 0.774928 -0.486392
F23   F     F_    0.438811 0.476031 0.225071 -0.486393
F24   F     F_    0.561183 0.476018 0.774923 -0.486393

loop_
_geom_bond_atom_site_label_1
_geom_bond_atom_site_label_2
_ccdc_geom_bond_type
Cu2   O23   S    
C10   C174  S    
S19   O105  S    
C88   S6    S    
O144  H80   S    
C55   C59   T    
S23   O116  D    
C122  C154  S    
S39   O163  D    
C14   C170  T    
S36   O154  D    
S3    O56   D    
O54   H50   S    
C39   S11   S    
S20   O107  D    
C58   C82   S    
C98   C114  S    
C152  H38   S    
C8    H48   S    
C90   C176  S    
S33   O147  S    
C85   O30   A    
C87   H9    S    
S30   O138  S    
C94   C172  S    
C132  S36   S    
C125  H17   S    
C86   C134  S    
C92   C170  S    
C76   S28   S    
C70   C74   A    
O69   H55   S    
C179  C183  S    
Cu9   Cu10  S    
S16   O96   S    
C141  C145  A    
C125  C135  A    
C45   O21   A    
S18   O101  D    
Cu11  O12   S    
C157  C167  A    
C100  O10   A    
C41   C49   A    
C14   C182  S    
C17   C173  S    
C158  C167  A    
C25   C29   A    
C30   H6    S    
S13   O87   S    
C27   C31   A    
Cu7   Cu8   S    
C89   S7    S    
C28   C32   A    
C127  C136  A    
Cu9   O45   S    
C62   C66   A    
S29   O135  S    
C12   F24   S    
Cu3   O17   S    
S12   O84   S    
C17   C21   T    
O63   H53   S    
C104  O15   A    
C19   C23   T    
S35   O152  D    
C162  C165  A    
C77   S29   S    
C78   C82   A    
S3    O55   D    
C78   S30   S    
C68   C72   A    
Cu5   O38   S    
C10   F22   S    
O165  H87   S    
C154  F20   S    
C178  C182  S    
C129  C133  A    
O51   H49   S    
C160  H28   S    
C66   S22   S    
S17   O97   D    
S22   O113  D    
S18   O102  S    
S2    O52   D    
S36   O156  S    
S28   O130  D    
C131  S35   S    
C47   O23   A    
Cu5   O29   S    
S30   O137  D    
Cu6   O34   S    
S6    O66   S    
C43   S15   S    
C107  F11   S    
Cu11  O15   S    
C16   C184  S    
S1    O51   S    
C95   O42   A    
Cu10  O9    S    
C7    C183  S    
C106  C115  A    
S24   O118  D    
C26   C50   A    
C1    O1    A    
C86   O31   A    
C127  H19   S    
C66   C70   A    
C122  C176  S    
O159  H85   S    
C27   C51   A    
C116  C118  S    
C51   C55   S    
C160  C168  A    
C92   O34   A    
C127  C131  A    
C93   O35   A    
C90   S8    S    
O105  H67   S    
C119  H33   S    
C94   O36   A    
Cu11  Cu12  S    
C47   O27   A    
C61   C65   A    
C12   H44   S    
C132  C134  A    
O66   H54   S    
C123  C135  S    
O84   H60   S    
C73   C77   A    
S7    O68   D    
O114  H70   S    
C75   C79   A    
Cu8   O32   S    
C180  C184  S    
O78   H58   S    
Cu5   O41   S    
O120  H72   S    
Cu7   O43   S    
C99   O5    A    
C112  C114  A    
S21   O109  D    
S11   O81   S    
Cu1   O21   S    
S27   O128  D    
C2    O18   A    
O126  H74   S    
Cu12  O11   S    
S37   O157  D    
C6    C182  S    
C64   C68   A    
C101  O11   A    
C148  C150  S    
C49   C53   S    
Cu1   Cu3   S    
C156  C168  S    
O108  H68   S    
C91   C169  S    
C88   C174  S    
S40   O166  D    
C157  C161  A    
C62   S18   S    
O93   H63   S    
C92   O38   A    
C139  C143  A    
C64   C84   A    
S27   O127  D    
C29   C33   A    
S32   O142  D    
S17   O99   S    
Cu10  O6    S    
C9    C173  S    
O141  H79   S    
C97   O45   A    
S28   O132  S    
C4    O20   A    
C12   C176  S    
S31   O141  S    
C44   C52   A    
C13   C169  T    
C67   S23   S    
S7    O67   D    
C87   S5    S    
Cu11  O47   S    
C177  H1    S    
Cu4   O28   S    
C157  H25   S    
Cu7   O31   S    
C162  H30   S    
S4    O59   D    
C21   C45   S    
Cu12  O48   S    
C90   C180  S    
C139  C148  A    
C23   C47   S    
C30   C34   A    
C24   C48   S    
S24   O120  S    
C104  C146  S    
O111  H69   S    
S39   O164  D    
C155  C167  S    
C8    F4    S    
S34   O148  D    
C61   S17   S    
C15   C183  S    
O135  H77   S    
C33   C99   S    
C98   O48   A    
C34   C100  S    
C5    C9    S    
S1    O49   D    
C180  H4    S    
C125  C129  A    
S10   O77   D    
O156  H84   S    
S14   O90   S    
C8    C12   S    
S15   O93   S    
Cu12  O8    S    
S12   O83   D    
Cu8   O39   S    
C128  H20   S    
C90   H12   S    
C18   C174  S    
C37   S9    S    
O123  H73   S    
C120  F14   S    
C26   C30   A    
S25   O123  S    
C13   C181  S    
C150  C155  T    
C9    H41   S    
C103  O14   A    
C137  H21   S    
C80   S32   S    
S21   O111  S    
C103  C145  S    
S10   O78   S    
Cu2   O24   S    
S19   O104  D    
C105  C109  A    
C18   C22   T    
C107  C111  A    
C105  C115  A    
C76   C80   A    
S8    O70   D    
S34   O150  S    
S36   O155  D    
O168  H88   S    
S4    O60   S    
C88   C178  S    
Cu6   O37   S    
C7    H47   S    
S2    O53   D    
C61   C81   A    
C25   F5    S    
C20   C176  S    
S32   O144  S    
C177  C181  S    
C27   F7    S    
S33   O146  D    
C85   O29   A    
C91   O37   A    
S39   O165  S    
C102  O12   A    
C37   C41   A    
O153  H83   S    
C120  C174  S    
C57   C81   S    
C19   C175  S    
C107  C116  A    
S31   O139  D    
C139  H23   S    
C40   C44   A    
O75   H57   S    
C48   O28   A    
O138  H78   S    
Cu6   O30   S    
C85   C133  S    
C6    H46   S    
S31   O140  D    
C97   C113  S    
Cu1   O2    S    
C11   F23   S    
C143  C146  A    
C180  S4    S    
C177  S1    S    
C121  H35   S    
C178  S2    S    
C80   C84   A    
C131  C134  A    
Cu8   O44   S    
O129  H75   S    
O96   H64   S    
O81   H59   S    
C110  H14   S    
S4    O58   D    
S13   O86   D    
Cu4   O19   S    
Cu10  O46   S    
C50   C54   S    
C121  C153  S    
C160  C164  A    
C94   O40   A    
C147  C149  S    
C117  C124  T    
C59   C83   S    
Cu7   O40   S    
S37   O159  S    
C128  C136  A    
C54   C58   T    
C130  S34   S    
C163  H31   S    
S29   O134  D    
S26   O124  D    
C126  C130  A    
C65   S21   S    
S15   O91   D    
C151  H37   S    
C120  H34   S    
C104  O16   A    
Cu10  O14   S    
C91   O33   A    
S14   O88   D    
C126  H18   S    
S11   O79   D    
C115  C117  S    
C140  H24   S    
Cu9   O13   S    
Cu6   O42   S    
C69   C73   A    
C72   C76   A    
C62   C82   A    
C34   C38   A    
O162  H86   S    
S23   O117  S    
C152  F18   S    
C142  C145  A    
C140  C148  A    
C101  O7    A    
C3    O3    A    
S8    O72   S    
C95   C165  S    
C5    C181  S    
S28   O131  D    
C151  C181  S    
S3    O57   S    
C87   C173  S    
C74   S26   S    
C29   H5    S    
C124  C136  S    
C142  S38   S    
C163  C166  A    
S20   O106  D    
C144  C146  A    
C138  C142  A    
C53   C57   T    
C68   S24   S    
C1    C69   S    
C108  C112  A    
C63   C83   A    
S2    O54   S    
S24   O119  D    
C32   H8    S    
C35   C39   A    
O132  H76   S    
C77   C81   A    
C46   O22   A    
C15   C171  T    
Cu7   O35   S    
C41   S13   S    
C22   C46   S    
C126  C135  A    
C161  C165  A    
O117  H71   S    
C31   C35   A    
C121  F15   S    
C130  C133  A    
C89   C175  S    
C152  C182  S    
C32   C36   A    
C4    C72   S    
C33   C37   A    
C137  C141  A    
C93   C171  S    
C137  C147  A    
S40   O168  S    
C140  C144  A    
C35   C101  S    
C6    C10   S    
S11   O80   D    
C122  H36   S    
C121  C175  S    
Cu3   O18   S    
C11   C175  S    
C151  F17   S    
Cu9   O10   S    
C108  C116  A    
S18   O100  D    
C2    O2    A    
C95   O41   A    
C119  C173  S    
S35   O153  S    
C79   C83   A    
C43   C51   A    
S5    O61   D    
C179  H3    S    
C65   C69   A    
C149  C156  T    
C96   O44   A    
S40   O167  D    
C111  C114  A    
C67   C71   A    
C118  C123  T    
S25   O121  D    
Cu5   Cu6   S    
C25   C49   A    
S5    O62   D    
C56   C60   T    
C26   F6    S    
Cu3   O25   S    
C99   O9    A    
C74   C78   A    
S23   O115  D    
S17   O98   D    
C143  S39   S    
S22   O112  D    
C2    C70   S    
C11   H43   S    
S38   O162  S    
C86   O32   A    
C109  H13   S    
O60   H52   S    
S30   O136  D    
C60   C84   S    
C3    C71   S    
C42   C50   A    
S20   O108  S    
O72   H56   S    
O99   H65   S    
C96   O43   A    
S10   O76   D    
S19   O103  D    
S38   O161  D    
S9    O73   D    
O87   H61   S    
C7    C11   S    
C102  O8    A    
C112  H16   S    
C7    F3    S    
C111  H15   S    
C38   C42   A    
C100  O6    A    
S34   O149  D    
C87   C177  S    
C48   O24   A    
C5    F1    S    
C159  C168  A    
C153  H39   S    
C36   C102  S    
C97   O46   A    
C64   S20   S    
Cu12  O16   S    
C4    O4    A    
S9    O74   D    
C153  C183  S    
S15   O92   D    
S22   O114  S    
Cu11  O7    S    
C40   S12   S    
S6    O65   D    
Cu9   O5    S    
C38   S10   S    
C31   H7    S    
C109  C113  A    
S1    O50   D    
C8    C184  S    
C178  H2    S    
S25   O122  D    
C103  O13   A    
C144  S40   S    
Cu2   O3    S    
S21   O110  D    
Cu1   O22   S    
O57   H51   S    
S27   O129  S    
C161  H29   S    
C119  C151  S    
C63   C67   A    
C120  C152  S    
C89   H11   S    
C122  F16   S    
C20   C24   T    
C36   C40   A    
Cu3   O26   S    
S8    O71   D    
S35   O151  D    
S5    O63   S    
C39   C43   A    
O150  H82   S    
Cu5   O33   S    
C154  C184  S    
S16   O95   D    
C106  F10   S    
S6    O64   D    
C96   C166  S    
C9    F21   S    
C28   F8    S    
C16   C172  T    
C138  C147  A    
C108  F12   S    
S33   O145  D    
C164  H32   S    
O147  H81   S    
C179  S3    S    
C110  C113  A    
Cu8   O36   S    
C1    O17   A    
Cu2   O4    S    
C73   S25   S    
C10   H42   S    
C3    O19   A    
C119  F13   S    
Cu4   O27   S    
C159  C163  A    
C6    F2    S    
C44   S16   S    
C141  S37   S    
C93   O39   A    
C79   S31   S    
S16   O94   D    
Cu1   O1    S    
O90   H62   S    
C106  C110  A    
S9    O75   S    
C128  C132  A    
C105  F9    S    
C158  H26   S    
C88   H10   S    
S13   O85   D    
Cu4   O20   S    
S32   O143  D    
S7    O69   S    
C164  C166  A    
C98   O47   A    
C153  F19   S    
S37   O158  D    
C71   C75   A    
C28   C52   A    
S29   O133  D    
O102  H66   S    
S26   O125  D    
C159  H27   S    
S12   O82   D    
C45   O25   A    
C89   C179  S    
C42   S14   S    
S14   O89   D    
C158  C162  A    
C75   S27   S    
C138  H22   S    
C46   O26   A    
S38   O160  D    
C154  H40   S    
C5    H45   S    
C129  S33   S    
Cu2   Cu4   S    
C52   C56   S    
C63   S19   S    
S26   O126  S    
