data_mof_unit_60568.cif
_audit_creation_date              2013-03-05T16:16:54-0500
_audit_creation_method            fapswitch 2.2
_symmetry_space_group_name_H-M    P1
_symmetry_Int_Tables_number       1
_space_group_crystal_system       triclinic
_cell_length_a                    10.543179
_cell_length_b                    13.079725
_cell_length_c                    13.630487
_cell_angle_alpha                 85.5792
_cell_angle_beta                  90.045106
_cell_angle_gamma                 92.650361
_cell_volume                      1872.06552517

loop_
_atom_site_label
_atom_site_type_symbol
_atom_site_description
_atom_site_fract_x
_atom_site_fract_y
_atom_site_fract_z
_atom_type_partial_charge
O1    O     O_R   0.492590 0.402510 0.634760 -0.620422
O2    O     O_R   0.507410 0.597490 0.365240 -0.620422
O3    O     O_R   0.505590 0.572960 0.644530 -0.574415
O4    O     O_R   0.494410 0.427040 0.355470 -0.574416
C1    C     C_R   0.498190 0.481106 0.685029 0.927350
C2    C     C_R   0.501810 0.518894 0.314971 0.927350
O5    O     O_R   0.679550 0.414790 0.495140 -0.622057
O6    O     O_R   0.320450 0.585210 0.504860 -0.622057
O7    O     O_R   0.692550 0.585240 0.504910 -0.592853
O8    O     O_R   0.307450 0.414760 0.495090 -0.592853
C3    C     C_R   0.742724 0.499169 0.501227 0.951182
C4    C     C_R   0.257275 0.500831 0.498773 0.951182
Zn1   Zn    Zn3+2 0.491320 0.386190 0.493470 1.052172
Zn2   Zn    Zn3+2 0.508680 0.613810 0.506530 1.052172
C5    C     C_3   0.953986 0.402464 0.491585 -0.218235
C6    C     C_3   0.046014 0.597536 0.508415 -0.218235
C7    C     C_3   0.041488 0.437403 0.575843 -0.274013
C8    C     C_3   0.958511 0.562597 0.424157 -0.274013
H1    H     H_    0.078440 0.388080 0.638402 0.191690
H2    H     H_    0.921560 0.611920 0.361598 0.191690
H3    H     H_    0.914206 0.323499 0.483384 0.204159
H4    H     H_    0.085794 0.676501 0.516616 0.204159
C9    C     C_3   0.123031 0.501876 0.498372 -0.142552
C10   C     C_3   0.876969 0.498124 0.501627 -0.142552
C11   C     C_3   0.037064 0.467829 0.416191 0.360929
C12   C     C_3   0.962936 0.532171 0.583809 0.360929
C13   C     C_1   0.504715 0.534074 0.211952 -0.084778
C14   C     C_1   0.495285 0.465926 0.788048 -0.084777
C15   C     C_2   0.508654 0.544372 0.020915 0.123047
C16   C     C_2   0.491345 0.455628 0.979085 0.123047
C17   C     C_1   0.492981 0.457284 0.875412 0.047487
C18   C     C_1   0.507019 0.542716 0.124588 0.047487
N1    N     N_1   0.479750 0.234530 0.484780 -0.076889
N2    N     N_1   0.520250 0.765470 0.515220 -0.076889
C19   C     C_2   0.460096 0.033238 0.476526 0.037833
C20   C     C_2   0.539904 0.966761 0.523474 0.037833
C21   C     C_1   0.527525 0.854646 0.518303 0.207492
C22   C     C_1   0.472475 0.145354 0.481697 0.207492
N3    N     N_R   0.076697 0.432708 0.322497 0.221390
O9    O     O_R   0.991315 0.402905 0.260584 -0.340881
O10   O     O_R   0.196139 0.434034 0.298583 -0.378661
N4    N     N_R   0.923303 0.567291 0.677503 0.221390
O11   O     O_R   0.008684 0.597095 0.739416 -0.340881
O12   O     O_R   0.803860 0.565966 0.701417 -0.378661
I1    I     I_    0.460087 0.310357 0.059033 -0.166237
I2    I     I_    0.539913 0.689643 0.940967 -0.166237
I3    I     I_    0.692985 0.021133 0.609358 -0.232739
I4    I     I_    0.307015 0.978867 0.390642 -0.232738

loop_
_geom_bond_atom_site_label_1
_geom_bond_atom_site_label_2
_geom_bond_distance
_ccdc_geom_bond_type
Zn2   N2    1.994413 S    
O6    Zn2   2.002860 S    
O7    Zn2   1.991616 S    
Zn1   N1    1.994413 S    
C15   C16   1.337171 D    
O3    Zn2   1.915277 S    
C15   C18   1.411703 S    
C1    C14   1.403091 S    
C16   I1    2.128369 S    
C2    C13   1.403091 S    
C5    H3    1.110323 S    
C15   I2    2.128370 S    
O6    C4    1.270680 A    
N3    O10   1.300054 A    
O2    C2    1.277773 A    
C11   N3    1.457952 S    
O5    C3    1.270678 A    
O7    C3    1.270266 A    
C4    C9    1.416066 S    
C7    C9    1.537010 S    
C8    C11   1.532967 S    
N4    O12   1.300054 A    
C8    C10   1.537010 S    
C19   I4    2.121381 S    
O8    C4    1.270265 A    
O4    C2    1.281941 A    
C20   C21   1.473319 S    
C7    H1    1.110407 S    
C10   C12   1.520716 S    
C6    C9    1.537584 S    
C8    H2    1.110407 S    
C9    C11   1.520716 S    
C6    C12   1.533280 S    
C16   C17   1.411703 S    
O2    Zn2   1.953897 S    
O1    C1    1.277773 A    
C5    C11   1.533280 S    
O1    Zn1   1.953899 S    
N4    O11   1.300599 A    
C7    C12   1.532967 S    
N2    C21   1.169362 T    
C3    C10   1.416066 S    
O5    Zn1   2.002860 S    
C19   C22   1.473319 S    
C12   N4    1.457952 S    
C20   I3    2.121381 S    
C6    C8    1.555383 S    
N3    O9    1.300600 A    
C5    C7    1.555382 S    
C5    C10   1.537583 S    
C6    H4    1.110322 S    
C13   C18   1.187631 T    
O8    Zn1   1.991617 S    
C14   C17   1.187631 T    
N1    C22   1.169361 T    
O4    Zn1   1.915276 S    
O3    C1    1.281942 A    
C19   C20   1.361826 D    
