data_mof_unit_32868.cif
_audit_creation_date              2012-10-26T19:52:59-0400
_audit_creation_method            fapswitch 2.2
_symmetry_space_group_name_H-M    P1
_symmetry_Int_Tables_number       1
_space_group_crystal_system       triclinic
_cell_length_a                    10.93436
_cell_length_b                    9.080364
_cell_length_c                    7.785916
_cell_angle_alpha                 89.998034
_cell_angle_beta                  90.1316
_cell_angle_gamma                 90.007733
_cell_volume                      773.045739114

loop_
_atom_site_label
_atom_site_type_symbol
_atom_type_description
_atom_site_fract_x
_atom_site_fract_y
_atom_site_fract_z
_atom_type_partial_charge
C1    C     C_R   0.500374 0.220037 0.500001 0.540242
C2    C     C_1   0.500228 0.934596 0.499984 -0.058005
C3    C     C_3   0.922305 0.582472 0.091429 0.035078
C4    C     C_3   0.849759 0.724148 0.124387 -0.265132
C5    C     C_3   0.887279 0.846271 0.000543 -0.488961
C6    C     C_3   0.088168 0.213537 0.241678 0.027796
C7    C     C_3   0.167848 0.123336 0.365172 -0.272224
C8    C     C_3   0.136061 0.959709 0.358169 -0.484172
C9    C     C_R   0.500018 0.779960 0.499970 0.538136
C10   C     C_R   0.264672 0.498368 0.499504 0.566156
C11   C     C_R   0.735543 0.495802 0.499878 0.560474
C12   C     C_2   0.934853 0.470147 0.357138 0.223925
C13   C     C_2   0.067362 0.440220 0.371080 0.223158
C14   C     C_2   0.867481 0.478904 0.501469 -0.130904
C15   C     C_2   0.132695 0.504211 0.497278 -0.122814
C16   C     C_1   0.500413 0.065384 0.500046 -0.061769
Cu1   Cu    Cu3+1 0.500000 0.500000 0.669080 1.014990
Cu2   Cu    Cu3+1 0.500000 0.500000 0.330920 1.045961
H1    H     H_    0.909502 0.466868 0.627116 0.042222
H2    H     H_    0.100829 0.169798 0.109638 0.154539
H3    H     H_    0.989423 0.198508 0.272633 0.144897
H4    H     H_    0.265477 0.137760 0.330034 0.189811
H5    H     H_    0.154860 0.163722 0.498635 0.152355
H6    H     H_    0.038375 0.942280 0.391441 0.140975
H7    H     H_    0.193666 0.898488 0.451676 0.153082
H8    H     H_    0.153876 0.915133 0.227788 0.152042
H9    H     H_    0.089630 0.567684 0.598543 0.034092
H10   H     H_    0.907892 0.548921 0.955653 0.154826
H11   H     H_    0.022205 0.603619 0.105685 0.151939
H12   H     H_    0.750443 0.701847 0.108021 0.203919
H13   H     H_    0.865859 0.761979 0.258309 0.143769
H14   H     H_    0.986388 0.870573 0.013754 0.138793
H15   H     H_    0.834919 0.947965 0.029896 0.161538
H16   H     H_    0.867505 0.813037 0.865949 0.152209
N1    N     N_1   0.500000 0.500000 0.076820 -0.076018
N2    N     N_1   0.500000 0.500000 0.923180 -0.076768
O1    O     O_R   0.500000 0.288390 0.642760 -0.494931
O2    O     O_3   0.125935 0.362779 0.240980 -0.539015
O3    O     O_R   0.500000 0.711610 0.642760 -0.501055
O4    O     O_R   0.500000 0.288370 0.357190 -0.497083
O5    O     O_R   0.500000 0.711630 0.357190 -0.512706
O6    O     O_R   0.321940 0.500000 0.642750 -0.510195
O7    O     O_R   0.678060 0.500000 0.642750 -0.514483
O8    O     O_R   0.321930 0.500000 0.357180 -0.452788
O9    O     O_R   0.678070 0.500000 0.357180 -0.453436
O10   O     O_3   0.878752 0.466586 0.196654 -0.534464

loop_
_geom_bond_atom_site_label_1
_geom_bond_atom_site_label_2
_ccdc_geom_bond_type
C6    O2    S    
C11   O7    A    
C6    C7    S    
Cu1   N2    S    
Cu2   O8    S    
C2    C16   T    
C10   O6    A    
C7    H4    S    
C8    H8    S    
Cu2   N1    S    
C3    O10   S    
C9    O5    A    
N1    N2    T    
C1    O1    A    
C5    H14   S    
C5    H16   S    
Cu1   O7    S    
Cu1   Cu2   S    
C7    C8    S    
C1    C16   S    
Cu1   O1    S    
C8    H7    S    
C2    C9    S    
C13   O2    S    
C7    H5    S    
C3    H10   S    
C8    H6    S    
C12   C14   D    
C10   C15   S    
C13   C15   D    
C11   C14   S    
C11   O9    A    
C4    H13   S    
C10   O8    A    
C3    C4    S    
Cu2   O9    S    
C9    O3    A    
C6    H2    S    
C12   C13   S    
C12   O10   S    
Cu1   O3    S    
Cu2   O5    S    
C3    H11   S    
Cu2   O4    S    
Cu1   O6    S    
C1    O4    A    
C6    H3    S    
C15   H9    S    
C14   H1    S    
C4    H12   S    
C4    C5    S    
C5    H15   S    
