data_mof_unit_55621.cif
_audit_creation_date              2013-03-05T16:33:13-0500
_audit_creation_method            fapswitch 2.2
_symmetry_space_group_name_H-M    P1
_symmetry_Int_Tables_number       1
_space_group_crystal_system       triclinic
_cell_length_a                    27.815956
_cell_length_b                    10.819925
_cell_length_c                    9.530438
_cell_angle_alpha                 89.915176
_cell_angle_beta                  89.980051
_cell_angle_gamma                 90.147723
_cell_volume                      2868.33026393

loop_
_atom_site_label
_atom_site_type_symbol
_atom_site_description
_atom_site_fract_x
_atom_site_fract_y
_atom_site_fract_z
_atom_type_partial_charge
O1    O     O_R   0.500000 0.319640 0.618810 -0.581948
O2    O     O_R   0.500010 0.319680 0.381230 -0.590269
C1    C     C_R   0.500861 0.262257 0.500026 0.806055
O3    O     O_R   0.430260 0.500000 0.618780 -0.584895
O4    O     O_R   0.430270 0.500040 0.381190 -0.581322
C2    C     C_R   0.407446 0.499890 0.500004 0.799992
Cu1   Cu    Cu3+1 0.500000 0.499980 0.640670 0.947576
Cu2   Cu    Cu3+1 0.500000 0.500020 0.359330 0.947078
O5    O     O_R   0.499990 0.680320 0.618770 -0.579853
O6    O     O_R   0.500000 0.680360 0.381190 -0.584530
O7    O     O_R   0.569730 0.499960 0.618810 -0.582408
O8    O     O_R   0.569740 0.500000 0.381220 -0.582903
C3    C     C_R   0.500889 0.737721 0.499857 0.806950
C4    C     C_R   0.592586 0.499448 0.500005 0.821301
C5    C     C_R   0.177859 0.392057 0.473223 0.534239
O9    O     O_2   0.202551 0.287056 0.448712 -0.533864
N1    N     N_R   0.202096 0.499601 0.499878 -0.469474
C6    C     C_R   0.178181 0.607427 0.525928 0.535694
C7    C     C_R   0.278802 0.510424 0.626542 -0.103069
C8    C     C_R   0.328936 0.510280 0.626756 -0.218856
C9    C     C_R   0.328962 0.488809 0.373323 -0.214054
C10   C     C_R   0.278834 0.488442 0.373506 -0.103610
C11   C     C_R   0.253627 0.499412 0.500005 0.359723
C12   C     C_R   0.101939 0.500278 0.498219 -0.047830
C13   C     C_R   0.127387 0.390303 0.472232 -0.019682
C14   C     C_R   0.102062 0.281392 0.444978 -0.143743
C15   C     C_R   0.127718 0.609854 0.525236 -0.020886
C16   C     C_R   0.354492 0.499664 0.500036 -0.040967
H1    H     H_    0.347661 0.480275 0.274133 0.158715
H2    H     H_    0.259509 0.480096 0.275346 0.139442
H3    H     H_    0.120773 0.195994 0.422385 0.187694
C17   C     C_R   0.645601 0.498387 0.499971 -0.091739
C18   C     C_R   0.974370 0.388019 0.481485 0.062354
C19   C     C_R   0.974715 0.614651 0.508171 -0.026474
C20   C     C_R   0.949227 0.501708 0.493680 0.068671
C21   C     C_R   0.947441 0.277123 0.478064 -0.200941
C22   C     C_R   0.897578 0.278106 0.479971 -0.139775
C23   C     C_R   0.872510 0.389541 0.486279 0.003367
C24   C     C_R   0.898073 0.502112 0.492959 -0.098450
C25   C     C_R   0.872415 0.614607 0.499636 -0.140028
C26   C     C_R   0.821686 0.610540 0.504268 0.594914
N2    N     N_R   0.798002 0.499903 0.497579 -0.459011
C27   C     C_R   0.822144 0.390650 0.487892 0.581284
C28   C     C_R   0.721381 0.497224 0.627421 0.323210
C29   C     C_R   0.671190 0.496972 0.627162 -0.236782
C30   C     C_R   0.671157 0.498533 0.372759 -0.196875
C31   C     C_R   0.721244 0.498825 0.372790 -0.152962
C32   C     C_R   0.746506 0.498560 0.499651 0.295690
O10   O     O_2   0.797374 0.283392 0.480685 -0.522490
C33   C     C_R   0.025407 0.388443 0.475030 0.040765
C34   C     C_R   0.050830 0.500695 0.497050 0.070502
C35   C     C_R   0.025739 0.613361 0.517792 0.069838
C36   C     C_R   0.052128 0.280256 0.445996 -0.208880
H4    H     H_    0.652396 0.495383 0.726495 0.173044
H5    H     H_    0.878670 0.190471 0.477526 0.191032
H6    H     H_    0.963896 0.187245 0.478156 0.130884
H7    H     H_    0.035560 0.193162 0.420097 0.137737
O11   O     O_2   0.203189 0.712106 0.551244 -0.533235
C37   C     C_R   0.102721 0.719122 0.551457 -0.148046
H8    H     H_    0.347619 0.518879 0.725952 0.159260
H9    H     H_    0.259453 0.518756 0.724673 0.139769
H10   H     H_    0.121684 0.804239 0.574798 0.188954
C38   C     C_R   0.948224 0.725748 0.510550 -0.278167
C39   C     C_R   0.898226 0.727028 0.501456 0.488712
O12   O     O_2   0.796004 0.715517 0.516842 -0.484570
C40   C     C_R   0.052805 0.721084 0.548128 -0.208164
H11   H     H_    0.965279 0.815059 0.514677 0.151047
H12   H     H_    0.652570 0.498278 0.273138 0.164590
H13   H     H_    0.740548 0.499431 0.274087 0.167147
H14   H     H_    0.036575 0.808566 0.573059 0.140762
C41   C     C_R   0.507331 0.063347 0.625584 0.144686
C42   C     C_R   0.505695 0.129199 0.499641 -0.097501
C43   C     C_R   0.510993 0.064655 0.372600 -0.206178
H15   H     H_    0.512717 0.112919 0.273061 0.163749
C44   C     C_R   0.510979 0.935851 0.372486 -0.207814
H16   H     H_    0.512624 0.887996 0.272900 0.158898
C45   C     C_R   0.505706 0.870793 0.499412 -0.097130
C46   C     C_R   0.507310 0.936159 0.625449 0.124469
C47   C     C_3   0.475100 0.929063 0.750715 -0.458633
C48   C     C_3   0.475189 0.069393 0.751021 -0.480097
H17   H     H_    0.439350 0.888206 0.726101 0.205393
H18   H     H_    0.493512 0.888513 0.843421 0.192977
H19   H     H_    0.439476 0.110264 0.726864 0.199102
H20   H     H_    0.493796 0.109379 0.843743 0.196353
C49   C     C_R   0.517065 0.599830 0.073452 0.249521
N3    N     N_R   0.500300 0.500930 0.147930 -0.183086
C50   C     C_R   0.478258 0.407978 0.074632 -0.078602
H21   H     H_    0.461372 0.332396 0.130465 0.139579
C51   C     C_R   0.478200 0.408078 0.925671 -0.077452
H22   H     H_    0.461140 0.332847 0.870081 0.138441
N4    N     N_R   0.500310 0.500890 0.852020 -0.182712
C52   C     C_R   0.517096 0.599756 0.926054 0.246643
C53   C     C_3   0.566604 0.652406 0.919847 -0.480494
C54   C     C_3   0.566582 0.652563 0.079162 -0.488378
H23   H     H_    0.593099 0.587107 0.874651 0.219523
H24   H     H_    0.567184 0.746718 0.873518 0.195974
H25   H     H_    0.593084 0.587424 0.124759 0.216946
H26   H     H_    0.567145 0.747015 0.124757 0.191943
O13   O     O_3   0.875270 0.840387 0.503724 -0.567266
C55   C     C_3   0.865567 0.879675 0.364679 0.136916
H27   H     H_    0.835226 0.946086 0.370364 0.208019
H28   H     H_    0.853353 0.802780 0.295225 0.130097
C56   C     C_3   0.909209 0.945464 0.299917 -0.457857
H29   H     H_    0.925003 0.009962 0.377713 0.227026
H30   H     H_    0.936938 0.876252 0.271233 0.218203
C57   C     C_3   0.895372 0.017784 0.168509 -0.828551
H31   H     H_    0.879485 0.954852 0.088952 0.268381
H32   H     H_    0.927897 0.062144 0.123106 0.258741
H33   H     H_    0.869036 0.091183 0.194973 0.265937
Br1   Br    Br    0.754713 0.495392 0.803325 -0.483011

loop_
_geom_bond_atom_site_label_1
_geom_bond_atom_site_label_2
_geom_bond_distance
_ccdc_geom_bond_type
C50   H21   1.081256 S    
C26   N2    1.366492 A    
C53   C54   1.518346 S    
C17   C29   1.406015 A    
C20   C24   1.422946 A    
C7    C8    1.394532 A    
C12   C15   1.408123 A    
C48   H20   1.111863 S    
Cu1   Cu2   2.681292 S    
C40   H14   1.076569 S    
C45   C46   1.395512 A    
Cu1   O7    1.950692 S    
N1    C11   1.433372 S    
C52   C53   1.490056 S    
C21   C22   1.387185 A    
O3    Cu1   1.951146 S    
C37   C40   1.389059 A    
O4    C2    1.297985 A    
O7    C4    1.298379 A    
C5    C13   1.404028 A    
C57   H31   1.110868 S    
C54   H26   1.111175 S    
C5    O9    1.349723 S    
C18   C21   1.413285 A    
Cu1   O5    1.962089 S    
C19   C20   1.418166 A    
C43   H15   1.083197 S    
O5    C3    1.291715 A    
C31   H13   1.082980 S    
C6    O11   1.349729 S    
C39   O13   1.384443 S    
C2    C16   1.472948 S    
O13   C55   1.417308 S    
C8    H8    1.082971 S    
C12   C34   1.421693 A    
C14   H3    1.083524 S    
C53   H23   1.109624 S    
C9    C10   1.394368 A    
C43   C44   1.393651 A    
C48   H19   1.112447 S    
C41   C48   1.494169 S    
C49   C52   1.404765 A    
N1    C6    1.367492 A    
C3    C45   1.445703 S    
C38   H11   1.076196 S    
C33   C36   1.415823 A    
C34   C35   1.420304 A    
C12   C13   1.408348 A    
O3    C2    1.297924 A    
N4    C52   1.363836 A    
C47   H17   1.112439 S    
C36   H7    1.076975 S    
N3    C50   1.369161 A    
C27   O10   1.349975 S    
C26   O12   1.348842 S    
C8    C16   1.406164 A    
C54   H25   1.109510 S    
C18   C33   1.420949 A    
C49   N3    1.364314 A    
C9    H1    1.082982 S    
C55   C56   1.534609 S    
C38   C39   1.393574 A    
O1    C1    1.292195 A    
C7    C11   1.399820 A    
C44   H16   1.082835 S    
C30   H12   1.081237 S    
C22   C23   1.395739 A    
C21   H6    1.075862 S    
C47   H18   1.111641 S    
C49   C54   1.490541 S    
C31   C32   1.398627 A    
Cu2   O8    1.951140 S    
Cu1   N4    2.014319 S    
C55   H28   1.116303 S    
C33   C34   1.419751 A    
C56   H30   1.110817 S    
N2    C32   1.432553 S    
C44   C45   1.406093 A    
C25   C26   1.412318 A    
C9    C16   1.406083 A    
O8    C4    1.298456 A    
C29   H4    1.081380 S    
C53   H24   1.111353 S    
C50   C51   1.419661 A    
C51   N4    1.368878 A    
N2    C27   1.364276 A    
C14   C36   1.389018 A    
C24   C25   1.414078 A    
C35   C40   1.416173 A    
C28   C29   1.396090 A    
C5    N1    1.367486 A    
C30   C31   1.393216 A    
C37   H10   1.083539 S    
C10   H2    1.082879 S    
O1    Cu1   1.962662 S    
C17   C30   1.405207 A    
O2    Cu2   1.962091 S    
C6    C15   1.404016 A    
C4    C17   1.474726 S    
C42   C43   1.406512 A    
O6    C3    1.291078 A    
O4    Cu2   1.950694 S    
C19   C35   1.422350 A    
C25   C39   1.410996 A    
O2    C1    1.290904 A    
C13   C14   1.396111 A    
C41   C42   1.395755 A    
C15   C37   1.395949 A    
C46   C47   1.494170 S    
C23   C24   1.410320 A    
C57   H32   1.110414 S    
C7    H9    1.082872 S    
C19   C38   1.411771 A    
C18   C20   1.421470 A    
C1    C42   1.446298 S    
C56   C57   1.525733 S    
Cu2   N3    2.014759 S    
C47   C48   1.518358 S    
C22   H5    1.083402 S    
C23   C27   1.401137 A    
Cu2   O6    1.962661 S    
C56   H29   1.109025 S    
C10   C11   1.399794 A    
C55   H27   1.111201 S    
C51   H22   1.080694 S    
C41   C46   1.376166 A    
C28   C32   1.403840 A    
C57   H33   1.111042 S    
C28   Br1   1.916142 S    
