data_mof_unit_55136.cif
_audit_creation_date              2012-12-10T17:42:14-0500
_audit_creation_method            fapswitch 2.2
_symmetry_space_group_name_H-M    P1
_symmetry_Int_Tables_number       1
_space_group_crystal_system       triclinic
_cell_length_a                    15.109945
_cell_length_b                    13.703368
_cell_length_c                    10.805718
_cell_angle_alpha                 90.155139
_cell_angle_beta                  90.540376
_cell_angle_gamma                 89.71118
_cell_volume                      2237.26518027

loop_
_atom_site_label
_atom_site_type_symbol
_atom_type_description
_atom_site_fract_x
_atom_site_fract_y
_atom_site_fract_z
_atom_type_partial_charge
C1    C     C_R   0.329092 0.500137 0.498210 0.831834
C2    C     C_3   0.569295 0.582158 0.932601 0.477156
C3    C     C_R   0.815196 0.557760 0.408098 0.193316
C4    C     C_R   0.769593 0.496254 0.490419 -0.145517
C5    C     C_R   0.818000 0.428635 0.562917 0.231222
C6    C     C_R   0.909915 0.440721 0.578279 -0.044622
C7    C     C_R   0.955608 0.495687 0.488583 -0.002055
C8    C     C_R   0.908252 0.547723 0.395505 0.010499
C9    C     C_R   0.957522 0.397176 0.678248 -0.088465
C10   C     C_R   0.050455 0.396493 0.678315 0.213475
C11   C     C_R   0.095936 0.444262 0.583145 0.047094
C12   C     C_R   0.502035 0.499960 0.260070 0.864136
C13   C     C_R   0.048695 0.496699 0.490491 0.022655
C14   C     C_R   0.095110 0.549392 0.399174 0.081479
C15   C     C_R   0.048816 0.592732 0.299734 0.172108
C16   C     C_R   0.955822 0.588664 0.295002 -0.196491
C17   C     C_R   0.188362 0.443145 0.580395 -0.132583
C18   C     C_R   0.233352 0.499823 0.495611 -0.102728
C19   C     C_R   0.187618 0.553658 0.406700 -0.161493
C20   C     C_R   0.447511 0.793306 0.580563 0.119901
C21   C     C_R   0.447125 0.207811 0.580071 0.110794
C22   C     C_R   0.549581 0.792672 0.416416 0.114277
C23   C     C_R   0.553734 0.206721 0.421484 0.088584
C24   C     C_R   0.551637 0.896004 0.413773 -0.065744
C25   C     C_R   0.555865 0.103407 0.419145 -0.071741
C26   C     C_R   0.671865 0.499250 0.497149 0.912852
C27   C     C_R   0.498994 0.948389 0.499193 0.085284
C28   C     C_R   0.500651 0.051921 0.501311 0.082855
C29   C     C_R   0.444427 0.896802 0.582090 -0.061792
C30   C     C_R   0.446717 0.104460 0.585027 -0.058078
C31   C     C_R   0.606365 0.947586 0.330489 -0.081219
C32   C     C_R   0.609780 0.051021 0.334918 -0.087262
C33   C     C_R   0.392128 0.053058 0.668505 -0.082435
C34   C     C_R   0.390118 0.949342 0.665892 -0.097485
C35   C     C_R   0.502904 0.500118 0.740198 0.813228
C36   C     C_3   0.408460 0.523868 0.071804 0.031882
C37   C     C_3   0.536341 0.398448 0.074096 0.002984
C38   C     C_3   0.406713 0.516958 0.927567 -0.267014
C39   C     C_3   0.530581 0.395425 0.930737 -0.277014
C40   C     C_3   0.569077 0.578480 0.075708 -0.343291
C41   C     C_3   0.503795 0.500179 0.122634 -0.114818
C42   C     C_3   0.504198 0.500638 0.878118 -0.200837
Cu1   Cu    Cu3+1 0.499990 0.597420 0.500010 1.043090
Cu2   Cu    Cu3+1 0.499990 0.402580 0.500010 1.009623
H1    H     H_    0.226992 0.400988 0.646102 0.200891
H2    H     H_    0.225580 0.595806 0.341804 0.214115
H3    H     H_    0.408638 0.750954 0.643921 0.178555
H4    H     H_    0.405025 0.251067 0.639171 0.153963
H5    H     H_    0.587560 0.749947 0.352322 0.181152
H6    H     H_    0.593916 0.249063 0.359923 0.185698
H7    H     H_    0.362854 0.467364 0.108251 0.124814
H8    H     H_    0.491192 0.341083 0.109576 0.151590
H9    H     H_    0.369911 0.448450 0.907512 0.130728
H10   H     H_    0.473074 0.347218 0.910781 0.156112
H11   H     H_    0.550839 0.650764 0.114713 0.245179
H12   H     H_    0.636661 0.563981 0.112458 0.240372
N1    N     N_R   0.499930 0.743810 0.499950 -0.207521
N2    N     N_R   0.499930 0.256190 0.499950 -0.207131
O1    O     O_R   0.370250 0.582280 0.500040 -0.571265
O2    O     O_R   0.370250 0.417720 0.500040 -0.598482
O3    O     O_R   0.499970 0.582270 0.317700 -0.562580
O4    O     O_R   0.499970 0.417730 0.317700 -0.594925
O5    O     O_R   0.629730 0.582260 0.499980 -0.550314
O6    O     O_R   0.629730 0.417740 0.499980 -0.544206
O7    O     O_R   0.500000 0.582270 0.682320 -0.554915
O8    O     O_R   0.500000 0.417730 0.682320 -0.586248
Br1   Br    Br    0.360700 0.647349 0.137802 -0.353652
Br2   Br    Br    0.653670 0.363657 0.143755 -0.413260
Br3   Br    Br    0.114793 0.337905 0.815974 -0.383578
Br4   Br    Br    0.112438 0.648332 0.161779 -0.380839
C43   C     C_2   0.911668 0.612146 0.175251 1.039596
O9    O     O_2   0.874045 0.547583 0.117475 -0.440499
O10   O     O_R   0.911624 0.706935 0.127626 -0.639287
H13   H     H_    0.939888 0.755737 0.186295 0.344429
C44   C     C_2   0.662027 0.894030 0.240018 0.921280
O11   O     O_2   0.742334 0.904781 0.241203 -0.510817
O12   O     O_R   0.622269 0.832888 0.152280 -0.713112
H14   H     H_    0.667095 0.800606 0.095973 0.384146
C45   C     C_2   0.668713 0.103711 0.248732 0.895695
O13   O     O_2   0.727794 0.155574 0.289734 -0.508763
O14   O     O_R   0.657449 0.092193 0.120967 -0.703550
H15   H     H_    0.701708 0.131296 0.071844 0.370748
C46   C     C_2   0.336055 0.107449 0.757943 0.880582
O15   O     O_2   0.255930 0.095312 0.758006 -0.517102
O16   O     O_R   0.375316 0.171811 0.842505 -0.733472
H16   H     H_    0.330448 0.204987 0.897917 0.349876
C47   C     C_2   0.330908 0.896368 0.751360 0.941800
O17   O     O_2   0.338549 0.907861 0.863217 -0.473935
O18   O     O_R   0.265513 0.834793 0.703270 -0.740836
H17   H     H_    0.228317 0.804181 0.770268 0.368776
C48   C     C_2   0.347057 0.590149 0.860518 0.975596
O19   O     O_2   0.359972 0.677725 0.866550 -0.501796
O20   O     O_R   0.273936 0.555889 0.793584 -0.775999
H18   H     H_    0.238242 0.610386 0.753649 0.345680
C49   C     C_2   0.603632 0.336416 0.868835 1.018467
O21   O     O_2   0.680607 0.362381 0.872221 -0.473633
O22   O     O_R   0.581844 0.247813 0.811657 -0.722146
H19   H     H_    0.635298 0.211613 0.778646 0.363749
Br5   Br    Br    0.543613 0.717200 0.884207 -0.343599
Br6   Br    Br    0.690243 0.570022 0.872984 -0.294523
Br7   Br    Br    0.750402 0.658167 0.319765 -0.499655
Br8   Br    Br    0.765109 0.306677 0.613894 -0.391048
C50   C     C_2   0.911884 0.365435 0.791992 1.008714
O23   O     O_2   0.865147 0.423293 0.847984 -0.461645
O24   O     O_R   0.922033 0.269780 0.834746 -0.665515
H20   H     H_    0.887124 0.257231 0.912735 0.369896

loop_
_geom_bond_atom_site_label_1
_geom_bond_atom_site_label_2
_ccdc_geom_bond_type
C23   N2    A    
C47   O17   D    
O20   H18   S    
C27   C29   A    
O10   H13   S    
Cu2   O8    S    
C49   O21   D    
C24   C27   A    
Cu1   Cu2   S    
C6    C9    A    
O22   H19   S    
C19   H2    S    
Cu1   O5    S    
C7    C8    A    
O12   H14   S    
Cu2   O6    S    
C25   C28   A    
C1    C18   S    
C17   H1    S    
C38   C42   S    
C1    O1    A    
C5    C6    A    
C39   H10   S    
C35   O7    A    
C15   C16   A    
C37   Br2   S    
C18   C19   A    
C44   O12   S    
C35   C42   S    
C26   O6    A    
C31   C32   A    
Cu2   N2    S    
C40   H12   S    
C9    C10   A    
Cu1   O1    S    
C21   H4    S    
C3    Br7   S    
C25   C32   A    
C2    Br6   S    
C8    C16   A    
C13   C14   A    
C36   C41   S    
C16   C43   S    
C22   N1    A    
C17   C18   A    
C39   C42   S    
C20   C29   A    
C36   Br1   S    
C3    C8    A    
C1    O2    A    
C48   O19   D    
C43   O10   S    
C37   H8    S    
C23   H6    S    
C35   O8    A    
Cu2   O4    S    
O16   H16   S    
C29   C34   A    
O14   H15   S    
C44   O11   D    
C12   C41   S    
C48   O20   S    
C12   O4    A    
C31   C44   S    
C46   O15   D    
C7    C13   A    
Cu1   O7    S    
C40   H11   S    
C33   C34   A    
C50   O24   S    
Cu2   O2    S    
C33   C46   S    
C39   C49   S    
C36   H7    S    
C22   H5    S    
C40   C41   S    
C46   O16   S    
C2    Br5   S    
C47   O18   S    
C22   C24   A    
C3    C4    A    
C50   O23   D    
Cu1   O3    S    
C45   O14   S    
C21   C30   A    
C15   Br4   S    
C5    Br8   S    
C11   C17   A    
C26   O5    A    
C30   C33   A    
C14   C19   A    
C4    C5    A    
C4    C26   S    
C49   O22   S    
C6    C7    A    
O24   H20   S    
C36   C38   S    
O18   H17   S    
C24   C31   A    
C21   N2    A    
C37   C39   S    
C32   C45   S    
C12   O3    A    
C11   C13   A    
C38   H9    S    
C2    C42   S    
C38   C48   S    
C28   C30   A    
C9    C50   S    
C34   C47   S    
C23   C25   A    
C37   C41   S    
C20   H3    S    
C10   C11   A    
Cu1   N1    S    
C45   O13   D    
C10   Br3   S    
C2    C40   S    
C43   O9    D    
C27   C28   A    
C14   C15   A    
C20   N1    A    
