data_mof_unit_8159.cif
_audit_creation_date              2012-12-10T19:43:22-0500
_audit_creation_method            fapswitch 2.2
_symmetry_space_group_name_H-M    P1
_symmetry_Int_Tables_number       1
_space_group_crystal_system       triclinic
_cell_length_a                    10.865987
_cell_length_b                    10.912673
_cell_length_c                    9.613632
_cell_angle_alpha                 90.463628
_cell_angle_beta                  90.457685
_cell_angle_gamma                 94.918713
_cell_volume                      1135.67691829

loop_
_atom_site_label
_atom_site_type_symbol
_atom_type_description
_atom_site_fract_x
_atom_site_fract_y
_atom_site_fract_z
_atom_type_partial_charge
C1    C     C_R   0.489487 0.262662 0.499456 0.799666
C2    C     C_R   0.191981 0.668970 0.987862 0.642985
C3    C     C_R   0.934892 0.534356 0.385450 -0.217464
C4    C     C_R   0.870167 0.490422 0.501949 -0.107625
C5    C     C_R   0.933857 0.443995 0.615962 0.061780
C6    C     C_R   0.062445 0.449755 0.613216 -0.152369
C7    C     C_R   0.127678 0.497026 0.497194 -0.062965
C8    C     C_R   0.062262 0.537410 0.380970 0.091977
C9    C     C_R   0.865766 0.440326 0.865376 0.454476
C10   C     C_R   0.800171 0.380032 0.974766 -0.196363
C11   C     C_R   0.736382 0.264747 0.952676 -0.132894
C12   C     C_R   0.262229 0.499649 0.499136 0.795962
C13   C     C_R   0.738060 0.207942 0.822161 -0.104514
C14   C     C_R   0.804107 0.265985 0.713506 -0.213275
C15   C     C_R   0.868483 0.382028 0.734327 0.082135
C16   C     C_R   0.362946 0.119565 0.722059 -0.129938
C17   C     C_R   0.345137 0.064785 0.850781 -0.166174
C18   C     C_R   0.386657 0.950262 0.873193 -0.080655
C19   C     C_R   0.433329 0.884858 0.763218 -0.058074
C20   C     C_R   0.449642 0.937179 0.628380 0.011936
C21   C     C_R   0.427995 0.062713 0.616201 0.088370
C22   C     C_R   0.471800 0.128576 0.498610 -0.186620
C23   C     C_R   0.495685 0.738025 0.501469 0.850533
C24   C     C_R   0.506191 0.065900 0.380871 -0.227806
C25   C     C_R   0.503835 0.939490 0.379823 0.375942
C26   C     C_R   0.484584 0.872529 0.505184 -0.214889
C27   C     C_R   0.666648 0.683052 0.137030 0.472079
C28   C     C_R   0.733054 0.771421 0.054838 -0.238020
C29   C     C_R   0.729203 0.764341 0.913592 -0.262012
C30   C     C_R   0.657893 0.670261 0.850206 -0.144290
C31   C     C_R   0.578258 0.585535 0.924211 0.134392
C32   C     C_R   0.579891 0.588168 0.074336 0.124983
C33   C     C_R   0.427872 0.416902 0.072656 -0.079162
C34   C     C_R   0.736891 0.495476 0.500782 0.829311
C35   C     C_R   0.427286 0.417711 0.925277 -0.034499
C36   C     C_R   0.177258 0.752072 0.096796 -0.268990
C37   C     C_R   0.142093 0.708810 0.228242 -0.354058
C38   C     C_R   0.120169 0.582043 0.250742 0.023262
C39   C     C_R   0.135056 0.498970 0.141113 0.541684
C40   C     C_R   0.171969 0.542720 0.010618 -0.258075
Cu1   Cu    Cu3+1 0.499990 0.499990 0.640660 0.960161
Cu2   Cu    Cu3+1 0.500010 0.500010 0.359340 0.988563
H1    H     H_    0.684917 0.219757 0.036652 0.148500
H2    H     H_    0.687835 0.118983 0.805022 0.146522
H3    H     H_    0.804098 0.221187 0.612531 0.136389
H4    H     H_    0.533489 0.114989 0.286905 0.181567
H5    H     H_    0.324340 0.206163 0.705029 0.133097
H6    H     H_    0.300662 0.111853 0.933520 0.140427
H7    H     H_    0.378902 0.909613 0.975231 0.143041
H8    H     H_    0.456336 0.795605 0.792464 0.199477
H9    H     H_    0.367858 0.349068 0.126477 0.171160
H10   H     H_    0.189327 0.850038 0.078916 0.169872
H11   H     H_    0.794199 0.844403 0.101359 0.161719
H12   H     H_    0.785765 0.829959 0.852344 0.185275
H13   H     H_    0.669467 0.669371 0.741461 0.221635
H14   H     H_    0.365345 0.351797 0.869988 0.117268
H15   H     H_    0.127353 0.773900 0.310853 0.188758
H16   H     H_    0.180612 0.478708 0.925696 0.165856
H17   H     H_    0.886297 0.567122 0.296119 0.168137
H18   H     H_    0.111338 0.412898 0.699883 0.142016
H19   H     H_    0.796792 0.423125 0.076372 0.134514
N1    N     N_R   0.501190 0.501210 0.147910 -0.192849
N2    N     N_R   0.501230 0.501290 0.852040 -0.181233
O1    O     O_R   0.499990 0.319640 0.618810 -0.584707
O2    O     O_R   0.500000 0.319660 0.381240 -0.592647
O3    O     O_R   0.319640 0.500000 0.618780 -0.570525
O4    O     O_R   0.319650 0.500020 0.381210 -0.577189
O5    O     O_R   0.500000 0.680340 0.618760 -0.626772
O6    O     O_R   0.500010 0.680360 0.381190 -0.499208
O7    O     O_R   0.680350 0.499980 0.618790 -0.599027
O8    O     O_R   0.680360 0.500000 0.381220 -0.530909
F1    F     F_    0.220300 0.710313 0.858617 -0.662998
O9    O     O_3   0.525415 0.884752 0.254462 -0.725122
H20   H     H_    0.445848 0.839497 0.226523 0.326648
O10   O     O_3   0.693335 0.690804 0.276021 -0.685988
H21   H     H_    0.754854 0.760575 0.299663 0.305024
F2    F     F_    0.109483 0.376241 0.159389 -0.684248
O11   O     O_3   0.923485 0.557114 0.882256 -0.726941
H22   H     H_    0.911275 0.585076 0.979198 0.313997

loop_
_geom_bond_atom_site_label_1
_geom_bond_atom_site_label_2
_ccdc_geom_bond_type
C16   C21   A    
Cu1   Cu2   S    
C23   O6    A    
C19   C20   A    
C17   H6    S    
C7    C8    A    
C37   C38   A    
C5    C6    A    
C39   F2    S    
C28   C29   A    
C30   C31   A    
C2    F1    S    
C29   H12   S    
C18   C19   A    
O9    H20   S    
C23   C26   S    
C33   N1    A    
Cu2   O2    S    
C1    O2    A    
C11   H1    S    
C14   H3    S    
C9    C10   A    
Cu2   N1    S    
C36   H10   S    
C27   C32   A    
C1    C22   S    
C21   C22   A    
C8    C38   S    
C27   O10   S    
C16   H5    S    
Cu1   O5    S    
C7    C12   S    
C12   O4    A    
C4    C34   S    
C40   H16   S    
C31   N2    A    
C24   C25   A    
C3    C8    A    
C39   C40   A    
O11   H22   S    
C16   C17   A    
C25   C26   A    
C12   O3    A    
Cu2   O6    S    
C23   O5    A    
O10   H21   S    
C29   C30   A    
C6    H18   S    
C31   C32   A    
C17   C18   A    
C6    C7    A    
Cu2   O4    S    
C22   C24   A    
C10   H19   S    
Cu1   N2    S    
C3    C4    A    
C1    O1    A    
C2    C36   A    
C34   O7    A    
C36   C37   A    
C35   H14   S    
C4    C5    A    
C28   H11   S    
Cu1   O3    S    
C33   H9    S    
C30   H13   S    
C24   H4    S    
C9    C15   A    
C32   N1    A    
C11   C13   A    
C19   H8    S    
C38   C39   A    
C20   C26   A    
Cu2   O8    S    
C33   C35   A    
C25   O9    S    
C9    O11   S    
C5    C15   S    
C10   C11   A    
C2    C40   A    
C20   C21   A    
C27   C28   A    
C14   C15   A    
C35   N2    A    
Cu1   O1    S    
C13   C14   A    
C34   O8    A    
C13   H2    S    
C37   H15   S    
C18   H7    S    
Cu1   O7    S    
C3    H17   S    
