data_mof_unit_11780.cif
_audit_creation_date              2013-03-05T15:48:44-0500
_audit_creation_method            fapswitch 2.2
_symmetry_space_group_name_H-M    P1
_symmetry_Int_Tables_number       1
_space_group_crystal_system       triclinic
_cell_length_a                    11.245216
_cell_length_b                    13.280606
_cell_length_c                    11.869526
_cell_angle_alpha                 100.243666
_cell_angle_beta                  92.070546
_cell_angle_gamma                 96.536699
_cell_volume                      1730.15532567

loop_
_atom_site_label
_atom_site_type_symbol
_atom_site_description
_atom_site_fract_x
_atom_site_fract_y
_atom_site_fract_z
_atom_type_partial_charge
O1    O     O_R   0.506640 0.354460 0.582000 -0.580719
O2    O     O_R   0.490840 0.341410 0.386200 -0.516582
C1    C     C_R   0.503567 0.299529 0.478091 0.937864
O3    O     O_R   0.325590 0.506510 0.597900 -0.487834
O4    O     O_R   0.309790 0.493450 0.402100 -0.538778
C2    C     C_R   0.260705 0.503113 0.502781 0.908005
Cu1   Cu    Cu3+1 0.509350 0.507730 0.615930 1.099799
Cu2   Cu    Cu3+1 0.490650 0.492270 0.384070 1.124876
O5    O     O_R   0.509160 0.658590 0.613800 -0.601315
O6    O     O_R   0.493360 0.645540 0.418000 -0.562718
O7    O     O_R   0.690210 0.506550 0.597900 -0.597613
O8    O     O_R   0.674410 0.493490 0.402100 -0.582963
C3    C     C_R   0.498933 0.700383 0.521376 0.790500
C4    C     C_R   0.739844 0.497929 0.499553 0.791646
C5    C     C_3   0.075227 0.490103 0.638334 0.006975
C6    C     C_3   0.930803 0.503188 0.639465 0.075976
C7    C     C_3   0.086350 0.613799 0.484959 0.061266
C8    C     C_3   0.057493 0.401915 0.408527 0.293385
C9    C     C_3   0.122601 0.501816 0.507760 -0.389962
C10   C     C_3   0.879067 0.496651 0.503597 -0.382246
C11   C     C_3   0.942566 0.596091 0.451641 -0.331833
C12   C     C_3   0.912104 0.388343 0.426604 -0.003494
C13   C     C_R   0.500660 0.814196 0.531243 -0.042549
C14   C     C_R   0.512180 0.185687 0.464518 -0.124440
C15   C     C_R   0.440521 0.014129 0.356888 0.209646
C16   C     C_R   0.470500 0.119369 0.359680 -0.129280
C17   C     C_R   0.551670 0.139896 0.558071 -0.046508
C18   C     C_R   0.546410 0.030512 0.543520 0.132483
C19   C     C_R   0.485062 0.967770 0.445155 -0.022106
C20   C     C_R   0.479054 0.859281 0.432788 -0.070402
C21   C     C_R   0.543800 0.881421 0.634386 -0.176918
C22   C     C_R   0.596002 0.980492 0.626990 -0.088561
N1    N     N_R   0.523430 0.519360 0.790130 -0.275340
N2    N     N_R   0.476570 0.480640 0.209880 -0.272408
C23   C     C_R   0.365003 0.418139 0.025676 -0.195784
C24   C     C_R   0.387709 0.412418 0.141723 0.479988
C25   C     C_R   0.546594 0.548822 0.154403 0.439811
C26   C     C_R   0.525846 0.549907 0.034109 -0.125992
C27   C     C_R   0.448710 0.471972 0.967545 -0.131613
C28   C     C_R   0.454659 0.451625 0.845518 0.542713
C29   C     C_R   0.586492 0.607005 0.856332 0.172517
C30   C     C_R   0.579713 0.627206 0.977922 -0.015428
N3    N     N_R   0.152376 0.561967 0.736037 0.216970
O9    O     O_R   0.241904 0.530586 0.786735 -0.280906
O10   O     O_R   0.130151 0.652853 0.784931 -0.168917
C31   C     C_2   0.840142 0.355835 0.308522 0.543796
H1    H     H_    0.858808 0.391044 0.235147 0.094371
O11   O     O_2   0.762178 0.282025 0.289390 -0.399139
C32   C     C_2   0.158241 0.664599 0.398102 0.677987
H2    H     H_    0.242084 0.641316 0.370763 0.111591
O12   O     O_2   0.133353 0.745328 0.372897 -0.355190
C33   C     C_2   0.913947 0.575643 0.322857 0.496742
H3    H     H_    0.827537 0.538889 0.293854 0.118341
O13   O     O_2   0.973759 0.611492 0.252434 -0.355944
C34   C     C_2   0.473408 0.799560 0.314235 0.560315
H4    H     H_    0.544741 0.816823 0.259409 0.082279
O14   O     O_2   0.386473 0.738472 0.274571 -0.481719
C35   C     C_2   0.527984 0.856409 0.750302 0.510992
H5    H     H_    0.588341 0.894863 0.822147 0.108793
O15   O     O_2   0.440863 0.799634 0.769471 -0.384530
N4    N     N_R   0.357287 0.956021 0.267453 0.107161
O16   O     O_R   0.248831 0.925221 0.291662 -0.175935
O17   O     O_R   0.388470 0.935859 0.162000 -0.280351
C36   C     C_2   0.716073 0.017603 0.686761 0.499885
H6    H     H_    0.745583 0.986019 0.759647 0.090471
O18   O     O_2   0.786569 0.079647 0.650706 -0.423067
C37   C     C_2   0.455169 0.154359 0.249472 0.615168
H7    H     H_    0.374342 0.126336 0.195990 0.170710
O19   O     O_2   0.536407 0.205656 0.212385 -0.448611
C38   C     C_2   0.594433 0.204151 0.672057 0.605448
H8    H     H_    0.643357 0.279809 0.679311 0.169703
O20   O     O_2   0.576549 0.172176 0.760959 -0.481248
N5    N     N_R   0.399166 0.353451 0.783981 0.088564
O21   O     O_R   0.402081 0.271659 0.829623 -0.323145
O22   O     O_R   0.326252 0.347463 0.695618 -0.298478
C39   C     C_2   0.087868 0.382799 0.663513 0.657441
H9    H     H_    0.064468 0.314141 0.603043 0.150369
O23   O     O_2   0.102305 0.368452 0.761542 -0.443080
C40   C     C_2   0.670553 0.677636 0.803173 0.455566
H10   H     H_    0.683745 0.663562 0.713527 0.069672
O24   O     O_2   0.733283 0.751592 0.860156 -0.528085
C41   C     C_2   0.241085 0.387754 0.975773 0.693732
H11   H     H_    0.214944 0.312311 0.923579 0.167777
O25   O     O_2   0.165768 0.446608 0.997581 -0.379570
C42   C     C_2   0.604212 0.734844 0.042201 0.529707
H12   H     H_    0.670580 0.756692 0.113077 0.145396
O26   O     O_2   0.549124 0.801486 0.014445 -0.462643
N6    N     N_R   0.325098 0.323713 0.177443 0.127003
O27   O     O_R   0.284277 0.242577 0.101430 -0.343428
O28   O     O_R   0.297378 0.324153 0.281458 -0.258852
N7    N     N_R   0.660150 0.599425 0.204574 0.052584
O29   O     O_R   0.668535 0.666032 0.299477 -0.416119
O30   O     O_R   0.751592 0.597875 0.140067 -0.335148
N8    N     N_R   0.857504 0.427445 0.702554 0.177552
O31   O     O_R   0.777317 0.458287 0.773398 -0.310754
O32   O     O_R   0.874998 0.332162 0.701393 -0.271161
C43   C     C_2   0.912019 0.607959 0.710872 0.591486
H13   H     H_    0.889460 0.671517 0.675554 0.027268
O33   O     O_2   0.917338 0.621621 0.815874 -0.370218
N9    N     N_R   0.125276 0.693990 0.587660 0.131602
O34   O     O_R   0.063326 0.768896 0.624258 -0.255965
O35   O     O_R   0.239681 0.711332 0.617462 -0.304484
C44   C     C_2   0.878734 0.693067 0.481429 0.578915
H14   H     H_    0.793950 0.690875 0.522079 -0.027600
O36   O     O_2   0.914933 0.773446 0.450178 -0.377046
N10   N     N_R   0.076810 0.415257 0.286564 0.112023
O37   O     O_R   0.046500 0.337935 0.202294 -0.240126
O38   O     O_R   0.144209 0.491246 0.258721 -0.333527
N11   N     N_R   0.110596 0.304139 0.415208 0.149548
O39   O     O_R   0.075678 0.220952 0.339697 -0.158138
O40   O     O_R   0.209314 0.302769 0.475429 -0.366850
N12   N     N_R   0.868682 0.302368 0.485564 0.166304
O41   O     O_R   0.757050 0.295603 0.510829 -0.374535
O42   O     O_R   0.914145 0.215713 0.472347 -0.212786

loop_
_geom_bond_atom_site_label_1
_geom_bond_atom_site_label_2
_geom_bond_distance
_ccdc_geom_bond_type
C34   H4    1.080930 S    
N2    C25   1.400282 A    
Cu1   N1    2.044841 S    
N5    O21   1.300230 A    
N6    O28   1.283413 A    
C23   C24   1.408725 A    
C14   C17   1.437400 A    
N12   O42   1.298431 A    
C43   H13   1.058066 S    
Cu1   Cu2   2.721697 S    
C42   H12   1.080479 S    
C24   N6    1.440022 S    
Cu1   O7    2.054251 S    
C2    C9    1.554518 S    
C19   C20   1.415605 A    
C16   C37   1.474774 S    
C21   C35   1.483832 S    
C18   C19   1.413616 A    
C39   O23   1.220150 D    
C26   C30   1.413040 A    
N11   O40   1.302102 A    
O4    C2    1.326085 A    
O7    C4    1.304373 A    
C6    C43   1.536041 S    
N10   O37   1.304421 A    
C35   O15   1.220263 D    
C5    C6    1.653192 S    
C28   N5    1.437341 S    
C3    C13   1.492964 S    
C8    C9    1.686525 S    
C29   C30   1.426725 A    
N4    O17   1.302015 A    
O5    C3    1.321645 A    
C44   H14   1.083770 S    
C5    C9    1.684220 S    
C32   O12   1.222157 D    
C8    N11   1.502928 S    
C38   H8    1.076859 S    
C6    C10   1.678597 S    
C5    C39   1.528021 S    
C8    C12   1.650310 S    
N5    O22   1.293068 A    
C1    C14   1.506310 S    
N8    O31   1.305500 A    
O3    Cu1   2.067691 S    
N12   O41   1.298051 A    
C43   O33   1.225371 D    
C23   C41   1.477429 S    
C33   O13   1.219428 D    
C42   O26   1.220404 D    
C15   C19   1.410418 A    
C31   O11   1.221423 D    
N1    C28   1.388588 A    
C25   N7    1.429761 S    
C37   H7    1.079299 S    
C13   C20   1.429920 A    
C4    C10   1.566715 S    
C18   C22   1.418574 A    
C39   H9    1.055836 S    
C22   C36   1.491390 S    
O3    C2    1.312994 A    
C7    C32   1.534608 S    
N7    O29   1.295840 A    
C40   O24   1.221168 D    
C15   N4    1.439054 S    
C35   H5    1.083071 S    
C7    C11   1.630992 S    
O1    C1    1.313659 A    
C13   C21   1.414539 A    
C23   C27   1.393708 A    
N3    O9    1.300123 A    
C8    N10   1.509785 S    
C25   C26   1.441305 A    
N7    O30   1.303892 A    
C21   C22   1.397288 A    
Cu2   O8    2.067690 S    
N9    O35   1.305361 A    
C44   O36   1.222955 D    
C30   C42   1.486163 S    
Cu2   N2    2.044725 S    
C10   C11   1.655609 S    
N8    O32   1.300314 A    
N3    O10   1.298534 A    
C17   C38   1.496287 S    
C12   C31   1.558509 S    
O8    C4    1.336889 A    
C32   H2    1.068942 S    
C41   O25   1.220601 D    
C34   O14   1.218959 D    
C10   C12   1.649496 S    
C27   C28   1.430836 A    
C33   H3    1.053116 S    
Cu1   O5    2.008405 S    
C31   H1    1.075605 S    
O1    Cu1   1.999969 S    
O2    Cu2   2.008405 S    
C14   C16   1.420540 A    
O6    C3    1.306211 A    
C29   C40   1.491071 S    
O4    Cu2   2.054249 S    
C20   C34   1.482679 S    
C6    N8    1.541349 S    
N1    C29   1.386255 A    
C36   H6    1.083755 S    
O2    C1    1.319887 A    
C15   C16   1.394130 A    
C5    N3    1.534122 S    
N11   O39   1.304474 A    
C26   C27   1.379545 A    
N10   O38   1.290232 A    
N9    O34   1.299847 A    
C7    C9    1.650577 S    
N2    C24   1.395929 A    
N4    O16   1.300338 A    
C7    N9    1.485037 S    
C40   H10   1.065899 S    
C11   C44   1.538121 S    
N6    O27   1.302882 A    
Cu2   O6    1.999969 S    
C41   H11   1.083090 S    
C17   C18   1.426218 A    
C38   O20   1.220471 D    
C37   O19   1.219209 D    
C11   C33   1.520154 S    
C12   N12   1.487899 S    
C36   O18   1.221366 D    
